13
opt_min/./Product_8469_0_opt.xyz
  N -1.20964900  1.41484500  0.09467600
  C -0.34666325  0.30549590  0.01674924
  C  0.98727223  0.11194418  0.12136321
  O  1.93709175  1.06328121  0.31294866
  H  1.59225407  1.93424053  0.08665000
  C  1.27733806 -1.30014190  0.02357457
  H  2.28190482 -1.67412144  0.07656807
  C  0.17420949 -2.06886464 -0.15973763
  N -0.96792881 -1.00892575 -0.14294829
  H -1.58108255 -1.23908343  0.63975868
  H -1.50800883 -1.11177023 -1.00219481
  H -1.46380673  1.82760024 -0.79712182
  H -0.90078611  2.12861140  0.74083060
