11
opt_min/./Product_2182_0_opt.xyz
  N  2.00470200 -0.11509200  0.00135300
  C  0.63218381 -0.13027011  0.04399671
  C -0.31379765  0.81445919  0.07770926
  H -0.17293749  1.87412300  0.11742723
  C -1.62955554  0.11288088  0.00993521
  H -2.26320067  0.27736340  0.88538224
  H -2.23388453  0.37917671 -0.86012084
  C -1.25464243 -1.34416647 -0.05627154
  O  0.04091260 -1.39565293 -0.03007587
  H  2.44390795  0.69094880  0.41834262
  H  2.43167431 -0.99265131  0.25907375
