15
opt_min/./Product_7824_0_opt.xyz
  C -1.83388900  0.26936800  0.25120100
  C -0.37222657 -0.02047906  0.57038000
  H -0.27581977 -0.23785423  1.63883525
  C  0.24386687 -1.15894414 -0.25673975
  H  0.34829235 -2.08608902  0.30923798
  H -0.37194972 -1.37925842 -1.13345609
  C  1.56217854 -0.61761185 -0.69818399
  H  2.28151282 -1.23026469 -1.21630191
  C  1.71650489  0.67171531 -0.40324283
  H  2.55827470  1.29562919 -0.64363305
  C  0.53380209  1.18605970  0.29731494
  O  0.29799900  2.32491786  0.61585338
  H -2.18539278  1.10165015  0.85583156
  H -1.94282377  0.54587523 -0.79586636
  H -2.45077865 -0.60236394  0.45376144
