16
opt_min/./Reactant_4729_0_opt.xyz
  C -0.67120300  1.39194800 -0.01198500
  C -0.23019698 -0.05126924 -0.10128625
  C -1.24777432 -1.03683890  0.43429465
  H -2.22255417 -0.84765704 -0.00421929
  H -1.33517081 -0.93930975  1.51304435
  H -0.95614157 -2.05715453  0.20258531
  C  0.64268012 -0.45974207 -1.26113683
  H  0.92862520  0.30026679 -1.96682186
  H  0.52300869 -1.43680904 -1.69725388
  C  1.23155234 -0.36303139  0.11569370
  O  2.15750675  0.65080702  0.35322798
  H  2.03963519  0.98054848  1.24981192
  H  1.46708657 -1.29642448  0.62188050
  H  0.12293721  2.05384847 -0.34416018
  H -0.93351591  1.64392126  1.01262975
  H -1.54574571  1.55788078 -0.63635175
