19
opt_min/./Product_11859_0_opt.xyz
  C -2.45158500  0.22304400  0.63098400
  C -1.92795773  0.49076067 -0.78148398
  C -0.50189622  0.35110028 -1.11723002
  C  0.38262550 -0.17824677 -0.06777608
  C  1.86074470  0.17237190 -0.28849216
  C  2.79292578 -0.90030166  0.28830454
  H  2.61717181 -1.85841592 -0.19418789
  H  3.83707133 -0.62556964  0.14716749
  H  2.60744827 -1.00294260  1.35636601
  O  2.07125832  1.42038810  0.34653180
  H  2.98049577  1.69620878  0.19950104
  H  2.04211445  0.27743438 -1.37134582
  H  0.24991878 -1.26155625 -0.20871804
  H  0.13078794  0.05598235  0.97193736
  H -2.41653406 -0.18306743 -1.50295322
  H -2.22244507  1.49462190 -1.10752567
  H -1.94577810  0.86291325  1.35184330
  H -3.51868324  0.43089989  0.67708539
  H -2.29498450 -0.81659875  0.91441704
