12
opt_min/./Product_203_0_opt.xyz
  O -2.06601600  0.10023100  0.19059800
  C -0.77663476 -0.30049937  0.55971438
  C  0.33426253  0.43284460 -0.21614186
  O  0.42150413  1.73293008  0.29513703
  H  1.16753004  2.19082430 -0.10800971
  C  1.63576653 -0.33850787 -0.08204602
  C  2.67989051 -0.20680356  0.66107934
  H  1.69409161 -1.20176437 -0.74161843
  H  0.05749924  0.46240343 -1.28763266
  H -0.67121897 -0.05272787  1.61760620
  H -0.66561241 -1.38996333  0.43818539
  H -2.18977305 -0.04147340 -0.75472073
