14
opt_min/./Product_8715_0_opt.xyz
  C  1.92953100 -0.96119500  0.68524200
  N  1.00724011 -0.11189120  0.62552381
  C  0.32582868  0.12087580 -0.61296880
  N  0.67066521  1.44833438 -1.10468850
  H  1.13549545  1.97529604 -0.36968945
  H -0.17678749  1.94883331 -1.36088998
  C -1.20976518  0.01467196 -0.41102024
  O -1.99025456  0.29478662 -1.28972126
  N -1.56569669 -0.41222289  0.81671953
  H -2.54427668 -0.45843239  1.05662284
  H -0.86105795 -0.48225817  1.53493376
  H  0.61195971 -0.61566998 -1.38823578
  H  2.24968064 -1.58267954 -0.15433283
  H  2.43338531 -1.09801026  1.63252017
