16
opt_min/./Product_3249_0_opt.xyz
  C -0.05115200  1.74522500 -0.31058700
  C -0.02231513  0.35080308 -0.93576622
  C  1.30147812 -0.30489768 -0.67332463
  C  1.52979786 -1.41175356  0.00512460
  H  2.52799286 -1.79461416  0.13439066
  H  0.74466321 -1.97526361  0.47639460
  H  2.13263309  0.23903692 -1.10629419
  C -1.23017262 -0.47185485 -0.45795038
  O -1.24337244 -0.52288583  0.95237606
  H -1.96625019 -1.08962659  1.23898097
  H -1.16210895 -1.47806989 -0.88710390
  H -2.14764073  0.00984441 -0.82187358
  H -0.12898209  0.45775967 -2.02403726
  H -0.00399878  1.65572392  0.76986550
  H -0.96034287  2.27189009 -0.58741096
  H  0.79917901  2.33144709 -0.65499782
