11
opt_min/./Product_9454_0_opt.xyz
  O  2.33612700  1.53971700 -0.17273200
  C  1.33285691  0.88966760 -0.10264813
  N  0.01050032  1.37062622 -0.19360292
  C -0.78321189  0.38216666 -0.07026241
  O -2.09720575  0.45841837 -0.10067313
  H -2.36366169  1.38290558 -0.22587668
  C -0.08523764 -0.94426522  0.11989001
  H -0.35637564 -1.41640197  1.06864202
  H -0.31767652 -1.63591827 -0.69675540
  N  1.26776313 -0.47156157  0.08339250
  H  2.07870122 -1.05403166  0.18637731
