10
opt_min/./Product_9367_0_opt.xyz
  C -1.59754000  0.67355600 -0.17870300
  H -2.61980175  0.89930187 -0.33597009
  C -0.51166655  1.00644407  0.45914512
  C  0.53549077  0.23706270  0.83132633
  C  1.66833058 -0.10458872  0.02961778
  H  2.68794597  0.12486768  0.27094035
  N  1.41621698 -0.85006202 -0.98175144
  O  0.02986349 -1.05946605 -1.13734086
  C -0.68077251 -0.58128707 -0.07943888
  H -1.08900499 -1.34729246  0.57727384
