9
opt_min/./Product_5933_1_opt.xyz
  N -1.27300200 -0.22651800  0.55464200
  C -0.15887943 -0.35919943 -0.31604741
  H -0.45467543 -0.61517774 -1.32815780
  C  1.13500969  0.30718027 -0.11864144
  H  1.28585341  0.95769190  0.73427833
  H  1.78494734  0.51496196 -0.96007880
  O  0.94232523 -1.05441868  0.17291206
  H -1.98456138  0.36596137  0.14960145
  H -0.99946119  0.14273398  1.45609846
