14
opt_min/./Product_6158_1_opt.xyz
  O  2.35168900 -0.14446100  0.89732200
  C  0.97237818 -0.09564852  0.73723567
  H  0.50164039 -0.17742713  1.70910468
  C  0.32642982 -0.74003652 -0.45801201
  H  0.87229916 -1.37053219 -1.14079295
  C  0.36463018  0.77329372 -0.32152122
  H  0.93747231  1.49944495 -0.87656334
  C -1.14706807  0.80998100 -0.14402727
  H -1.65577836  1.31185803 -0.96410246
  H -1.50101017  1.21923644  0.80085084
  C -1.18539441 -0.73046126 -0.26519553
  H -1.53359056 -1.25445127  0.62515991
  H -1.73883052 -1.08607409 -1.13037750
  H  2.77077593 -0.06177634  0.03318249
