15
opt_min/./Reactant_8705_0_opt.xyz
  C  0.64029716 -0.49105763 -1.31572606
  C -0.02883434 -0.02824778 -0.00904114
  C -0.73434444 -1.20809753  0.67674007
  H -1.32042365 -0.85982687  1.52217526
  H -1.40123216 -1.70212125 -0.02728276
  H -0.01097039 -1.93623564  1.03336877
  C -1.00616449  1.01706558 -0.29297851
  C -1.82069099  1.86352770 -0.51974003
  H -2.52996028  2.60920916 -0.71594250
  C  0.97146989  0.54212104  0.88793833
  C  1.79134470  1.00528304  1.62578618
  H  2.51620055  1.41100091  2.26531706
  H -0.12291467 -0.64866660 -2.07523921
  H  1.17090054 -1.42445340 -1.16226889
  H  1.33549676  0.26017911 -1.67842842
