8
opt_min/./Product_2296_1_opt.xyz
  C -0.28033400 -0.58600700 -0.71566900
  C  0.89319964 -0.44182819  0.20964660
  H  1.76961431 -0.07279601 -0.32835316
  H  1.16566297 -1.33238300  0.77552278
  O  0.26862569  0.56593446  1.00653335
  C -0.87676113  0.47061120  0.16498312
  H -1.75978556  0.08303491  0.68071369
  H -1.14514224  1.40496978 -0.32781919
