13
opt_min/./Product_695_0_opt.xyz
  C -1.68352900  0.47837000  0.11908700
  C -0.23949683  0.15083943  0.00693967
  C  0.83475587  0.96601877  0.00029092
  H  0.85000594  2.03747373  0.06288003
  C  1.99594868  0.11710161 -0.11397977
  H  3.01609920  0.46204193 -0.14671348
  N  1.71996335 -1.13191868 -0.17360247
  C  0.28952561 -1.24947893 -0.10654605
  H  0.01599186 -1.87187225  0.74890242
  H -0.07251895 -1.76067309 -1.00194433
  H -1.93790404  1.31415078 -0.53124950
  H -1.92502575  0.77210659  1.14112706
  H -2.29725224 -0.37860979 -0.14797469
