14
opt_min/./Product_10151_0_opt.xyz
  O  2.31039300 -0.73227000 -0.24323000
  C  0.97418700 -0.64272294  0.14551185
  H  0.86608074 -1.18755238  1.09079790
  C  0.43248031  0.79855617  0.19622258
  H  1.10078697  1.58951172 -0.10776334
  C -1.06597618  0.77752087 -0.19257268
  H -1.49553603  1.58475580 -0.76416280
  C -1.42038246 -0.66049616 -0.50325253
  H -2.11764873 -0.75450974 -1.33096342
  H -1.75108629 -1.24062624  0.36287041
  C -0.00351700 -0.67521087 -0.95510804
  N -0.60769116  1.10158496  1.10986512
  H -0.77641520  0.40562910  1.83321092
  H  2.33722279 -0.68769299 -1.20886449
