14
opt_min/./Reactant_3989_0_opt.xyz
  C  1.93805900 -0.21612600  0.27246000
  C  0.68086865  0.10531858 -0.52403346
  N -0.40372791  0.42086954  0.37883931
  C -1.67316083  0.81289660 -0.17746459
  H -2.16298551  1.63021123  0.33359884
  H -1.80497363  0.81330813 -1.25466192
  C -1.51191648 -0.48317127  0.51462671
  H -1.89891132 -0.60811366  1.51551212
  H -1.51650957 -1.38494322 -0.09158568
  H  0.85542095  0.98113050 -1.15752497
  H  0.43006706 -0.74141355 -1.18600714
  H  2.78814137 -0.32407974 -0.39599439
  H  1.80816245 -1.14119624  0.82813441
  H  2.13913463  0.58395155  0.97813137
