15
opt_min/./Product_6499_0_opt.xyz
  O  2.81090100  0.01159900  0.30392100
  C  1.48467145  0.13042625  0.06884194
  N  0.98596243  1.26682416 -0.18976439
  C -0.43624255  1.34438185 -0.42501933
  H -0.61649785  1.31006081 -1.50614279
  H -0.76725836  2.32072114 -0.06111450
  C -1.21775083  0.21985026  0.26705274
  H -1.14030429  0.35388510  1.34651346
  H -2.26665171  0.24268753 -0.02388702
  C -0.58940391 -1.12072105 -0.11214515
  H -0.76037685 -1.32395948 -1.17863889
  H -1.02692358 -1.93684773  0.46968888
  N  0.82681123 -1.05419616  0.16778736
  H  1.34813592 -1.89542644  0.33736249
  H  3.20496466  0.89019291  0.22555336
