13
opt_min/./Product_2751_0_opt.xyz
  C -1.81889600  0.03800300  0.19544500
  H -2.56711296 -0.61716098 -0.23411511
  H -1.99198456  0.31106152  1.22751266
  N -1.22705253  1.08511022 -0.60176438
  H -1.54657904  1.13134232 -1.56316515
  C -0.42066438 -0.06538298 -0.28121074
  C  0.73396459  0.15120367  0.66998350
  O  1.92206508  0.43522273 -0.07370598
  C  2.79679934 -0.51583504 -0.13872777
  H  3.62405320 -0.11298449 -0.76662333
  H  0.89954837 -0.74748888  1.27696799
  H  0.53588845  1.02248222  1.29808827
  H -0.19582643 -0.79904231 -1.05437149
