13
opt_min/./Product_7933_0_opt.xyz
  C -1.65309500  0.44252400 -0.41530700
  H -2.13417706  0.00420200 -1.29074732
  H -2.02536831  1.45334974 -0.24726060
  C -1.50628105 -0.45821888  0.81066277
  H -2.18503268 -0.90358379  1.49712526
  C -0.15785297 -0.42863698  0.62087121
  N  1.14967682 -0.72110433  0.87952625
  H  1.51718199 -1.28429885  1.62260894
  C  1.90607600 -0.06130421 -0.10633305
  H  2.97280947 -0.13494651 -0.11962167
  C  1.07779158  0.61293906 -0.93992915
  H  1.31202549  1.21667614 -1.79313187
  N -0.18966962  0.38062530 -0.49004099
