15
opt_min/./Product_7363_0_opt.xyz
  C  1.27301600 -0.51182600  0.74326500
  H  1.20395148 -1.55797408  1.00846425
  H  1.81379018  0.08897040  1.45900130
  C  1.41468120 -0.17006014 -0.71324789
  H  2.05455452  0.65953911 -0.97982723
  H  1.42233438 -0.97275660 -1.43647292
  C  0.12477318  0.11822905 -0.00283710
  C -1.16102045 -0.65406752 -0.30203167
  H -1.28589706 -1.54588673  0.31867545
  H -1.20482755 -0.98186170 -1.35060610
  C -2.20196390  0.39468997 -0.02551935
  H -3.26753768  0.31799998 -0.06779196
  O -1.64931817  1.53666925  0.28243611
  C -0.34368479  1.48879898  0.30525901
  H  0.21751933  2.36872911  0.53263091
