8
opt_min/./Reactant_5334_0_opt.xyz
  N  1.46078000  0.03855000  0.05905400
  C  0.08553768  0.00801501  0.00967759
  N -0.63170476 -1.08578958 -0.04689707
  O -1.89110284 -0.68207693 -0.08048376
  N -1.92306254  0.68104926 -0.04498248
  N -0.75814756  1.10315463  0.00893814
  H  1.80953544  0.41260802  0.92959747
  H  1.86246074  0.51694137 -0.73483314
