10
opt_min/./Product_385_0_opt.xyz
  N -0.46955400 -0.88283300 -0.01359100
  H -0.47357212 -1.88542126 -0.07773028
  C -1.52996803 -0.06909987  0.12903042
  H -2.56101343 -0.35138437  0.17319329
  O -1.14138247  1.16350858  0.20382984
  C  0.20274324  1.20091353  0.11920267
  H  0.70457037  2.14317952  0.15430234
  C  0.71746145 -0.11597031 -0.03182435
  N  1.85072879 -0.69190770 -0.16283875
  H  2.63189220 -0.04689898 -0.16159702
