9
opt_min/./Reactant_6705_0_opt.xyz
  O  2.33579700  0.97427600 -0.48028600
  C  1.71643934  0.09016631  0.03281973
  C  0.24655964 -0.01716591  0.02323948
  N -0.61302686  0.79717755 -0.52333210
  C -1.80103448  0.22243982 -0.23010847
  H -2.73933391  0.63841657 -0.53504790
  N -1.68861437 -0.87758201  0.45409447
  O -0.36307554 -1.05184649  0.62994352
  H  2.20001356 -0.74597114  0.57368275
