13
opt_min/./Product_10914_1_opt.xyz
  O -2.46951200 -0.35628800 -0.19675500
  C -1.21781355 -0.39537081  0.46085299
  C -0.22074907  0.41088974 -0.37129746
  C  1.11568176  0.48879633  0.29038237
  C  2.24708826  0.06882002 -0.24193172
  H  2.28370014 -0.37033963 -1.22475013
  H  3.18827288  0.15279115  0.27328374
  H  1.10837154  0.92733510  1.28094455
  H -0.13927541 -0.03412770 -1.36199474
  H -0.63413037  1.41595861 -0.48605414
  H -0.86330905 -1.42749398  0.57186236
  H -1.31348213  0.04271022  1.46553298
  H -3.04921011 -1.02668839  0.17773662
