13
opt_min/./Product_4572_0_opt.xyz
  C -1.50796100 -0.48701500 -0.51545300
  C -0.52140749  0.64950901 -0.33706015
  H -0.32125448  1.18442767 -1.27172946
  C -0.28584372  1.29214680  0.95088551
  H -0.49761534  1.94512413  1.74732676
  N  0.63315195  0.44059797  0.52937494
  C  1.74085943 -0.20438201  0.63757530
  O  2.18388905 -1.08087882 -0.33247450
  H  1.53416126 -1.08910018 -1.04596336
  H  2.38272160 -0.11468462  1.49212601
  H -1.15169863 -1.21540725 -1.24383171
  H -2.45292125 -0.08642475 -0.87672010
  H -1.68620997 -0.98935978  0.43252200
