13
opt_min/./Product_10038_0_opt.xyz
  N  2.08865800  0.04835600 -0.15039900
  C  0.84810033 -0.08036918  0.55995532
  H  0.92495656 -0.61044577  1.53218363
  C  0.17119191  1.23145563  0.89779613
  C -1.08651586  1.11344779  0.31798396
  H -1.85616901  1.86389150  0.37611718
  C -1.21320200 -0.08862179 -0.38108021
  O -2.25125559 -0.56291199 -1.08096887
  H -2.98087636  0.06935400 -1.05126887
  N -0.12632532 -0.83724735 -0.24298448
  H  0.08526303 -1.65526493 -0.78751856
  H  2.74473642 -0.69189255  0.06940454
  H  2.50879485  0.94590645  0.05217495
