10
opt_min/./Product_4763_0_opt.xyz
  O -0.45748900 -0.87447400  0.12060300
  C  0.47008233 -0.49829413  1.07730826
  C  1.62339085  0.08422811  0.81763245
  H  2.30726388  0.31936142  1.60980301
  H  1.90302942  0.35762104 -0.18497282
  H  0.15792468 -0.77298354  2.07534269
  C -0.86549757  0.02169755 -0.77746381
  O -1.67775335 -0.59890611 -1.63896263
  H -2.07449744  0.04012780 -2.25035574
  O -0.58566012  1.18128600 -0.81865291
