12
opt_min/./Product_2997_0_opt.xyz
  C -1.18344800 -0.43832700 -0.09390500
  C  0.11313767  0.25234921  0.33796318
  C  1.32030518 -0.29380516 -0.42469893
  H  1.56313983 -1.29098644 -0.07817199
  H  2.17671162  0.35454461 -0.27465910
  H  1.10862833 -0.33331608 -1.48702572
  O  0.02755819  1.65358472  0.10017396
  H -0.14844398  2.11950151  0.91736188
  H  0.26262287  0.06440255  1.40801896
  H -1.10326194 -1.50707921  0.06184011
  H -2.02096295 -0.05329133  0.47884249
  H -1.36357319 -0.24372294 -1.14569658
