16
opt_min/./Product_6876_0_opt.xyz
  C -2.07008000  0.47716200 -0.54619100
  N -1.32457017 -0.55647112  0.12474241
  C -0.46773009 -1.42724482 -0.64748130
  H -0.52666699 -2.47673615 -0.39618169
  H -0.32653632 -1.20759716 -1.70019265
  C  0.09772731 -0.46458076  0.32739106
  C  0.92066078  0.73218878 -0.13587956
  C  2.37587466  0.39938931  0.04367509
  O  3.03210450 -0.22724175 -0.73971814
  H  2.81873447  0.73441650  1.00248917
  H  0.74363883  0.92524063 -1.19528558
  H  0.64787013  1.61280754  0.44918964
  H  0.41191166 -0.85074047  1.29339226
  H -2.44682381  1.17364583  0.20308130
  H -1.49521556  1.03900160 -1.29294736
  H -2.92168093  0.01238259 -1.04328989
