15
opt_min/./Product_8491_0_opt.xyz
  C -2.43968100 -0.89504700 -0.28994200
  O -1.45318020 -0.45647030 -1.20652124
  C -0.37598317  0.17669261 -0.61962321
  O -0.47740751  1.52234638 -0.59103240
  H -1.24171285  1.78502002 -1.12181699
  C  0.65476149 -0.52202775 -0.15280949
  C  1.90457902  0.03296153  0.46966914
  O  1.70138560  1.32807969  0.97392949
  H  2.52843521  1.65417457  1.34483314
  H  2.21682685 -0.64724411  1.27979838
  H  2.70859357  0.03668629 -0.28749373
  H  0.61626600 -1.59499795 -0.23561772
  H -3.23354035 -1.34706237 -0.88321969
  H -2.84719503 -0.05932358  0.29051148
  H -2.02606906 -1.63652587  0.40107605
