14
opt_min/./Product_6933_0_opt.xyz
  N  2.64991200 -0.33133300 -0.13148600
  C  1.31551154 -0.01070860 -0.20757722
  N  0.89719031  1.12125315 -0.66919404
  C -0.53167857  1.14875765 -0.49243738
  H -0.81757189  2.00364975  0.12712145
  H -1.01582424  1.26894458 -1.46616772
  C -0.88627240 -0.16819906  0.15190576
  N -2.15963928 -0.50697564  0.46746608
  H -2.90470521  0.14693446  0.32872031
  H -2.34747062 -1.35677159  0.96252869
  C  0.26108422 -0.86011383  0.30915376
  H  0.40231494 -1.83669653  0.73240135
  H  2.88397563 -1.27354465 -0.40480204
  H  3.23286453  0.35801471 -0.58529446
