16
opt_min/./Product_11343_0_opt.xyz
  C  1.94024400 -0.35177300 -0.81561300
  C  0.87597236  0.19878594 -0.23964483
  C -0.20537462 -0.50012703  0.56815810
  C -0.95417549 -1.54833729 -0.25796331
  H -0.29217793 -2.37455607 -0.50469694
  H -1.32876600 -1.11278507 -1.17874358
  H -1.79068836 -1.94341839  0.31392205
  H  0.22971012 -0.99949500  1.43871463
  C -1.08622377  0.65467308  0.97700387
  H -1.96364699  0.54693576  1.57931254
  C -0.60275037  1.78182572  0.45289669
  H -0.98146985  2.78331716  0.53310844
  N  0.54395627  1.53786767 -0.27371491
  H  1.09434343  2.23483939 -0.74220959
  H  2.64638631  0.23330496 -1.37920613
  H  2.12963100 -1.40555287 -0.73989700
