16
opt_min/./Product_10644_0_opt.xyz
  C -0.66302500 -1.31610700  0.53531000
  C -0.53816396  0.20170338  0.34253846
  C  0.64255445  0.47379461 -0.57740625
  N  1.89434321  0.28115704  0.06930607
  C  3.01214671  0.30550041 -0.61002353
  H  3.86796938  0.13840365  0.06425341
  H  1.82102900  0.12409594  1.08713562
  O  0.56209929  0.79604476 -1.72290942
  C -1.81810170  0.77916794 -0.25297252
  H -2.66355518  0.57543254  0.39600046
  H -1.72883060  1.85537806 -0.37457520
  H -2.00680757  0.34699038 -1.23015386
  H -0.34429008  0.67393298  1.31186131
  H -1.51102566 -1.53904843  1.17391276
  H -0.81640193 -1.80424600 -0.42322042
  H  0.22936376 -1.73929740  0.98958143
