13
opt_min/./Product_10123_0_opt.xyz
  O  3.81260400 -0.03575092 -2.62364792
  N  2.93833932 -0.24172185 -1.82186053
  C  2.08147627 -0.48713656 -1.08361770
  N  1.07184307 -0.71621237 -0.25362192
  C  0.17698665  0.39265360  0.06537892
  C -1.03311465 -0.10293462  0.78698750
  C -2.27785523  0.15627028  0.43788592
  H -2.51281924  0.75181387 -0.42849604
  H -3.11721671 -0.20564169  1.00549459
  H -0.82394541 -0.70627442  1.66185366
  H -0.09539850  0.90286163 -0.86024966
  H  0.69703607  1.13406255  0.70653445
  H  1.28518008 -1.32392498  0.52895491
