13
opt_min/./Product_9682_0_opt.xyz
  C -0.26205919 -1.23795598 -0.95181198
  C -0.55615057  0.10335865 -0.26937018
  N -0.37912442  1.16793856 -1.17410444
  C -0.22096464  2.03730274 -1.92712862
  C  0.31957863  0.35744275  0.93942349
  O -0.00128485  1.51943487  1.54543794
  H  0.56652698  1.69544106  2.30644961
  N  1.20789855 -0.46030354  1.26649642
  H  1.75620897 -0.21800094  2.08458672
  H -1.60473820  0.13886255  0.05428234
  H  0.78666912 -1.48650798 -0.83529666
  H -0.85274516 -2.02569117 -0.49888940
  H -0.50475757 -1.17397755 -2.00691503
