13
opt_min/./Product_4874_0_opt.xyz
  C -1.79364300 -0.31744000  0.18397500
  C -0.52836981 -0.24286887 -0.65188517
  H -0.68223041 -0.72133949 -1.62230392
  C  0.19140642  1.09170780 -0.65745962
  H -0.01047670  2.03997222 -1.10384854
  C  1.18789362  0.53320804  0.03791472
  O  2.36206187  0.93797138  0.55046860
  H  2.82701588  0.18004109  0.92345679
  N  0.68674889 -0.78573764  0.02497000
  H  0.54211669 -1.27044170  0.90710142
  H -2.09673609 -1.35313130  0.32868527
  H -2.59593673  0.21192749 -0.32488081
  H -1.63230083  0.14619451  1.15578100
