15
opt_min/./Product_9207_0_opt.xyz
  C  2.04311200  0.18087800  0.48642800
  C  0.61136797  0.08197521  0.08291456
  C -0.09171229  0.91082912 -0.68770478
  H  0.27496450  1.82126468 -1.12975385
  C -1.51734053  0.47325901 -0.87889940
  H -2.20699795  1.24300213 -0.52025742
  H -1.74763734  0.26479206 -1.92538010
  C -1.60432331 -0.78161555 -0.02633179
  H -2.30223949 -1.56677278 -0.29079132
  C -0.27406367 -1.01913544  0.55606450
  H  0.10830166 -2.00234572  0.80252194
  O -1.36692530 -0.57806357  1.33236634
  H  2.62922612  0.65806269 -0.29623675
  H  2.13413631  0.78134285  1.39318820
  H  2.44414231 -0.80783159  0.69886964
