9
opt_min/./Product_6700_0_opt.xyz
  O -2.33248100 -0.79256000 -0.01477600
  C -1.17628339 -0.47693572 -0.00582575
  C -0.64022698  0.89886306 -0.02755010
  H -1.33330458  1.72896653 -0.05436768
  N  0.61566326  1.15152265 -0.01592960
  C  1.45872926  0.07253752  0.01814485
  H  2.51756271  0.27420013  0.02818624
  N  1.11014123 -1.15602851  0.03929844
  O -0.20778652 -1.45725841  0.02786413
