14
opt_min/./Product_261_0_opt.xyz
  C -0.88637300  1.27163800  0.16168600
  C -0.36098710 -0.15323412  0.16047958
  C  1.11217756 -0.26451855  0.49702052
  O  1.85891069  0.40730676 -0.50168183
  H  2.77520329  0.11608340 -0.44384898
  H  1.40596081 -1.32094704  0.55287636
  H  1.29604591  0.18748543  1.48251713
  C -0.94510653 -1.16493564 -0.77413180
  H -0.31606510 -1.94762862 -1.17294438
  H -1.74854664 -0.88788877 -1.44477944
  C -1.27967254 -1.21374669  0.66656337
  H -1.59979898  1.40638782 -0.65042551
  H -1.39845902  1.51130638  1.09251123
  H -0.05832426  1.95866542  0.01798996
