17
opt_min/./Product_6888_0_opt.xyz
  C -2.40722700 -0.08365100  0.29367500
  C -1.00587977 -0.07956380 -0.32017526
  H -1.12135247 -0.18800380 -1.42846403
  O -0.41066817  1.18527292 -0.03508293
  C  0.96265858  1.22652899 -0.34428330
  H  1.28553063  2.24091087 -0.09571969
  H  1.11164955  1.05843256 -1.42393684
  C  1.72299492  0.17653104  0.46326132
  H  1.52539153  0.35521832  1.52275398
  H  2.79688710  0.25209235  0.29343162
  C  1.18566403 -1.20499596  0.07150675
  H  1.53654053 -1.98879466  0.74782818
  H  1.56147115 -1.48915032 -0.92372556
  C -0.26984246 -1.32653650 -0.12543528
  H -3.04568202  0.64428866 -0.19843566
  H -2.83837522 -1.07645856  0.20405372
  H -2.32497239  0.18377323  1.34341655
