16
opt_min/./Product_8937_0_opt.xyz
  C -2.32790200 -0.71917500  0.16786200
  C -0.89937532 -0.33601603  0.06484719
  C -0.15614019  0.78171402 -0.08362898
  O -0.33056198  2.11556162 -0.24739188
  H -1.27819376  2.29257686 -0.21555078
  N  1.06978854  0.15656755 -0.02490853
  C  2.42701299  0.53669916 -0.21715287
  H  2.77958213  0.35847701 -1.24471937
  H  2.52301633  1.60247788 -0.00951209
  H  3.06566077 -0.02081920  0.47164895
  C  0.40086643 -1.13488536  0.12123514
  H  0.57707242 -1.81269459 -0.71395718
  H  0.62996509 -1.63325211  1.06339683
  H -2.96638909  0.12903735 -0.07573133
  H -2.55686942 -1.52451182 -0.53219409
  H -2.58915945 -1.06433687  1.17092813
