11
opt_min/./Product_1632_0_opt.xyz
  N  1.19555500 -1.05586800  0.06898000
  C  0.68027191  0.19391025  0.17640304
  O  1.54187262  1.11268082  0.42477722
  O  1.14290562  2.38574056  0.48328874
  C -0.72662584  0.46523510 -0.00734589
  C -1.65642795 -0.42266824 -0.35504437
  H -2.68223606 -0.12125847 -0.46638332
  H -1.43780190 -1.46016428 -0.55021943
  H -0.97962491  1.50449050  0.15632793
  H  2.16007358 -1.18507536  0.32576919
  H  0.57932914 -1.84603216  0.12008147
