12
opt_min/./Product_10311_1_opt.xyz
  O  1.21733200  1.15221900 -0.44979100
  C  0.90380695 -0.22001753 -0.51942625
  C -0.23336525 -0.61742677  0.42129203
  C -1.52976053  0.10476317  0.07750669
  H -1.39802809  1.18438701  0.12764485
  H -2.31552981 -0.18190787  0.77565806
  H -1.84941934 -0.15253253 -0.93156914
  H  0.05632909 -0.38292053  1.45345211
  H -0.37853142 -1.69972205  0.35227796
  H  1.79877764 -0.81843332 -0.27999467
  H  0.62186199 -0.41611787 -1.55888913
  H  1.27065926  1.39868352  0.48212182
