12
opt_min/./Product_4057_0_opt.xyz
  C -0.76654200 -1.13486700 -0.05348800
  C  0.06997355  0.11407439 -0.18193077
  C -0.69009338  1.38423819  0.14016684
  C -0.31557673  2.11137975  1.13587454
  H -1.51356865  1.60745038 -0.52287619
  C  1.51847763  0.10034627  0.04410363
  H  2.00715857  0.99149101  0.41556501
  H  2.01789333 -0.83334497  0.27191329
  O  0.96705543  0.20262717 -1.24194479
  H -1.10960097 -1.23827999  0.97276937
  H -0.16993506 -2.00307302 -0.31633144
  H -1.63340643 -1.09022948 -0.70781632
