14
opt_min/./Product_6203_0_opt.xyz
  C  2.28747400 -0.14962900  0.30968400
  O  1.30406848 -1.12274835  0.04034624
  C  0.02621824 -0.68301215  0.01678530
  C -1.16129493 -1.28058739 -0.04704171
  H -1.50415199 -2.29639807 -0.10339107
  C -1.92037374  0.01639255 -0.06191077
  H -2.56777439  0.21379183  0.79373022
  H -2.47588858  0.22012416 -0.97855610
  C -0.53697058  0.71489913  0.02581577
  H -0.37855298  1.27551575  0.94814818
  H -0.27375328  1.33857649 -0.82831008
  H  3.24347304 -0.66820434  0.24679213
  H  2.25417950  0.66158421 -0.42271109
  H  2.16905339  0.26907945  1.31488515
