11
opt_min/./Product_2837_0_opt.xyz
  C  2.01327600  0.03542200  0.12341300
  C  0.64812644  0.21493825 -0.01876300
  N  0.10053420  1.39956860 -0.39015314
  O -1.23943749  1.27803032 -0.44266187
  C -1.64434834 -0.04130477 -0.09781802
  H -2.21139529 -0.47178364 -0.93479289
  H -2.32318287  0.00164244  0.76658670
  C -0.37430902 -0.73698134  0.18101563
  H -0.25289281 -1.75475226  0.47873976
  H  2.68319787  0.85173130 -0.06213175
  H  2.41394395 -0.91371653  0.41797827
