11
opt_min/./Product_11507_0_opt.xyz
  N  2.09906498 -0.01994704  0.67875806
  C  1.32375745  0.81312951  0.17084232
  O  0.00800758  0.73554797 -0.15142075
  C -0.65489844 -0.44980986 -0.08122634
  C -1.98609959 -0.52494244 -0.10084970
  N -2.79309472  0.56026928 -0.14236010
  C -3.48673552  1.49818929 -0.17597005
  H -2.48760743 -1.48170464 -0.08062832
  H -0.04879576 -1.34890843 -0.04753644
  H  1.69340255  1.80463038 -0.07169163
  H  1.71592744 -0.93320363  0.91424856
