13
opt_min/./Product_3524_0_opt.xyz
  C  2.10324500 -0.19254500  0.40787900
  O  0.72429126 -0.36661245  0.59892826
  C -0.05299040  0.31990673 -0.34940475
  C -1.51874910  0.00308893 -0.10579344
  O -1.80219891 -1.28210566 -0.30805734
  H -2.74044692 -1.42331947 -0.10645926
  N -2.43583239  0.80221127  0.21766441
  H -2.15425438  1.76556539  0.35222824
  H  0.10602502  1.40884949 -0.27047464
  H  0.21083001  0.00222130 -1.37119706
  H  2.38762778  0.86352187  0.48979661
  H  2.59205238 -0.76338883  1.19418402
  H  2.42327949 -0.57216451 -0.57024084
