14
opt_min/./Product_1521_0_opt.xyz
  C -1.25411500 -0.92787900  0.21413000
  C -0.71236407  0.46525153  0.34101536
  C -1.48926311  1.54350619  0.38499804
  H -1.06330970  2.52430352  0.48176413
  H -2.55658472  1.45203133  0.33652194
  O  0.63976632  0.65066415  0.44141534
  C  1.52973071 -0.44080083  0.25222098
  C  2.93839972 -0.14938579  0.30320872
  H  3.10027050  0.93123442  0.43576964
  H  1.38712510 -0.89055981 -0.74558912
  H  1.32866822 -1.25159225  0.96837090
  H -0.95651898 -1.53746950  1.06778700
  H -0.89664839 -1.41674615 -0.69192773
  H -2.33744503 -0.89291074  0.17933089
