12
opt_min/./Product_9149_0_opt.xyz
  C  1.40252800 -0.21790100  0.00585900
  C -0.10121092 -0.05042412  0.05855382
  C -0.95698564 -1.20387735  0.35698810
  O -2.13909450 -1.24873332  0.12231583
  H -0.42749541 -2.03438284  0.86215297
  C -0.67764300  1.34263510  0.39854388
  O -0.87070494  2.14195966  1.24232134
  N -0.68157577  0.96652496 -0.83585883
  H -0.99151558  1.05711372 -1.78125925
  H  1.90339349  0.63224717  0.46503703
  H  1.70133747 -1.12338277  0.52877907
  H  1.74649122 -0.30086558 -1.02627810
