12
opt_min/./Product_3148_0_opt.xyz
  O  2.21258000 -0.47609100  0.18714300
  C  0.88789428 -0.20838940  0.05402900
  C -0.09174968 -1.10093954 -0.15716809
  H  0.01542760 -2.16233790 -0.25249092
  C -1.40237249 -0.38406993 -0.21459027
  H -1.92667933 -0.54696317 -1.15542293
  H -2.06382964 -0.71434799  0.58539062
  C -1.00859623  1.04512183 -0.03037335
  H -1.71897335  1.85121351 -0.03093049
  C  0.31642839  1.12471354  0.13163696
  H  0.89457753  2.01994836  0.28843548
  H  2.70702492  0.34913010  0.22767051
