9
opt_min/./Product_8992_1_opt.xyz
  N  0.10215500 -1.36060900 -0.59772400
  C  1.13771701 -0.52303044 -0.41361166
  O  2.32429871 -0.70460184 -0.39396075
  N  0.54042123  0.78896614 -0.21889803
  H  1.05238459  1.63977421 -0.05466982
  C -0.78745546  0.64722345 -0.29870917
  H -1.52784548  1.41367830 -0.20148315
  N -1.01162569 -0.63413042 -0.52296060
  H -1.90834609 -1.08633787 -0.63661418
