10
opt_min/./Product_3677_0_opt.xyz
  N  1.27679200 -1.26586800  0.16185400
  C  0.44528692 -0.32933874  0.04156276
  C -1.05098410 -0.47703551  0.06429447
  H -1.41628031 -0.86782990  1.01571783
  H -1.41743653 -1.10817064 -0.74610660
  O -1.54895897  0.85304256 -0.11421486
  N -0.52531843  1.71972782 -0.23025834
  C  0.59920777  1.12296521 -0.15138088
  H  1.52783525  1.65217014 -0.22234133
  H  2.24903257 -0.97978507  0.12138985
