12
opt_min/./Product_10071_0_opt.xyz
  N  2.26993800 -0.43089900 -0.02918300
  C  1.06077826 -0.15579572 -0.11418795
  O  0.05674225 -0.97280518 -0.53600293
  C -1.18244828 -0.31709973 -0.44785143
  O -2.03936953 -0.97398301  0.38338349
  H -1.67682795 -1.01672850  1.27897320
  H -1.67137270 -0.31770311 -1.43196678
  O -0.93786033  0.99955787 -0.02218641
  C  0.44016684  1.17499427  0.23823774
  H  0.84226300  1.97181025 -0.39006676
  H  0.61426306  1.43042161  1.28635148
  H  2.52368634 -1.37035009 -0.31014004
