14
opt_min/./Product_11203_0_opt.xyz
  N  3.09899297  0.02136439  0.60763309
  C  1.91278315  0.00397951  0.32951102
  C  0.62971361 -0.00325728  0.15256966
  C -0.21806829 -1.24232683 -0.06355374
  H -0.20972116 -1.90099472  0.81100929
  H  0.12622689 -1.83146282 -0.91871843
  C -1.58063384 -0.66226211 -0.29172810
  H -2.42103748 -1.29609349 -0.51821866
  C -1.60079724  0.65355595 -0.17669883
  H -2.46507139  1.28530725 -0.29303671
  C -0.25729605  1.22717441  0.15205446
  H  0.06497975  1.96849520 -0.58521729
  H -0.26469002  1.72108974  1.12928394
  H  3.79810550  0.09432468 -0.12346102
