15
opt_min/./Product_8178_0_opt.xyz
  C  0.45354800  0.98847800  0.92551800
  H -0.10919083  1.86483925  1.22860999
  H  1.39255047  0.92342718  1.46867331
  C  0.54537487  0.78470089 -0.59349541
  H  0.90551275  1.53601673 -1.29240942
  O  1.30226262 -0.40383714 -0.70234671
  C  0.62858894 -1.25997271  0.21380415
  H  1.35204360 -1.69670199  0.90792404
  H  0.10656559 -2.06131080 -0.33272078
  C -0.38623585 -0.28985509  0.83651949
  H -1.03266615 -0.66055246  1.62631859
  C -0.92270767  0.24503163 -0.52603106
  C -1.46110953 -0.80525304 -1.36564918
  H -1.13142208 -0.70220836 -2.41383165
  H -1.67120700  1.02654408 -0.39763752
