19
opt_min/./Product_7692_0_opt.xyz
  C -1.69185400  1.16212000 -0.33070600
  C -1.60106067 -0.25581642  0.22964491
  C -2.14114427 -1.26581444 -0.79697969
  H -2.02781311 -2.28151769 -0.42672924
  H -3.19466419 -1.08014054 -0.99122504
  H -1.59486540 -1.17813454 -1.73375340
  C -0.19473050 -0.59319702  0.62534124
  O  0.79065745 -0.00472524  0.02775644
  C  2.05707370 -0.21849246  0.16689810
  C  3.01558432  0.63433033 -0.59240185
  H  3.72205448  1.12199875  0.08121871
  H  2.46352288  1.39679013 -1.13555635
  H  3.59488191  0.04673533 -1.30756171
  H  2.40735530 -1.00142619  0.82783735
  H -0.00112356 -1.42284637  1.29440190
  H -2.22750428 -0.33023680  1.12665459
  H -1.11038802  1.24473850 -1.24596274
  H -2.72548084  1.41186379 -0.55873089
  H -1.30729195  1.88397850  0.38516122
