13
opt_min/./Product_8467_0_opt.xyz
  N  1.92551600 -0.26101900  0.09944700
  C  0.44566929 -0.28575316 -0.05410728
  C -0.42869530  0.77055273  0.07870183
  O -0.03305946  2.08127557  0.32861019
  H -0.83767288  2.61122718  0.32397440
  C -1.69425559  0.19469966 -0.09238863
  H -2.64196905  0.70186392 -0.08131488
  C -1.46706171 -1.16022993 -0.28730940
  H -2.19733423 -1.93201854 -0.45152452
  N -0.15982607 -1.46991959 -0.25319030
  H  2.18583428 -1.22812401  0.31873839
  H  2.39335786  0.03325325 -0.76553728
  H  2.16485914  0.38432364  0.85762210
