16
opt_min/./Product_11777_0_opt.xyz
  C  1.43969900  0.34965000  0.97432400
  C  0.37967130  0.03928667 -0.03390911
  C -0.37314090  1.09469063 -0.82372915
  H -0.30690406  2.09773052 -0.42761634
  H -0.42044420  1.03656600 -1.90371708
  C -1.12378370  0.10657093  0.03421426
  O -1.98122027  0.45686685  1.04574797
  H -2.88026565  0.22789112  0.78394304
  N -1.26434886 -1.17696190 -0.64256394
  H -1.77778195 -1.12603359 -1.52313558
  C  0.20391818 -1.27471860 -0.78397415
  H  0.56927324 -1.31726303 -1.81280068
  H  0.56656169 -2.14141106 -0.22217760
  H  2.34275152  0.71835413  0.48927650
  H  1.07094016  1.10430914  1.66655363
  H  1.68456542 -0.54681338  1.54199283
