15
opt_min/./Product_10617_0_opt.xyz
  O  2.26157800 -1.07131500  0.25067600
  C  1.11835034 -0.33036483  0.21174582
  C  1.04427564  0.97794604 -0.01913015
  H  1.87473641  1.62317902 -0.23882909
  C -0.36687879  1.48272203  0.07564456
  H -0.67386008  2.00728207 -0.83227041
  H -0.46744454  2.17774618  0.91528190
  C -1.18550304  0.22788709  0.30696633
  H -2.07878303  0.30289969  0.91035297
  C -1.13426484 -0.80898227 -0.77372457
  H -1.96172058 -1.49841983 -0.85028206
  H -0.68593572 -0.54528982 -1.72054737
  C -0.22681223 -0.92641931  0.42686331
  H -0.33751717 -1.75869680  1.10920002
  H  2.03169271 -2.00140528  0.35641203
