16
opt_min/./Reactant_1517_0_opt.xyz
  C -1.60484600 -0.38289900 -0.77613900
  C -0.37320585 -0.01500885  0.00027039
  C -0.17931627  1.28954827  0.71067185
  H  0.15526522  1.30715842  1.73857489
  H -0.87728178  2.07617381  0.45669582
  C  0.78726247  0.88942315 -0.36497580
  H  0.95084521  1.47595654 -1.25295096
  C  1.77779055 -0.10675836  0.22018425
  H  2.44575577 -0.54121764 -0.52034153
  H  2.36725960  0.26412548  1.05947297
  C  0.60194788 -1.03170427  0.59555047
  H  0.61482597 -1.97534079  0.05279308
  H  0.47750380 -1.23380600  1.65906114
  H -2.00300876 -1.32949873 -0.41522659
  H -2.37722202  0.37707002 -0.67339628
  H -1.37413758 -0.49383014 -1.83609363
