16
opt_min/./Product_496_0_opt.xyz
  C -2.56529000 -0.09612700 -0.90340300
  C -1.18087081 -0.33871589 -0.31901535
  C -0.14944417  0.51973789 -0.97545985
  O  1.10708634  0.49930299 -0.66047168
  C  1.70571259 -0.22443156  0.22966106
  C  3.16865298 -0.01852782  0.43153171
  H  3.56877383  0.57526805 -0.38718235
  H  3.38177284  0.50571243  1.36819732
  H  3.69295955 -0.97369392  0.46461329
  H  1.16269031 -0.91950937  0.85140998
  H -0.39625123  1.19803328 -1.77204006
  H -1.19605301 -0.13655758  0.76187048
  H -0.91132637 -1.39889270 -0.43455868
  H -3.30008214 -0.74028194 -0.42598865
  H -2.86404789  0.93933083 -0.75642070
  H -2.56897008 -0.30358168 -1.97126947
