13
opt_min/./Product_4153_0_opt.xyz
  C -0.07833800  1.20221300  0.16610300
  C  0.18060097 -0.25089768 -0.10722503
  C  1.59103817 -0.70334747 -0.31036957
  H  1.61928389 -1.57517963 -0.95760814
  H  2.20464777  0.09275411 -0.72390640
  H  2.00936113 -0.98521741  0.65720311
  N -0.74197288 -1.10179957 -0.13500760
  C -2.07967142 -1.12334313 -0.07151823
  O -2.76743546 -1.29979070  0.89798112
  H -2.49853789 -1.11819100 -1.10704428
  H -0.31080797  1.32367438  1.22542172
  H  0.78381243  1.81769108 -0.07447343
  H -0.94791524  1.53162551 -0.40093658
