12
opt_min/./Product_6782_0_opt.xyz
  O  1.78867900 -0.73753500 -0.08869900
  C  1.65612000  0.11473714  0.73121449
  O  1.02358584  1.27624350  0.59646669
  C  0.33037006  1.57684233 -0.57484685
  N -0.44608530  0.85802391 -1.22346616
  C -0.86283981 -0.42205062 -0.94487936
  C -1.52622802 -0.79878588  0.14092615
  H -1.92998897 -1.79030445  0.23001817
  H -1.72668667 -0.11559171  0.95002013
  H -0.70891675 -1.10018739 -1.77337836
  H  0.51607620  2.59468871 -0.89534027
  H  2.08238663  0.07017301  1.74955079
