11
opt_min/./Product_9646_1_opt.xyz
  C  1.74916900 -0.90202700 -0.51032000
  N  1.50767987  0.35933965 -0.49525771
  H  1.77997946  1.26010148 -0.84123959
  C  0.80790945 -0.31925578  0.54501316
  C -0.68065770 -0.45078028  0.44207217
  H -1.14425078 -0.86786125  1.33656281
  C -1.50373458  0.42843892 -0.39702900
  H -2.52262108  0.66780317 -0.11326572
  H -0.99963747  1.17323969 -1.01107554
  O -1.24815376 -0.89509044 -0.75873500
  H  1.15277278 -0.18595741  1.56962412
