12
opt_min/./Product_11184_0_opt.xyz
  N -1.99750600  0.67061900 -0.21424600
  C -0.68911422  0.30458638 -0.01908047
  N  0.38562289  0.92214309 -0.25307671
  C  1.46478020  0.03713874 -0.00937133
  O  2.71458649  0.53825792 -0.19842325
  H  2.60484037  1.44755840 -0.49739484
  C  1.13203117 -1.21218216  0.40053499
  N -0.39826851 -1.11447166  0.40082812
  H -0.74249837 -1.36012004  1.32956813
  H -0.76380848 -1.78921565 -0.27238963
  H -2.64661295  0.36998912  0.50092775
  H -2.09583778  1.65043745 -0.43971341
