15
opt_min/./Product_7355_0_opt.xyz
  C -1.46664200  0.04435800  0.75428500
  H -1.41725536 -0.07971561  1.82590173
  H -2.19297414  0.77332524  0.42813849
  C -1.23470735 -1.15858315 -0.10955320
  H -1.80504504 -1.24819247 -1.02190587
  H -1.02734659 -2.10247621  0.37257557
  C -0.18403015 -0.08108528 -0.02570882
  C  1.17010032 -0.31729508  0.65334481
  C  2.09904417  0.40657337 -0.28349784
  O  1.42880993  1.01772107 -1.22296819
  H  3.12990909  0.64705430 -0.13238602
  H  1.19931457  0.10690689  1.66483239
  H  1.41286331 -1.38079091  0.73806194
  C  0.14521491  0.79883119 -1.16598244
  H -0.49356053  1.17515781 -1.93609638
