14
opt_min/./Product_11464_0_opt.xyz
  O  1.37299300  1.53254900  1.27154800
  C  1.33491342  0.35006921  0.60770908
  C  2.33744275 -0.51484321  0.66449804
  H  2.31866450 -1.43325067  0.10841684
  H  3.21367785 -0.29917131  1.24664506
  C  0.07546247  0.12130499 -0.19282295
  N -1.04464228  0.50552371  0.64327617
  C -2.20835787  0.08677809  0.44537188
  O -2.66904441 -0.74561917 -0.49894580
  H -1.96021412 -1.03932384 -1.08987984
  H -3.00041206  0.41702008  1.10767088
  H  0.09272224  0.78137998 -1.07270884
  H  0.04137432 -0.92120926 -0.53554345
  H  0.45984269  1.84571915  1.36494284
