15
opt_min/./Product_11004_0_opt.xyz
  C  1.44204900  0.37984700  0.02622700
  C  0.01421963 -0.08663087 -0.31898789
  O -0.00967104 -0.70674897 -1.59341587
  H  0.50218926 -1.52329330 -1.55574871
  C -0.60639010 -1.01330679  0.75690299
  H -0.16457375 -0.84788329  1.74526733
  H -0.49153822 -2.07225579  0.52142083
  C -2.04579846 -0.60429417  0.86277639
  O -2.20970056  0.49714271  0.25069878
  C -1.02295913  1.03787583 -0.38264144
  H -1.30669154  1.28719370 -1.40574185
  H -0.73714685  1.93871735  0.16371726
  H  2.04174615  0.36337628 -0.88252829
  H  1.44075467  1.39401929  0.41505863
  H  1.90174086 -0.27749492  0.76132242
