14
opt_min/./Product_8270_0_opt.xyz
  C -1.69928544  0.44911125  0.58344508
  C -0.69764409 -0.44432775 -0.16720162
  C  0.59672732  0.33000609 -0.45060616
  N  1.42229154 -0.41268257 -1.29878445
  C  2.08017647 -1.05520793 -1.99768605
  O  6.77704521  1.30644743  2.48951637
  H  0.37734996  1.28796231 -0.92910109
  H  1.13410478  0.49348847  0.48802073
  O -0.34305674 -1.56816025  0.59061527
  H -1.08399797 -2.17909450  0.65947055
  H -1.15118784 -0.74847228 -1.12584733
  H -1.28420373  0.71624288  1.55163943
  H -2.63200724 -0.08809998  0.73345871
  H -1.90072273  1.35107836  0.01386149
