15
opt_min/./Product_66_0_opt.xyz
  C -0.80025535 -1.19473924 -0.54190786
  C -0.54834383 -0.05037008  0.44297261
  C -0.77808386  1.29737003 -0.24026586
  H -0.09184174  1.40928798 -1.07802874
  H -1.79918271  1.36816140 -0.61358944
  H -0.60480054  2.11674276  0.45472006
  C  0.84410933 -0.13107330  1.02505259
  C  1.92850101  0.12946835  0.36243319
  N  2.91579795  0.57005886 -0.18988545
  H  3.51955719 -0.01255842 -0.75558815
  H  0.93429286 -0.47188890  2.04454328
  H -1.25746527 -0.14880256  1.27562159
  H -0.12125168 -1.12093777 -1.38900414
  H -0.65011553 -2.16038918 -0.06028928
  H -1.82343842 -1.14996612 -0.91338474
