17
opt_min/./Product_11928_0_opt.xyz
  C -2.30589100  0.44631200  0.42814100
  C -1.11888951  0.04761371 -0.43596622
  C  0.09992424 -0.34052013  0.42064655
  H -0.24364337 -1.08797608  1.14375955
  C  1.28616650 -0.87866753 -0.40845210
  H  1.11384029 -0.70919045 -1.47577303
  H  1.49655928 -1.94541386 -0.27621621
  C  2.42125255 -0.05704052  0.07691651
  H  3.42024869 -0.17967689 -0.31383610
  C  2.02355112  0.83166565  1.01374763
  H  2.68069582  1.52989336  1.50695001
  C  0.60016420  0.83698345  1.19508253
  H -1.38933843 -0.80075169 -1.07006323
  H -0.83928388  0.88261869 -1.08199827
  H -3.13796933  0.76468963 -0.19581414
  H -2.63286089 -0.39213753  1.03946580
  H -2.02484629  1.26326560  1.08644310
