15
opt_min/./Product_6405_0_opt.xyz
  C -2.43445200  0.13089300  0.35659800
  C -1.36987935 -0.32014524 -0.62096943
  H -1.77289442 -0.38745799 -1.63726066
  O -0.21067114  0.56875465 -0.62251883
  C  0.55084445 -0.51391743 -0.22716988
  N  1.88876494 -0.44374241  0.07813058
  N  2.47733439  0.82675627 -0.19268848
  H  1.88483386  1.58695191  0.14722173
  H  3.38441152  0.87688546  0.25682378
  H  2.10056579 -0.80786941  1.00755886
  C -0.43469063 -1.42005411 -0.20190243
  H -0.55991154 -2.44741570  0.05649449
  H -2.03863299  0.14156982  1.37065731
  H -2.76756268  1.13242320  0.09493764
  H -3.27995782 -0.55085480  0.31532653
