12
opt_min/./Product_3493_0_opt.xyz
  O  2.60603000  0.13995400  0.70876600
  C  1.46964908  0.47105079  0.07389312
  C  0.35336555 -0.47832063  0.44663466
  C -0.94118519 -0.10673976 -0.20320728
  C -2.05424422  0.14341212  0.45766279
  H -2.10161513  0.08658522  1.53311121
  H -2.96487752  0.40939320 -0.04953139
  H -0.91225737 -0.03507869 -1.28123904
  H  0.25888676 -0.48442885  1.53437928
  H  0.66526723 -1.48043213  0.13722776
  O  1.39595272  1.40273011 -0.67729389
  H  3.31926747  0.75114164  0.46145895
