10
opt_min/./Product_381_0_opt.xyz
  N  2.56386514 -0.90104205  0.92263265
  C  2.19727655  0.10479805  0.26299372
  O  0.95150222  0.29862424 -0.14026146
  C  0.00911024 -0.65310015  0.25240577
  C -1.22371325 -0.28932446  0.45969533
  N -2.29663296  0.13910908  0.82464608
  H -3.11158156  0.16479889  0.22446896
  H  0.37314038 -1.63058224  0.41345899
  H  2.81000069  0.95065187 -0.07679781
  H  3.54619742 -0.92696431  1.16312135
