14
opt_min/./Product_10670_0_opt.xyz
  O  2.59613500  0.47763400 -0.34145700
  N  1.55349057  0.83255564  0.58300499
  C  0.28643764  0.42386725  0.17540410
  C -0.92654688  0.98148037  0.07932160
  O -1.41981250  2.22392059  0.34003672
  H -2.37913528  2.20636310  0.26143168
  C -1.61428062 -0.29705664 -0.32637719
  H -2.04041315 -0.29136709 -1.32912408
  H -2.34870532 -0.68825603  0.37665048
  C -0.20899845 -0.94924248 -0.22673863
  H  0.18489386 -1.33681131 -1.16339264
  H -0.12289409 -1.70961056  0.54677530
  H  1.58612883  1.84626800  0.67556824
  H  3.06022262 -0.26221543  0.07138754
