13
opt_min/./Product_11833_0_opt.xyz
  C  2.07106000 -0.61120200  0.54277500
  O  0.67230075 -0.70524134  0.38353710
  C  0.06503733  0.35951371 -0.14948039
  C -1.26257955  0.40759054 -0.40288013
  O -1.75850221  1.57852806 -0.93179881
  H -2.70601314  1.47708384 -1.08954298
  C -2.17955343 -0.69350635 -0.16808328
  O -1.90863495 -1.77656021  0.28867098
  H -3.22646668 -0.44895916 -0.46967277
  H  0.67046638  1.23100328 -0.38179708
  H  2.38435954 -1.53327224  1.02831721
  H  2.34560912  0.24283593  1.17044042
  H  2.57472739 -0.51814587 -0.42449285
