13
opt_min/./Reactant_11833_0_opt.xyz
  C  1.07146500 -0.66271500 -0.06128200
  C -0.21633734  0.12098771  0.25091221
  O -0.45714046  0.33601806  1.62457925
  H  0.37029503  0.58869647  2.04994346
  C -1.44147721 -0.63411509 -0.27616820
  O -1.53012851 -1.16563119 -1.33808331
  H -2.23642626 -0.65243425  0.49429624
  C -0.22465967  1.46763743 -0.47937036
  O  0.26875000  1.69116418 -1.54162101
  H -0.75486157  2.23886112  0.11818833
  H  0.83020631 -1.67085843 -0.38643168
  H  1.68867505 -0.72238556  0.83215200
  H  1.61783007 -0.16498204 -0.85698519
