15
opt_min/./Product_9015_0_opt.xyz
  C  2.12235500  0.38742800  0.09497900
  C  1.47389851  0.15974043 -1.23461343
  O  0.29318183 -0.29783996 -1.29622665
  C -0.54281349 -0.66968188 -0.16955425
  H -0.05416519 -1.46890375  0.39153802
  C -1.09438582  0.50287165  0.69158243
  H -0.78602904  1.48507949  0.34132185
  H -0.91837442  0.41619065  1.76247581
  C -2.45006155  0.05372297  0.21055457
  H -3.43557616  0.41777046  0.42585028
  C -1.97310722 -0.93152569 -0.54673183
  H -2.42430031 -1.65663659 -1.19508641
  H  2.14692939  1.46610054  0.25039459
  H  3.15770448  0.05883509  0.02850626
  H  1.63759162 -0.07545223  0.95880880
