13
opt_min/./Product_9305_0_opt.xyz
  C  2.32775700  0.83452300  0.31456400
  O  0.96553505  0.52394972  0.05058054
  C  0.53114543 -0.67737324  0.49638509
  O  1.24252714 -1.46112211  1.07578870
  C -0.88082255 -0.91495370  0.18269904
  C -1.66178181 -0.02105299 -0.42737946
  O -2.95630857 -0.27380157 -0.70343433
  H -3.38739535  0.49862101 -1.08690023
  H -1.26923805  0.94720116 -0.71762421
  H -1.27124230 -1.87426786  0.48291369
  H  2.43062703  1.22502376  1.32956691
  H  2.94345092 -0.06156146  0.21718384
  H  2.62435931  1.58848163 -0.41102568
