12
opt_min/./Product_9508_0_opt.xyz
  C -2.09257500 -0.40059200  0.12555700
  C -0.82666642 -0.00854281 -0.08431205
  C -0.22324742  1.01539670 -0.85683652
  H -0.63668267  1.76791894 -1.48603106
  O  1.14587731  0.97040452 -0.71179348
  C  1.42449319 -0.00050084  0.09616198
  O  2.66906987 -0.32892936  0.46545605
  H  3.29215060  0.26557763  0.02568069
  N  0.31516166 -0.63178904  0.50669999
  H  0.28516430 -1.39625630  1.15742631
  H -2.32575001 -1.22601960  0.76826059
  H -2.89985773  0.11127202 -0.35554986
