15
opt_min/./Product_7300_0_opt.xyz
  C -2.49898500 -0.15746300  0.81212200
  C -1.91111977 -0.25122756 -0.57222578
  H -2.47768779  0.23328893 -1.36780431
  C -0.48052800 -0.38997722 -0.75675581
  C  0.74551673 -0.02493372 -0.78125052
  C  1.97223395  0.40952308 -0.78336290
  C  2.89007216  0.35881619  0.40295486
  H  2.41136689  0.80853557  1.27479912
  H  3.81169920  0.89676525  0.19212065
  H  3.13567212 -0.67461795  0.65271375
  H  2.38482355  0.81978436 -1.69666684
  O -1.29377136 -1.47445320 -0.95516830
  H -3.56594252 -0.37471226  0.78545219
  H -2.00834604 -0.87229182  1.47188217
  H -2.35303457  0.84569712  1.21016526
