13
opt_min/./Product_3124_0_opt.xyz
  O -1.98600899 -1.42094601 -0.01570513
  C -0.60808188 -1.17723903  0.17886061
  C -0.31968519  0.30002037 -0.09356325
  C  1.14910193  0.63932102  0.16825147
  N  1.38912097  1.99999679 -0.05274938
  C  1.58787344  3.12902299 -0.24320890
  H  1.41092452  0.41276455  1.20678880
  H  1.80181198  0.06528675 -0.49703215
  H -0.96131832  0.90424826  0.54601583
  H -0.57213746  0.53014586 -1.12923484
  H  0.00972945 -1.79743017 -0.47929644
  H -0.34772714 -1.41859759  1.21905054
  H -2.11776646 -2.29205516 -0.39379477
