14
opt_min/./Product_4723_0_opt.xyz
  C -1.25677100  1.02400100  0.66355300
  C -0.51422441  0.15892570 -0.00909618
  C -0.94166877 -1.26522721 -0.22773053
  H -1.00043326 -1.78569247  0.72455804
  H -1.92444948 -1.30054556 -0.69269735
  H -0.23482381 -1.79564752 -0.85818680
  C  0.82297304  0.54493509 -0.58042381
  C  1.98133209 -0.13650277  0.09749076
  O  1.92239072 -0.92238667  0.99928962
  H  2.96445565  0.16719545 -0.31775761
  H  0.87503937  0.28707700 -1.64286944
  H  0.97987909  1.62391378 -0.50840504
  H -0.94415853  2.04019348  0.82497480
  H -2.21000931  0.74270219  1.07712853
