12
opt_min/./Product_10614_0_opt.xyz
  O  1.64660303 -0.80716691  2.03233801
  C  0.70607883 -0.57373475  1.32277896
  C  0.81682738 -0.04887339 -0.04981216
  H  1.82652797  0.21393539 -0.33770437
  C -0.09360874 -0.62978949 -1.11294350
  H  0.31521177 -0.79384399 -2.09629612
  H -0.80488516 -1.37258123 -0.78528008
  C -0.31065356  0.77470716 -0.65468102
  N -1.42019951  1.07445357  0.10110264
  C -2.36409788  1.33547733  0.73127388
  H -0.02058490  1.58949393 -1.30893471
  H -0.32907047 -0.76231715  1.66727450
