12
opt_min/./Product_4193_0_opt.xyz
  C  1.97157200 -0.68742300  0.05081200
  H  2.27891623 -1.32736258 -0.77500317
  H  2.32253308 -1.03585186  1.02070405
  N  1.90607298  0.71957477 -0.17146498
  H  2.39065658  1.56884269 -0.32786269
  C  0.71098505  0.07205166 -0.03463849
  C -0.58451420  0.15417554 -0.01548014
  C -1.91905078 -0.46479238  0.12282311
  H -2.26795270 -0.77369510  1.10564535
  H -2.31556755 -1.06463665 -0.69319230
  N -1.70307555  0.92804297 -0.10707777
  H -2.12174050  1.81730930 -0.22831284
