15
opt_min/./Reactant_11614_0_opt.xyz
  C  2.86087800  0.16643200 -0.26688400
  C  1.67103423  0.08942584 -0.14302047
  C  0.25204708  0.00928990 -0.01234875
  C -0.70731399 -0.95386236 -0.75463682
  H -0.63016881 -2.00075291 -0.47592382
  H -0.80781929 -0.81662511 -1.82653771
  C -1.60626037 -0.07932526  0.14104464
  H -2.68516891 -0.13304916  0.24772200
  C -0.57042784 -0.28162053  1.26471843
  H -0.54492918  0.45761384  2.05880277
  H -0.48570426 -1.29289725  1.65291970
  C -0.77548280  1.13121758 -0.31672860
  H -0.87167923  1.43267133 -1.35687618
  H -0.75209998  1.99524243  0.34355876
  H  3.90151973  0.22320062 -0.36748132
