13
opt_min/./Product_3784_0_opt.xyz
  C -1.88754787 -0.02342192 -0.82624329
  C -0.65280411 -0.25246243  0.03596252
  N  0.01133803  0.99934917  0.25774882
  C  1.23196759  1.05516304  0.56924362
  C  2.12731277 -0.04131166  0.73638649
  C  2.85242888 -0.98961949  0.87351793
  H  3.48661889 -1.82018893  0.98976905
  H  1.65702555  2.03944471  0.74129867
  H -0.95689076 -0.65639354  1.01090980
  H  0.01138599 -0.99911946 -0.42418148
  H -1.59539756  0.33735974 -1.81001079
  H -2.44656231 -0.94844972 -0.94412858
  H -2.52474385  0.72694243 -0.36591741
