15
opt_min/./Product_5191_0_opt.xyz
  C  1.85834500  0.67073700  0.20193100
  C  1.22270582 -0.49885791 -0.54088209
  C -0.26073674 -0.62819922 -0.39246232
  C -1.06003558  0.12828902  0.34308986
  C -2.54215413 -0.08156047  0.43658405
  H -2.76246289 -1.05590889  0.86558950
  H -3.00504411  0.67982011  1.05561537
  H -2.99901482 -0.04537198 -0.55082209
  H -0.64942787  0.94432878  0.91693748
  H -0.69225664 -1.44323200 -0.96476396
  H  1.44890907 -0.41787873 -1.60822759
  H  1.68360287 -1.43008240 -0.19634152
  H  1.44554192  1.61544274 -0.13610067
  H  2.92807184  0.68602860  0.01909693
  H  1.69690705  0.57604714  1.26998459
