17
opt_min/./Product_6735_0_opt.xyz
  C -1.08680100  0.45635300  0.99949200
  H -1.00269507 -0.15435522  1.88256730
  H -1.95521906  1.09428495  0.97601999
  C  0.18847396  0.95121863  0.37497862
  H  0.27011233  1.95424426 -0.00796359
  C  1.45971739  0.25353424  0.84532490
  H  2.35747925  0.84472075  0.70623641
  H  1.36929981 -0.01710413  1.89673141
  C  1.44418984 -1.02276807 -0.01530457
  H  1.91450483 -1.88400135  0.45543112
  H  1.92509150 -0.83018721 -0.98482278
  O  0.07712680 -1.33427727 -0.24162054
  C -0.62308438 -0.11223348 -0.31623865
  C -1.39661562  0.12194062 -1.59555142
  H -0.99557803  0.96792391 -2.14856896
  H -1.32031523 -0.76491240 -2.21564454
  H -2.44672524  0.30392725 -1.39449722
