10
opt_min/./Product_6534_0_opt.xyz
  O  2.65953800 -0.68930700 -0.18971300
  C  1.58563355 -0.20532082  0.00278749
  N  0.36595492 -0.86790478 -0.05097954
  H  0.25891909 -1.84374878 -0.26190680
  C -0.66698075  0.01154589  0.22719176
  N -1.91028341 -0.14874231  0.28813614
  H -2.25724502 -1.08266777  0.10533775
  C  0.06272704  1.28487294  0.45640503
  H -0.42104466  2.21247898  0.70256845
  N  1.31744584  1.15547775  0.32948003
