14
opt_min/./Product_7291_0_opt.xyz
  O  2.32433800  1.21173600  0.54900200
  C  1.48199356  0.25744568 -0.02353930
  C  0.13809884  0.20668101  0.66521988
  C -0.91025154 -0.68472878  0.03117431
  N -2.24151147 -0.30082259  0.45567123
  C -3.21069170 -0.23131734 -0.39289074
  H -4.13442249  0.09538702  0.11971917
  H -2.26694613 -0.05755333  1.45338635
  H -0.87422307 -0.66165878 -1.05926023
  H -0.69893336 -1.71180204  0.36181953
  O -0.05331327  0.80021985  1.69964063
  H  1.92247715 -0.75390287  0.05130725
  H  1.37645148  0.50353053 -1.08413683
  H  1.97727985  1.42695356  1.42834192
