13
opt_min/./Product_7672_0_opt.xyz
  C  1.36356200 -0.08622400  0.46012800
  C -0.03521288  0.53829778  0.42893665
  H -0.33046181  0.81349267  1.44286925
  C -0.03901351  1.77527905 -0.40596839
  O -0.65910642  1.49265874 -1.54631042
  C -1.34207023  0.35325422 -1.59425496
  C -1.10320411 -0.34732778 -0.27955053
  O -0.79354348 -1.69766683 -0.48754056
  H -1.07679483 -2.22996493  0.25916259
  H -2.05295108 -0.24256360  0.26556318
  H  1.39978170 -0.88886261  1.18820733
  H  2.09465218  0.66910777  0.72529955
  H  1.60718350 -0.49238066 -0.51636106
