11
opt_min/./Product_10719_1_opt.xyz
  C  1.79261400  0.12639100  0.08327000
  O  0.49198967  0.67605733  0.11543691
  C -0.52365747 -0.24869402  0.04496240
  H -0.29898939 -1.21555850  0.50046353
  C -1.90369022  0.23421473  0.01251457
  H -2.08329398  1.30000670 -0.02884022
  H -2.69205799 -0.36455435  0.45384172
  O -1.27944916 -0.32005935 -1.12007620
  H  1.95517414 -0.54538320  0.93346530
  H  1.98065001 -0.41612192 -0.84794855
  H  2.47075061  0.97464697  0.15359007
