15
opt_min/./Product_6589_0_opt.xyz
  C -1.63940500 -0.45091700  0.42012400
  C -0.46706095 -0.23467574 -0.54497066
  H -0.75236464 -0.58891343 -1.53791645
  C -0.02702854  1.27140072 -0.59183557
  H -0.77098104  1.90712525 -0.10623007
  H  0.07770232  1.61980851 -1.62465960
  C  1.32636072  1.31998660  0.12342646
  H  1.83417723  2.25332022  0.27868167
  C  1.74849708  0.11785500  0.43585383
  C  0.70935355 -0.94898151 -0.02219580
  C  1.81089678 -1.30028710  0.59820449
  H  2.41623798 -2.10654278  0.93711534
  H -2.51301213  0.09799994  0.07239430
  H -1.89728270 -1.50553143  0.48692355
  H -1.37139864 -0.08902344  1.41050877
