17
opt_min/./Product_10926_0_opt.xyz
  O -0.89819300  1.24897200 -0.71516500
  C  0.18394691  1.50541890  0.14031375
  H -0.17613855  1.74388410  1.15735206
  H  0.68395888  2.37935170 -0.27981221
  C  1.17762018  0.33584700  0.25252192
  O  1.84056360  0.20726765 -0.98940161
  H  2.62219837 -0.33882927 -0.87980743
  H  1.90052946  0.58745914  1.04402487
  C  0.42134190 -0.94581714  0.63239828
  H  0.05106748 -0.84459740  1.65390799
  H  1.09833189 -1.79959327  0.59556236
  C -0.74850491 -1.14686248 -0.32773325
  H -1.34227736 -2.01461763 -0.04595259
  H -0.35577403 -1.29387807 -1.33309080
  C -1.62432351  0.10506709 -0.32667301
  H -2.43547611  0.01964229 -1.05255746
  H -2.05743074  0.25328713  0.67923825
