18
opt_min/./Product_999_0_opt.xyz
  C  2.57065500  0.31319200 -0.21624900
  C  1.14281372  0.15150659 -0.72549303
  C  0.15294771  0.03149917  0.43051309
  C -1.29352583 -0.14199592  0.05182989
  C -1.74748028 -0.19610434 -1.19119610
  H -1.10250654 -0.11702122 -2.04745727
  H -2.79637228 -0.32162623 -1.39623115
  C -2.23011464 -0.26951948  1.22504241
  H -3.06638255  0.41716344  1.12774632
  H -1.72396798 -0.06117135  2.16171314
  H -2.63636343 -1.27655455  1.27922555
  H  0.44344098 -0.81831722  1.05368020
  H  0.23040551  0.92049066  1.06109081
  H  0.88534123  1.01105958 -1.34649850
  H  1.08416713 -0.74016514 -1.34773242
  H  3.25486615  0.48745800 -1.04256779
  H  2.64295245  1.15526180  0.46630747
  H  2.89415408 -0.57940100  0.31184346
