13
opt_min/./Product_2909_0_opt.xyz
  C  0.91645700 -0.69044200  0.94722000
  N  0.50597809  0.15596256 -0.16856443
  C  1.44492726  0.81210388 -0.85669786
  H  1.14805728  1.43124082 -1.67714567
  H  2.47409881  0.59886897 -0.66513489
  C -0.77880473  0.21029258 -0.34642325
  C -2.14443651 -0.07429675 -0.04902576
  H -2.60968735 -1.00239946 -0.37666340
  H -2.65786480  0.42082632  0.77284018
  O -1.75013334  0.80934364 -1.12302083
  H  0.70605847 -0.19422186  1.89643993
  H  1.98643165 -0.87790107  0.87515196
  H  0.38177220 -1.63933990  0.91834446
