11
opt_min/./Product_9950_0_opt.xyz
  C -1.10806200 -0.72947500  0.27670300
  C -0.33749547  0.52784497 -0.02951141
  O  0.95322075  0.68139276  0.52472339
  C  1.91256597 -0.15315224  0.14984118
  O  1.83283744 -1.03761184 -0.64329632
  H  2.81805502  0.11974584  0.72457982
  C -0.81711897  1.46568620 -0.79623095
  O -1.29112022  2.31860232 -1.42835532
  H -0.42438294 -1.57733245  0.26042613
  H -1.88091983 -0.88682525 -0.47045094
  H -1.56724878 -0.66683966  1.26412983
