12
opt_min/./Product_720_0_opt.xyz
  C  1.72948200 -0.35363000  0.40756800
  C  0.33071645  0.11597428  0.28035419
  O -0.15456287  0.99400486  1.06232675
  C -1.51807339  1.33074753  0.78411239
  C -1.83094957  0.56584000 -0.30213918
  H -2.77837606  0.54550965 -0.80557861
  C -0.67778186 -0.29949976 -0.72303996
  H -0.32557977 -0.15443114 -1.74516705
  H -0.92885862 -1.35707005 -0.61286688
  H  2.05716997 -0.29267346  1.44312293
  H  2.38626423  0.28672975 -0.18628583
  H  1.83197928 -1.37197829  0.03963463
