11
opt_min/./Product_459_1_opt.xyz
  O -1.32465100  0.92740800  0.90477000
  C -0.52221473  0.42861779 -0.13380186
  H -0.89047891  0.94535393 -1.02856523
  C  0.97607932  0.60133537 -0.02052085
  H  1.45597970  1.53460023  0.18733472
  C  1.52942393 -0.59099288 -0.25885662
  H  2.56927656 -0.85835199 -0.29088572
  N  0.57733954 -1.60035006 -0.48176986
  C -0.57372190 -1.06790184 -0.38553899
  H -1.48290709 -1.63286622 -0.49267488
  H -1.05085670  0.51733321  1.73332708
