12
opt_min/./Product_10607_0_opt.xyz
  O -1.67455000 -0.52531300  0.56286100
  C -0.64564172  0.21473254  0.25706437
  C  0.64931253 -0.28731921  0.47016571
  C  1.78937484  0.39423538  0.18982287
  C  3.05360832 -0.14793024  0.42213370
  N  4.09626448 -0.58855018  0.62942585
  H  1.76172560  1.39273298 -0.22406121
  H  0.71449550 -1.28467174  0.88513166
  H -0.80732590  1.20466910 -0.15743257
  C -2.91386201 -0.21084563  0.43247046
  H -3.22011275  0.74184863  0.02846504
  H -3.62739674 -0.95003166  0.74017163
