12
opt_min/./Product_8051_0_opt.xyz
  N  2.70563048 -0.93687631 -1.53720371
  C  1.98973345 -0.60116424 -0.70524900
  C  1.04039609 -0.04537023  0.23267052
  H  1.49181440  0.11368185  1.21713593
  C  0.49379140  1.18453697 -0.51181008
  H  1.06783067  2.05514276 -0.73300836
  N -0.66012766  0.90778989 -1.04610766
  C -1.14716868 -0.22546606 -0.70583362
  H -2.05263892 -0.71610083 -0.95830462
  N -0.16679370 -0.91864802  0.32263452
  H  0.03045734 -1.89908570  0.11997329
  H -0.60226499 -0.85427646  1.24759633
