16
opt_min/./Product_2767_0_opt.xyz
  C  1.57150500 -0.39309100  0.82729900
  C  0.75678862  0.23612449 -0.29230392
  C -0.65323202 -0.38672467 -0.44753334
  C -1.61698417  0.18487436  0.59474283
  H -1.30188170 -0.10066858  1.59405241
  H -1.63332848  1.27100599  0.53102342
  H -2.62632460 -0.19017651  0.42950923
  O -1.08329329 -0.11248645 -1.76772228
  H -2.02428906 -0.29597378 -1.83896298
  H -0.58164471 -1.47977066 -0.31108847
  C  0.96103522  1.64303760 -0.53068218
  H  0.12334419  2.03619364 -1.12963876
  H  1.28825821  0.05233472 -1.26634583
  H  2.57838181  0.01295282  0.81856327
  H  1.12055012 -0.16209408  1.78898210
  H  1.62116480 -1.47319774  0.71755152
