11
opt_min/./Product_9300_1_opt.xyz
  C  1.59559300 -0.30840700  0.14677200
  O  0.54282525  0.42221779  0.72581635
  C -0.70897597  0.27212738  0.19816344
  O -1.60951200  0.97452008  0.92536323
  H -1.13430572  1.40441306  1.64913205
  C -1.05706981 -0.43279161 -0.86831938
  H -2.08766234 -0.46246442 -1.15941068
  H -0.35454208 -0.98942827 -1.45366748
  H  2.46878259 -0.11084880  0.76972258
  H  1.78750200  0.01760783 -0.87937376
  H  1.38262591 -1.38155942  0.14714968
