17
opt_min/./Product_6910_0_opt.xyz
  C -2.04577200 -0.61976200 -0.51432900
  C -1.36926537  0.22254884  0.53862215
  O -0.03480061  0.51525234  0.46634114
  C  0.83124220 -0.23597644 -0.36378098
  C  2.23404839  0.13099205  0.00555291
  C  3.14687334  0.52711076 -0.86162733
  H  4.15042399  0.77705779 -0.56574166
  H  2.92127877  0.60662865 -1.91258954
  H  2.47287721  0.06661831  1.05791524
  H  0.67779816 -1.31306849 -0.19076569
  H  0.65833285 -0.01982686 -1.42770119
  C -2.05768706  0.75483695  1.54460280
  H -1.58791209  1.36720854  2.28771504
  H -3.11710779  0.59819560  1.62262153
  H -2.70962885  0.00747455 -1.10535666
  H -2.65414019 -1.38383536 -0.04203132
  H -1.34715792 -1.09920723 -1.18772246
