14
opt_min/./Product_6642_0_opt.xyz
  C -1.96901000 -0.06394400 -0.39204500
  H -2.56021681 -0.88033528 -0.78107639
  H -1.97121622  0.83537176 -0.99841332
  N -2.01806756  0.06620968  1.07636951
  H -2.03727477  1.01638479  1.43063682
  C -0.81690954 -0.33657903  0.45637506
  C  0.61872250 -0.14420028  0.55353759
  C  1.48163137  0.05970047 -0.67807804
  C  2.91204876  0.26006235 -0.55707514
  H  3.19201866  0.47404222  0.48928986
  H  1.24104158 -0.68801328 -1.44006352
  H  1.24804471  1.03088709 -1.15557690
  H  1.01304417  0.24043531  1.49274857
  O -0.01016352 -1.42407045  0.68922952
