12
opt_min/./Product_11852_0_opt.xyz
  C -1.28708956 -0.88698459  1.40491689
  N  3.04217636  2.48294568  3.54046924
  C  7.04481374  3.82235851  4.37092696
  C  3.88578188  3.13121453  4.09162232
  N  5.95346499  3.57284387  4.09729432
  C  2.28272193  0.71405760 -13.03381687
  N -10.00305406  1.54967250 -10.44955216
  H  2.56569904 -3.21165292  10.07245680
  H -1.61856192  6.76299574  1.16577170
  H -8.52615668 -7.53269209  1.07823998
  H -1.29783892  5.99507936  1.28375692
  H  2.16185397  2.03228802  3.37087541
