12
opt_min/./Reactant_11852_0_opt.xyz
  C -1.63457293  0.14419118  0.08154529
  N -0.46782785 -0.59039844 -0.37150824
  C  0.75311007 -0.22910469  0.33253079
  C  1.84334139 -1.11589298 -0.04102549
  N  2.70207308 -1.79622839 -0.36132357
  C  1.18719577  1.14518992  0.08127409
  N  1.46871041  2.22488364 -0.16626369
  H  0.56574789 -0.34597239  1.41253400
  H -0.34571594 -0.51135754 -1.37489672
  H -2.47719589 -0.12004803 -0.54663040
  H -1.49916079  1.23367754  0.05955235
  H -1.85006158 -0.15345084  1.10745289
