9
opt_min/./Product_1208_0_opt.xyz
  C -1.14626700  0.10643600 -0.00873100
  C  0.17739911 -0.47723490  0.43658856
  C  0.24570393 -1.43189487  1.32049989
  C  1.37471008  0.10948653 -0.22842147
  O  2.51588130 -0.19413414 -0.06979826
  H  1.07273025  0.90975991 -0.93069522
  H -1.53762072 -0.48451002 -0.83691041
  H -1.86435700  0.07701393  0.80707126
  H -1.00700195  1.13618868 -0.33330358
