12
opt_min/./Product_3874_0_opt.xyz
  C -1.11197900  0.18301500 -0.27136000
  H -1.14769341  0.27885706 -1.35232255
  H -2.07570399  0.39362236  0.18077402
  C  0.08903289  0.75898232  0.49981437
  H  0.13513181  1.76828717  0.90134150
  O -0.06762733 -0.27434978  1.47586399
  C -0.47584395 -1.09609641  0.36137570
  H -1.03666714 -1.99139614  0.61018939
  C  0.66094402 -1.17025455 -0.60357914
  C  1.23555178  0.18481245 -0.36080111
  H  2.17307991  0.07147663  0.18883616
  H  1.44984242  0.71211537 -1.28918530
