10
opt_min/./Reactant_807_0_opt.xyz
  O  1.89115900 -0.61980900 -0.34592300
  C  0.68277150 -0.03206806 -0.15422262
  C  0.28209143  1.25318966  0.08094632
  H  0.85961493  2.14884993  0.17702316
  N -1.07627234  1.28388261  0.19870790
  C -1.48749254  0.06463772  0.03239223
  H -2.50886914 -0.25173096  0.06650443
  N -0.44725579 -0.79166992 -0.17916104
  H -0.46867473 -1.78270528 -0.35116677
  H  2.58392209  0.04364350 -0.27582266
