10
opt_min/./Product_2134_0_opt.xyz
  O  2.10199700  0.50096000 -0.32414700
  C  1.13204996  0.63832551  0.48915719
  C  0.07915480 -0.42075473  0.43001135
  C -1.23799213  0.25067707  0.02887681
  H -1.10085791  0.84649696 -0.87277996
  H -1.57333639  0.91246903  0.82246364
  H -2.00062713 -0.50093989 -0.16309516
  H -0.03536191 -0.85623412  1.42516765
  H  0.32916283 -1.23261921 -0.28141804
  H  2.10180583 -0.30471511 -0.91225925
