10
opt_min/./Reactant_2134_0_opt.xyz
  O  1.63964200 -0.24288400 -0.40667000
  C  0.49220445 -0.04036569  0.35958706
  H  0.66276279 -0.07584388  1.43297515
  C -0.58533077  0.87279162 -0.14146602
  H -1.15543550  1.45390030  0.56487343
  H -0.40864507  1.36429565 -1.08550511
  C -0.78363100 -0.61746837 -0.16834367
  H -0.73898854 -1.11823646 -1.12026504
  H -1.46644712 -1.06473434  0.53578109
  H  2.32742908  0.36645509 -0.11628289
