10
opt_min/./Product_11942_1_opt.xyz
  N -1.77848500 -0.59372700 -0.18138800
  C -0.48162606 -0.33182999 -0.06277280
  C  0.09226062  0.95938757  0.46526378
  H -0.47452159  1.79577891  0.83342265
  N  1.34882786  0.90807016  0.41741947
  C  1.66676058 -0.41182085 -0.15051801
  O  2.78076943 -0.78652860 -0.32945560
  N  0.48896914 -1.10395780 -0.41715162
  H -2.06483731 -1.50164770 -0.50976293
  H -2.46029300 -0.01175788  0.27585536
