10
opt_min/./Product_2223_0_opt.xyz
  C -1.97154001 -0.94730000  0.64396498
  C -0.80821218 -0.79702547  0.40908046
  C  0.59467794 -0.61294095  0.09192696
  C  0.94756992  0.84074489 -0.07361285
  N  0.56426809  1.68767639  0.76420833
  H  0.84648470  2.64843167  0.58752168
  H  1.55987210  1.06774602 -0.95982813
  H  0.83957205 -1.16516279 -0.81882804
  H  1.19013047 -1.02371344  0.91438272
  H -2.98922436 -1.07360513  0.85951419
