14
opt_min/./Product_6289_0_opt.xyz
  C  2.41813800  0.81019500  0.24182600
  C  1.55398640 -0.12618416  0.58437607
  C  0.21596343 -0.30705206 -0.05820345
  O -0.77416140 -0.35754652  0.96264475
  C -2.06605701 -0.56824768  0.49675426
  O -2.58367363  0.50627519 -0.22416566
  H -2.58524497  1.28910911  0.33717701
  H -2.65991918 -0.77763621  1.39698761
  H -2.11304870 -1.43030289 -0.18480858
  H  0.19205850 -1.25829606 -0.61520326
  H  0.00879447  0.50733853 -0.76203085
  H  1.78421049 -0.81959633  1.38101358
  H  2.20939406  1.51888029 -0.54244583
  H  3.37673814  0.90148637  0.72064968
