14
opt_min/./Product_4188_0_opt.xyz
  C  1.47267600 -0.94071800  0.43178800
  H  1.02151519 -1.70437597 -0.22747847
  N  1.86027505  0.22833612 -0.45358721
  H  2.67545990  0.76916538 -0.18251284
  H  1.69874641  0.24676824 -1.46016679
  C  0.65797986  0.30135650  0.39652435
  C -0.64128874  0.49276031 -0.34959254
  H -0.54521511  0.89852522 -1.35601696
  C -1.77628560 -0.42884556 -0.09543152
  H -2.45304593 -0.67000867 -0.90566245
  H -1.64161836 -1.22016236  0.63149180
  N -1.82435559  0.95104584  0.33819053
  H -1.68870556  1.06137144  1.34101962
  H  0.76477097  0.99595563  1.23174207
