14
opt_min/./Product_8718_0_opt.xyz
  C -1.64401100  1.40539700 -0.06263100
  N -0.40707251  1.12472164  0.00875593
  C  0.08941064 -0.13808141  0.00384180
  N -0.68850759 -1.36040046 -0.05861919
  H -1.18694457 -1.40262991 -0.94445154
  H  1.17037861 -2.16992082  0.15693010
  H -1.39228334 -1.36114289  0.67634671
  C  1.43987532 -0.32462877  0.05468446
  O  1.94516488 -1.57293660  0.11142634
  N  2.35418626  0.67862796  0.00142509
  H  3.27921448  0.46601365  0.33222541
  H  1.97709146  1.59897545  0.14961150
  H -2.45348451  0.67541179 -0.15717662
  H -1.92388913  2.44548205 -0.03310873
