16
opt_min/./Product_6866_0_opt.xyz
  C  2.63256200 -0.41965500  0.29743400
  N  1.58224898  0.49789416 -0.03319505
  O  0.39819238 -0.11817734  0.03959387
  C -0.70770666  0.49069620 -0.25386299
  C -1.92659059 -0.24675153 -0.12985648
  C -2.02614388 -1.52369084  0.27095439
  H -2.97800906 -2.01608957  0.33842070
  H -1.14659794 -2.08426641  0.53517558
  H -2.81967295  0.30204195 -0.39142979
  C -0.72439380  1.91574381 -0.70576298
  H  0.29278619  2.29826794 -0.72936065
  H -1.31883489  2.53480003 -0.03667755
  H -1.15504265  1.98649656 -1.70417583
  H  3.36227088  0.11450985  0.90501204
  H  3.13456042 -0.75446112 -0.61784718
  H  2.26992790 -1.29813223  0.83866194
