11
opt_min/./Product_2308_0_opt.xyz
  C -0.99585187 -0.96578211 -0.14943454
  N  0.10709613 -1.05360545  0.80257647
  C  1.24852127 -0.41567288  0.91115152
  N  1.60687410  0.47479561 -0.07389581
  C  0.92620762  1.06874022 -1.04263446
  N  0.34375065  1.64269048 -1.84869754
  H  2.54362861  0.84510032  0.04755953
  H -0.06252387 -1.70400044  1.55743313
  H -1.12998621  0.05764753 -0.49131137
  H -0.80470780 -1.59997438 -1.01880227
  H -1.91033582 -1.30149556  0.33611784
