9
opt_min/./Product_3611_0_opt.xyz
  N  3.38292200  0.80847100  0.00873800
  C  2.23301828  0.69693878 -0.05882809
  C  0.86805902  0.87375955 -0.19588421
  N  0.04448254 -0.10637524 -0.32445275
  C -1.37782319  0.11196334 -0.47610568
  H -1.85529061  0.19905002  0.50257802
  H -1.54984484  1.03356130 -1.02801303
  H -1.82691766 -0.72623889 -1.00639661
  H  0.31886787 -1.09446579 -0.31857721
