8
opt_min/./Product_766_0_opt.xyz
  O -1.85995902  0.46983976 -0.00900122
  C -0.81928241 -0.37832608 -0.28544571
  C  0.44717947 -0.12767059 -0.12737478
  C  1.70189418  0.12521010  0.07152663
  H  2.20805404 -0.15188043  0.98445730
  H  2.31162497  0.59608291 -0.68445026
  H -1.16698735 -1.30358849 -0.72613799
  H -1.58010133  1.13207278  0.62883251
