12
opt_min/./Product_2826_0_opt.xyz
  C  1.09965503 -0.33333535 -0.20544689
  C -3.07575530 -22.98553778  33.38292442
  C  108.54954047  72.26115282 -59.21434710
  O -64.10707229 -35.09581006  32.74380759
  C  15.25680755 -19.22206505 -2.53470810
  H -51.30581593  18.67280322  113.25827330
  H -52.41482824 -32.03358527  129.64160164
  C  81.34455290 -15.37286183 -52.32299242
  H -56.63487156  23.94006121  11.64887472
  H -32.69695511  95.06039371  1.34570054
  H  67.97445062  117.63079329 -70.27612734
  H  10.40333546  58.34762735 -115.88968554
