14
opt_min/./Reactant_2826_0_opt.xyz
  C  0.12448500  1.46809100  0.23673300
  C  0.12779631 -0.02856654  0.02434191
  C  1.44980116 -0.64275980 -0.20144929
  O  1.65744329 -1.82105060 -0.33225269
  H  2.28002924  0.09016631 -0.25227943
  C -0.91033187 -0.89210178  0.70345092
  H -0.58380114 -1.86798101  1.03122343
  H -1.61972504 -0.40836867  1.35589243
  C -1.01126782 -0.66800535 -0.76078711
  H -0.72021848 -1.47034125 -1.42198948
  H -1.76933752 -0.00380427 -1.14494062
  H  0.40615501  1.98730094 -0.67847115
  H -0.86469530  1.80797656  0.53180655
  H  0.83051348  1.74582084  1.01717393
