14
opt_min/./Reactant_1160_0_opt.xyz
  C -2.45629500 -0.11783200  0.05460800
  O -1.25928921  0.45316970  0.51263546
  C -0.11493921 -0.11910033 -0.05026621
  C  1.13928036  0.55306107  0.49230339
  O  1.12514040  1.35884902  1.37892982
  C  2.41143121  0.08058083 -0.17427114
  H  3.18512370 -0.04217386  0.57614540
  H  2.27386285 -0.84880590 -0.71735403
  H  2.73947818  0.84690425 -0.87166910
  H -0.12548790 -0.02541324 -1.14963244
  H -0.04735938 -1.19718891  0.18626409
  H -2.56265901 -0.00480536 -1.03073559
  H -2.51685423 -1.18438635  0.30331276
  H -3.25641117  0.41242745  0.56196394
