9
opt_min/./Reactant_319_0_opt.xyz
  O  2.05870900  0.20827700  0.31262700
  C  0.77346127 -0.11498750  0.17995009
  N  0.35347727 -1.35359937  0.11248006
  O -0.99782581 -1.30793405 -0.02933104
  C -1.38900246 -0.03517933 -0.04238866
  H -2.44038027  0.15529559 -0.14555225
  C -0.31922591  0.79526571  0.07396215
  H -0.28176509  1.86212516  0.08980505
  H  2.58000408 -0.60724524  0.35082686
