16
opt_min/./Product_8004_0_opt.xyz
  C  3.37736041  0.96308051  0.98078798
  C  2.03415985  1.04826342  0.44503618
  C  0.91201011  1.08594704  0.02544527
  C -0.43169188  1.14137861 -0.53754617
  C -0.67947480 -0.03132262 -1.43402731
  N -1.47721838 -1.03897173 -1.12538765
  C -2.27161320 -1.26710889 -0.09116827
  H -2.87489654 -2.15009639 -0.08806360
  H -2.31994829 -0.58788536  0.73323425
  H -1.50602717 -1.76728626 -1.83289114
  H -0.08172542 -0.13150074 -2.32248519
  H -1.15722696  1.15719141  0.27718667
  H -0.53151806  2.07637869 -1.10010003
  H  3.94427999  0.19916686  0.44939261
  H  3.88648473  1.92073464  0.86845916
  H  3.34414338  0.70454622  2.03918735
