12
opt_min/./Reactant_3869_0_opt.xyz
  C -0.64522500 -0.91695900 -0.32447800
  H -0.44440415 -1.04438971 -1.38287632
  H -1.34786670 -1.65017159  0.05583282
  C -0.91603114  0.50695055  0.21244626
  H -1.89892122  0.96905147  0.25377381
  O -0.35254483  0.08412406  1.47251437
  C  0.54339584 -0.67577915  0.63319811
  H  1.10337241 -1.47066649  1.11817267
  C  1.27303674  0.44725023 -0.10898331
  H  2.32043656  0.53330707 -0.30545164
  C  0.26792954  1.26127702 -0.39974886
  H  0.25311720  2.20531029 -0.90218806
