13
opt_min/./Product_4533_0_opt.xyz
  C -1.81371200  0.79386600  0.24567600
  C -0.76301509 -0.06633417 -0.44173436
  N  0.12401967 -0.61231940  0.54420519
  C  1.36128474 -0.63761906  0.43264822
  O  2.10715376 -0.14616636 -0.63996510
  C  3.38001406 -0.18494407 -0.67279754
  H  3.80799075 -0.68052276  0.24209865
  H  1.97593850 -1.08193010  1.21962440
  H -0.24181273  0.50127693 -1.22409203
  H -1.25093691 -0.92917592 -0.91114673
  H -1.34288981  1.64122272  0.74504271
  H -2.34708663  0.21049422  0.99239988
  H -2.51634275  1.17243569 -0.49317120
