12
opt_min/./Product_11806_0_opt.xyz
  N  3.27791992  0.35875024  0.51316622
  C  2.25897891  0.03206323  0.11227026
  C  0.96317922 -0.34287746 -0.42701852
  H  1.12363510 -0.80449644 -1.41470611
  O  0.34735972 -1.32232902  0.42264536
  C -0.90508735 -0.87591191  0.71397847
  H -1.49355981 -1.55780754  1.30269166
  C -1.20177971  0.31887916  0.22907373
  H -2.12036062  0.85652825  0.34322229
  C -0.00148502  0.86611206 -0.49522056
  H -0.20407049  1.15326394 -1.52801184
  H  0.40621251  1.73931815  0.02344547
