15
opt_min/./Product_11883_0_opt.xyz
  C  2.26145000 -0.45553200 -0.23499000
  C  1.26466881  0.64227977 -0.33951538
  N -0.02612209  0.39944001 -0.18857770
  C -0.69798949 -0.73827976  0.05564861
  H -0.23869732 -1.69685775  0.14219002
  C -2.14742638 -0.41073410  0.14947235
  H -2.60150664 -0.63411328  1.12299282
  H -2.76907941 -0.90558895 -0.60806011
  N -2.20141561  1.01024264 -0.07454520
  C -1.01831599  1.40268271 -0.25555084
  H -0.74934808  2.42689550 -0.44888898
  H  1.56381988  1.65325925 -0.54288026
  H  2.18467242 -1.15808452 -1.07285562
  H  3.26735617 -0.04503184 -0.22562587
  H  2.10983338 -1.02951808  0.68398835
