16
opt_min/./Product_1518_0_opt.xyz
  C -1.54532300 -0.61081000 -0.02684900
  C -0.20411481  0.12562416 -0.14363725
  C -0.43079240  1.62097974 -0.34551887
  H -1.08920890  1.78943626 -1.19100432
  H  0.50868288  2.13306091 -0.53408672
  H -0.88646225  2.04689359  0.54558028
  C  0.61625299 -0.51515343 -1.26055663
  C  1.64617628 -0.91429521 -0.23834194
  H  2.61507966 -0.48248908 -0.48303812
  H  1.75976092 -1.99345541 -0.17318933
  C  0.86915647 -0.24508352  0.90641675
  H  0.53951843 -0.91303343  1.69866524
  H  1.36882920  0.60634749  1.36038828
  H -1.43914821 -1.51070189  0.56975991
  H -2.29509000  0.02858192  0.42680873
  H -1.89350065 -0.90002941 -1.01490646
