8
opt_min/./Product_74_1_opt.xyz
  C -1.19000000 -0.00118400 -0.00693700
  C  0.02429373 -0.52331551  0.14605542
  C  1.20127553  0.33167803  0.35566821
  O  1.18541599  1.53437934  0.40755418
  H  2.15709988 -0.22341425  0.46960971
  H  0.18671459 -1.59249195  0.12149652
  H -1.32474652  1.06897927  0.02169051
  H -2.06521407 -0.60917063 -0.16155653
