13
opt_min/./Product_8542_0_opt.xyz
  O -0.08025200 -0.12958000  1.76100700
  C  0.01039228  0.12394804  0.41118321
  O  1.38878255  0.35247064  0.07680177
  C  2.05144140 -0.67871644 -0.36502164
  H  3.07877836 -0.29408414 -0.53163210
  C -0.76770258 -0.78527212 -0.55529182
  H -0.16869946 -1.26420911 -1.33106209
  H -1.39024869 -1.53549974 -0.05920558
  O -1.53727687  0.32592630 -1.01703076
  C -0.90704919  1.23867137 -0.11994554
  H -1.58892537  1.64016152  0.62775140
  H -0.38569542  2.05055901 -0.62718933
  H  0.09212700 -1.06121727  1.94255764
