12
opt_min/./Product_2664_0_opt.xyz
  C  1.79553000  0.10264500 -0.27803200
  N  0.43538835 -0.33249690 -0.42910246
  C -0.58250767  0.14449013  0.30751812
  N -0.41808815  1.04873436  1.19693240
  H -1.27319925  1.32085920  1.67070126
  C -1.89896194 -0.49165938 -0.02561377
  O -2.04498702 -1.34635359 -0.85912852
  H -2.75287658 -0.10725103  0.56634660
  H  0.21530496 -1.06077696 -1.09260505
  H  2.25268744  0.25452162 -1.25579340
  H  2.38568892 -0.63002506  0.27944836
  H  1.78171439  1.03838113  0.27681861
