13
opt_min/./Product_2831_0_opt.xyz
  C -0.16115910 -1.23876360 -0.02109924
  C -2.04880104 -2.13677339 -12.40557397
  C  14.85529352 -7.45817880  22.39945389
  C  11.24001860 -1.62986625 -10.14605151
  H  10.31082656 -3.02826649  0.79831099
  H -6.95124752  5.51413349  7.94757114
  C  12.96152113 -0.52147502 -14.61745594
  H -5.28227054 -7.77094095  7.33339419
  H -1.89027422  14.88411326 -3.52686530
  H  3.02024264  0.57233683  1.73308705
  H -2.99299920  5.11739143  3.13012954
  H -12.55164093  8.12951472 -3.40487731
  H  15.10209704  2.32915940  7.61431620
