14
opt_min/./Product_2140_0_opt.xyz
  C -1.11942200 -1.09960200  0.06414600
  C -0.16388095 -0.00715757 -0.39648800
  H  0.10700253 -0.15337364 -1.43999291
  C -0.53137676  1.45056509 -0.06740771
  H -0.58944222  2.13396630 -0.91496933
  H -1.43179879  1.55710906  0.54381374
  O  0.64771539  1.64674327  0.71109924
  C  1.08655585  0.29565711  0.49604357
  C  2.32564935  0.11900779 -0.22206365
  H  2.47191102 -0.96125163 -0.38790117
  H  1.08927572 -0.26683308  1.44086146
  H -0.89416100 -1.43345507  1.07253276
  H -1.07246605 -1.96182178 -0.59391775
  H -2.13955862 -0.72551391  0.04810036
