13
opt_min/./Product_3783_0_opt.xyz
  C -2.33583000  0.56950500  0.89631200
  N -1.69901093 -0.37924181  0.39267658
  C -0.87330358 -0.18133394 -0.76557523
  C  0.42814723 -0.92364976 -0.55605365
  C  1.50786237 -0.36746671 -0.10723662
  C  2.56781630  0.23084460  0.33185903
  H  2.77785879  0.30473272  1.38746524
  H  3.30981923  0.64134490 -0.33675063
  H  0.39671220 -1.98823339 -0.75375901
  H -1.40442817 -0.59710445 -1.62188375
  H -0.66065747  0.88448866 -0.96103427
  H -2.95687594  0.36276542  1.75510524
  H -2.30703454  1.60950647  0.54170854
