15
opt_min/./Product_6550_0_opt.xyz
  C -1.51804608 -0.64854793 -0.77052590
  N -1.09905421 -0.11446346  0.51621448
  C  0.20392360  0.50517365  0.54356670
  C  1.31100844 -0.50213192  0.16382527
  O  2.59397355 -0.04836451  0.49414496
  H  2.65964881  0.04861770  1.45074800
  H  1.32672182 -0.66535371 -0.91277634
  H  1.07123480 -1.44644558  0.67378745
  N  0.29641943  1.64154951 -0.29445493
  C  0.31970255  2.56480839 -1.00255971
  H  0.37708418  0.85078218  1.57352807
  H -1.79119948  0.54704570  0.85112213
  H -1.43411127  0.07729779 -1.58855275
  H -2.55482707 -0.95919641 -0.68711047
  H -0.91132870 -1.51863225 -1.01056434
