16
opt_min/./Product_10818_1_opt.xyz
  C -1.45093700  1.34854800 -0.17617400
  C -0.90491605  0.20141672 -0.54224698
  C -1.64492733 -1.10502670 -0.44415589
  H -2.41850364 -1.14664389 -1.20979457
  H -2.12661016 -1.20411652  0.52555599
  H -0.97943363 -1.95000326 -0.58801411
  C  0.49426116  0.12619834 -1.09927163
  C  1.43709194 -0.47309210 -0.09804943
  C  2.48433091  0.14997663  0.40588340
  H  2.74466866  1.15474587  0.11439695
  H  3.13207962 -0.31669262  1.12795193
  H  1.20347806 -1.48083898  0.21950233
  H  0.84112817  1.12465892 -1.36822819
  H  0.48499352 -0.49447888 -1.99956871
  H -2.44942431  1.39635061  0.22564828
  H -0.92539353  2.28441916 -0.25556475
