11
opt_min/./Product_920_0_opt.xyz
  N  1.89457700 -0.00942700 -0.13539700
  C  0.40644257  0.11996266 -0.01672127
  C -0.30297297  1.33129110  0.04653850
  C -1.57608513  0.75784074  0.13705213
  H -2.54059448  1.23514403  0.21249269
  N -1.52817213 -0.60580299  0.11240419
  H -2.28480673 -1.27451744  0.15275549
  N -0.26802561 -1.04215600  0.02753646
  H  2.21589103  0.62956507 -0.86975252
  H  2.33831200  0.24993331  0.75065330
  H  2.09646658 -0.98669078 -0.36542420
