11
opt_min/./Product_4210_0_opt.xyz
  O  1.80398800 -0.56992500  0.77119800
  C  0.83397546 -0.22147890 -0.16215983
  H  1.38181517 -0.12656484 -1.11239725
  C  0.05577392  1.06071875  0.07706167
  H  0.52656418  1.99558021  0.30307497
  C -1.23892999  0.77805609 -0.10778335
  H -2.08236859  1.43835456 -0.05739941
  C -1.31073730 -0.65169057 -0.37221583
  H -2.21957436 -1.20143099 -0.55196845
  N -0.17817660 -1.23463951 -0.37557180
  H  1.36664207 -0.92109223  1.55585401
