14
opt_min/./Product_2443_0_opt.xyz
  C -1.72831507  0.45544873  0.21046401
  C -0.81485066 -0.31685463 -0.75120458
  N  0.43910172 -0.77201653 -0.19532174
  C  1.40587727  0.25735065  0.10087248
  N  2.61105243 -0.32154549  0.51383914
  C  3.60409836 -0.81756333  0.86092526
  H  1.10161136  0.96958784  0.89722313
  H  1.59696364  0.82566932 -0.81930315
  H  0.28866151 -1.35978889  0.61699600
  H -1.34180644 -1.20398150 -1.11019158
  H -0.58133918  0.30339654 -1.61917349
  H -2.06896822 -0.18706652  1.01618234
  H -2.59792263  0.82356821 -0.31983580
  H -1.20929875  1.30507192  0.64377991
