17
opt_min/./Product_8417_0_opt.xyz
  O  2.53426800  0.89081200  1.53673900
  C  1.46379130  0.21504825  1.04684903
  C  1.18199113  0.03489320 -0.23879358
  C  0.00984597 -0.66941781 -0.78876110
  H  0.22020410 -1.12248649 -1.74937610
  C -1.39942160 -0.12100078 -0.63848288
  C -1.65343492  1.13700983  0.16537847
  H -2.48368188  1.69350509 -0.26110449
  H -1.89974250  0.90758792  1.19735273
  H -0.77986208  1.78380340  0.17054057
  H -2.02876992 -0.21440931 -1.51228298
  C -1.00934030 -1.39095282  0.04631259
  H -0.91169736 -1.39738464  1.11890386
  H -1.38706326 -2.32105163 -0.34805914
  H  1.85555224  0.44406843 -0.98473779
  H  0.84709694 -0.17143262  1.84353049
  H  3.07697970  1.19604359  0.80037343
