10
opt_min/./Product_1592_0_opt.xyz
  C -1.19151486 -0.11508985  0.43920895
  C  28.04511256 -37.44903431  37.22169793
  C  11.09590741  36.61210796 -7.76747599
  C -18.35582954 -85.79210807  23.63988097
  N  16.53509935  47.40108137 -14.58089285
  H -44.91567159  13.13387045 -33.24681131
  H -0.46315085  2.43318786 -6.18871422
  H -38.82473782  27.48431966 -14.24568074
  H  62.41988277 -12.12581828  0.47845005
  H -52.45056841  65.63662573 -65.06694072
