16
opt_min/./Product_5063_0_opt.xyz
  C  2.48807500  0.46339300 -0.68906900
  C  0.99136133  0.40235240 -0.64267167
  C  0.31793629 -0.64094397 -0.18355529
  C -1.18012699 -0.79447851 -0.09174055
  O -1.53733295 -1.29922606  1.18724225
  H -1.33814910 -0.62317520  1.84213966
  C -1.96415307  0.47532575 -0.42137026
  H -3.01847468  0.30162089 -0.23999304
  H -1.83359937  0.74757544 -1.46269040
  H -1.63661252  1.30480188  0.20106350
  H -1.48454466 -1.59344210 -0.77838602
  H  0.85945521 -1.49596010  0.20075704
  H  0.46548411  1.26288358 -1.02918966
  H  2.88135383 -0.32019093 -1.32992762
  H  2.90665218  0.31812824  0.30249259
  H  2.82953096  1.41827921 -1.06926416
