14
opt_min/./Product_4198_0_opt.xyz
  C -1.56804800 -0.09660100  0.57272100
  H -2.63451751 -0.27413564  0.49132336
  H -1.14713444 -0.31687973  1.54386640
  N -0.98623440  1.05531172 -0.07930794
  H -1.63939323  1.61866584 -0.61354217
  C -0.71987177 -0.25325566 -0.62830637
  C  0.70329796 -0.78562036 -0.53438395
  C  1.45193050 -0.16131463  0.61797860
  N  2.07934465  0.92046635  0.63780904
  H  2.05197670  1.43380219 -0.24492156
  H  1.44895799 -0.72532846  1.54834737
  H  0.66506685 -1.86866109 -0.40477509
  H  1.22264208 -0.55710199 -1.46792379
  H -1.21495073 -0.53376229 -1.55764482
