10
opt_min/./Product_1355_1_opt.xyz
  C -0.23580900 -0.21763700 -0.07558000
  C -1.62113465  0.31597723 -0.07002155
  H -2.21803184 -0.19268720 -0.82323953
  H -2.07552524  0.12102243  0.90151250
  H -1.62070057  1.38699508 -0.24897380
  N  0.75993944  0.53516787 -0.01610417
  C  2.09908251  0.45838671 -0.03927803
  O  2.79060763  0.36975997 -1.01979836
  H  2.51361674  0.64534717  0.97331657
  H -0.13841696 -1.30773665 -0.09828611
