12
opt_min/./Product_1329_0_opt.xyz
  C -1.78894600 -0.04389900 -0.16893400
  C -0.40654221 -0.59484058  0.07710418
  C  0.68233883  0.47921861  0.10609162
  C  2.07358588 -0.10564584  0.10794175
  O  2.58351937 -0.63152430 -0.83725828
  H  2.61735701 -0.00548197  1.06763011
  H  0.50790699  1.10163604  0.98600955
  H  0.57045963  1.09926038 -0.78684952
  O -0.19326220 -1.75881711  0.26926718
  H -2.46282594 -0.40586717  0.60630753
  H -1.81219754  1.04102209 -0.19532908
  H -2.15338645 -0.43521475 -1.11719285
