15
opt_min/./Product_10439_0_opt.xyz
  N  2.69988000  0.09799400 -0.05467700
  C  1.53709267 -0.21976830  0.55090899
  O  1.43763570 -0.44198837  1.73642844
  C  0.33114662 -0.31269833 -0.38156345
  N -0.87500813 -0.04019136  0.38759557
  H -0.73025651 -0.29401097  1.36655221
  C -1.81679892  1.09700564  0.15045484
  H -1.46445540  1.63155710 -0.75548798
  C -2.19322561 -0.29680421 -0.19594236
  H -2.88040773 -0.83778390  0.44877361
  H -2.13930990 -0.73297554 -1.19790917
  H  0.40954797  0.40730407 -1.20275024
  H  0.30526601 -1.32976989 -0.79405660
  H  2.75174890  0.35095069 -1.02570605
  H  3.52725818  0.19601410  0.51286034
