14
opt_min/./Product_2005_0_opt.xyz
  C -1.73718200 -0.23022600  0.57437400
  C -0.51198697  0.09080335 -0.21416148
  C  0.47957033  1.10938921  0.26815747
  H  0.27612975  1.50838032  1.25882789
  H  0.66748061  1.95747602 -0.39128582
  C  1.55006660  0.07181715  0.09019079
  O  2.70981784  0.41717736 -0.56677957
  H  3.17271979 -0.38079706 -0.84408989
  C  0.56165671 -0.91811009 -0.48462794
  H  0.80329385 -1.09792161 -1.53353901
  H  0.40467930 -1.88793899 -0.01387999
  H -2.35022965 -0.95898790  0.04486703
  H -1.51617712 -0.63971107  1.56832616
  H -2.32252175  0.67811683  0.71542078
