11
opt_min/./Product_10466_1_opt.xyz
  C -0.16611500  0.45480400 -0.20497400
  C -1.20802711 -0.54469087  0.13388719
  H -0.81185382 -1.51902799 -0.16123216
  H -1.37937822 -0.57869596  1.21047247
  H -2.15222756 -0.31985213 -0.36303706
  O -0.50404915  1.74467875 -0.30819696
  H -1.43978790  1.88638651 -0.10935744
  C  1.15402934  0.08607298 -0.32436233
  C  1.47681878 -1.26683601 -0.32416703
  H  2.55328124 -1.42954045 -0.15332514
  H  1.84809658  0.91652400 -0.47398480
