18
opt_min/./Reactant_6295_0_opt.xyz
  C -1.91039000  0.59927200  0.17074900
  C -0.75643447 -0.01265841  0.95759706
  C  0.31239210 -0.65476541  0.05282835
  C -0.23138529 -1.85154056 -0.72198936
  H -1.03571590 -1.53897513 -1.38378619
  H  0.56360998 -2.27841163 -1.33245282
  H -0.59627675 -2.60744830 -0.02965177
  O  0.82668367  0.24983874 -0.91515012
  C  1.69508640  1.23208077 -0.41331993
  H  2.06926109  1.78373207 -1.27605540
  H  2.54119714  0.78282565  0.12404637
  H  1.18097171  1.92831865  0.26177823
  H  1.14297036 -1.00290914  0.69495994
  H -0.28361357  0.76587765  1.56445376
  H -1.12534278 -0.77464494  1.64953681
  H -1.51407912  1.19979195 -0.64729810
  H -2.55283816 -0.17557666 -0.24376183
  H -2.51668264  1.23547206  0.81468226
