14
opt_min/./Product_9004_0_opt.xyz
  C -2.35248500 -0.30733300 -0.14142000
  N -2.40743673  0.20051529  1.22977862
  C -0.98553125  0.08046261 -0.73041319
  O -0.82192728  1.02226429 -1.45235317
  N  0.02164767 -0.75079079 -0.27797073
  C  1.36997656 -0.65888471 -0.55480809
  N  1.84615774  0.16242872 -1.37163222
  H  2.85256336  0.12479217 -1.49307533
  H  1.93422250 -1.41342441  0.02626931
  H -0.24585175 -1.45126371  0.39946827
  H -3.22026861  0.78065936  1.38362485
  H -2.41593983 -0.55169134  1.90714169
  H -2.48276437 -1.39391943 -0.20119590
  H -3.11077745  0.17362273 -0.76231416
