15
opt_min/./Product_8131_0_opt.xyz
  C  0.60609500  0.13707200  0.46282400
  O  1.25043774 -0.33438635 -0.73349608
  C  2.54441476 -0.54626000 -0.65064321
  O  3.24121487 -0.38857736  0.30854272
  H  2.91990044 -0.89830604 -1.62712922
  C -0.85766662  0.32139015  0.18363903
  C -1.44777267  1.49522494  0.34473423
  H -2.50012651  1.62166738  0.15942976
  H -0.90663742  2.36523288  0.67328733
  C -1.59540398 -0.90260138 -0.27938590
  H -2.01791957 -0.73771839 -1.26752640
  H -0.93059096 -1.75940300 -0.33019323
  H -2.41323679 -1.13218256  0.40050589
  H  0.76244686 -0.60576255  1.25551415
  H  1.07942360  1.07210338  0.77833837
