15
opt_min/./Product_5520_0_opt.xyz
  C -1.59676100  0.89326600 -0.19757500
  C -1.39407388 -0.43178643 -0.84833781
  N -0.30050066 -1.17449161 -0.66051235
  C  0.86043737 -0.97315889 -0.04771425
  O  1.16512147  0.25789928  0.53701872
  C  2.51074393  0.38741084  0.89667789
  H  2.59185138  1.32719207  1.44270499
  H  3.16080497  0.42233981  0.01265748
  H  2.84027328 -0.42988625  1.54905349
  H  1.65606664 -1.68475842 -0.16550272
  H -0.35382952 -2.09911387 -1.07659130
  H -2.24505058 -0.95859325 -1.24466202
  H -0.66786489  1.45703697 -0.19472813
  H -2.35539483  1.45694625 -0.73598708
  H -1.91358168  0.78556419  0.84512260
