7
opt_min/./Product_5475_0_opt.xyz
  C -0.96327500  0.18358000 -0.12452800
  C  0.45109787 -0.06809306 -0.13439418
  N  1.58584610 -0.27913676 -0.15015113
  O  2.75658408 -0.50303460 -0.17171542
  H -1.51155452 -0.76030811 -0.10015376
  H -1.25337848  0.79138660  0.73123638
  H -1.26620820  0.70453472 -1.03605245
