14
opt_min/./Reactant_2828_0_opt.xyz
  C  0.12448500  1.46809100  0.23673300
  C  0.12779634 -0.02856654  0.02434193
  C  1.44980117 -0.64275984 -0.20144932
  O  1.65744336 -1.82105066 -0.33225215
  H  2.28002922  0.09016630 -0.25227974
  C -0.91033185 -0.89210178  0.70345084
  H -0.58380105 -1.86798102  1.03122332
  H -1.61972505 -0.40836868  1.35589237
  C -1.01126776 -0.66800528 -0.76078718
  H -0.72021868 -1.47034128 -1.42198953
  H -1.76933742 -0.00380408 -1.14494059
  H  0.40615490  1.98730097 -0.67847117
  H -0.86469532  1.80797653  0.53180666
  H  0.83051357  1.74582086  1.01717388
