9
opt_min/./Product_3609_0_opt.xyz
  N  2.62479500  0.04481900  0.32559700
  C  1.40926750  0.12059579  0.15725582
  C  0.13298553  0.07963610  0.06795026
  C -1.16857184 -0.62783253 -0.08441034
  H -1.45197275 -0.98732988 -1.07260927
  H -1.49832398 -1.27424982  0.72900465
  N -1.05523134  0.76135394  0.14589393
  H -1.54831301  1.59944486  0.33884347
  H  3.23218371  0.20578699 -0.47724603
