14
opt_min/./Reactant_3300_0_opt.xyz
  O  2.86367400 -0.26792500  0.12768000
  C  1.75523380  0.17086275  0.26857916
  C  0.50686877 -0.40446374 -0.30563410
  H  0.76560574 -1.24420717 -0.94926207
  C -0.57850816 -0.73047277  0.75287654
  H -0.30531055 -0.43092585  1.76111569
  H -0.86941016 -1.77656150  0.76748968
  C -1.56404259  0.21588810  0.04906347
  H -2.40984204 -0.28833528 -0.40775569
  H -1.93533206  1.02762974  0.66790252
  C -0.46072934  0.62019684 -0.94316206
  H -0.12760524  1.64978363 -0.84476781
  H -0.68579709  0.42288619 -1.98669061
  H  1.57701536  1.07431890  0.89290710
