16
opt_min/./Product_9730_0_opt.xyz
  C  1.40594900  0.87117200 -0.19811500
  C  0.43084155 -0.25082423  0.12517721
  O  1.12960967 -1.42317446  0.51603784
  H  1.38597254 -1.89609275 -0.28252765
  C -0.69517166  0.03514137  1.13373470
  H -0.78658773  1.05674967  1.49721048
  H -0.69841115 -0.67487826  1.95184020
  N -1.71811260 -0.25966889  0.08554157
  H -2.51167653 -0.84728066  0.30464327
  C -1.67883097  0.51167727 -1.17295740
  H -1.29203208  1.51773255 -0.96277725
  C -0.68331696 -0.53690332 -0.93606928
  H -0.68294459 -1.47955770 -1.46520723
  H  1.85071617  0.71552823 -1.17623253
  H  0.90488732  1.83513426 -0.19617561
  H  2.18498267  0.89569682  0.55918155
