11
opt_min/./Product_6344_0_opt.xyz
  O -1.41281800  2.06006200  0.49203300
  C -1.16828801  0.91678862  0.27943107
  C -0.22640900 -0.12613127  0.00829645
  C  1.01136036 -0.56045851 -0.20241506
  C  2.17035031  0.34756718 -0.21275468
  O  2.14242888  1.53607919 -0.04594604
  H  3.12869712 -0.18315729 -0.40169089
  H  1.20951725 -1.61197989 -0.37617683
  C -1.67716458 -0.46995009  0.12777995
  H -2.21518656 -0.73582442 -0.77377831
  H -2.02024181 -1.02086295  0.99306724
