7
opt_min/./Product_4895_0_opt.xyz
  C  1.44557500 -0.70744100 -0.18684600
  O  0.21167217 -0.85627180 -0.37824791
  C -0.77060397  0.17991036 -0.18384974
  H -0.33875918  1.16721646 -0.35810863
  H -1.59033793  0.00206550 -0.87532682
  H -1.14374769  0.12672935  0.83860628
  H  1.72245970  0.33438806  0.11757570
