13
opt_min/./Product_4833_0_opt.xyz
  C  1.77297800  0.35365300  0.44768400
  C  0.30400764  0.25015254  0.27115139
  C -0.87992332  0.71384928  0.78299362
  O -1.31383816  1.50099668  1.60600107
  C -1.65465777 -0.24815072 -0.21871099
  H -2.23513359  0.23587700 -0.99926012
  H -2.23277950 -1.04439968  0.24447033
  N -0.31107900 -0.70944126 -0.69000555
  H -0.11906378 -1.70182278 -0.51215282
  H -0.11918238 -0.52608002 -1.68089720
  H  2.22240202 -0.58327650  0.79244493
  H  1.96751441  1.11589177  1.19523451
  H  2.27130400  0.64949555 -0.48166956
