11
opt_min/./Product_4886_0_opt.xyz
  O -0.59878600 -0.82691900  1.08322300
  C -0.26680276 -0.53338524 -0.24586875
  C  0.87808447  0.43884265 -0.46533520
  O  2.12147602 -0.16105005 -0.20947724
  H  2.09474283 -0.53817396  0.67703923
  H  0.90245037  0.74501846 -1.51177197
  H  0.72811047  1.32471345  0.16317915
  H -0.26442235 -1.39243433 -0.91067046
  C -1.54354954 -0.11991552  0.33765977
  H -2.44703594 -0.65829876  0.08727298
  H -1.67834283  0.91671232  0.61565710
