12
opt_min/./Product_843_0_opt.xyz
  C  1.14679600 -0.65169400 -0.11154200
  C  0.08337207  0.44612855  0.20342185
  N  0.11609390  0.88523389  1.46156096
  O  0.17010558  1.42404208 -0.82097343
  H  0.04101585  2.29576918 -0.42792437
  C -1.34308080 -0.23571562  0.07079887
  H -1.44758081 -0.54985798 -0.96353185
  H -1.40962978 -1.08146738  0.74574196
  H -2.11477800  0.48953512  0.31016240
  H  2.05495929 -0.13177163 -0.40148309
  H  0.80870545 -1.28700233 -0.92134765
  H  1.33638638 -1.23628963  0.78232673
