10
opt_min/./Product_6109_0_opt.xyz
  C -1.09678900 -0.41485800  0.40503000
  C -0.19904838  0.76177394  0.59044141
  N  1.01591869  0.82121813  0.31011399
  C  1.99471322  0.03904751 -0.16824112
  O  2.31689672 -0.11418705 -1.31698360
  H  2.60269385 -0.35864146  0.67811640
  H -0.64967945  1.65869811  1.00719427
  H -1.71815033 -0.56409414  1.28378078
  H -0.52983468 -1.31787945  0.19329391
  H -1.75678394 -0.21149037 -0.43726420
