15
opt_min/./Product_9284_0_opt.xyz
  C -0.53320561 -0.60997794  0.41872927
  C -0.21655671  0.49044271 -0.57838012
  C -1.42100342  0.75272686 -1.47546202
  H -1.68082701 -0.14024827 -2.03956518
  H -1.19550163  1.54992447 -2.17879273
  H -2.28468352  1.04959605 -0.88451181
  H  0.04743339  1.40431319 -0.04075023
  H  0.63820479  0.20051323 -1.19207774
  O  0.49044220 -0.90703448  1.41846428
  C  1.69759355 -0.54445396  1.42539301
  C  2.40746856  0.21825466  0.52892139
  C  3.26112156  0.83761195 -0.07888523
  H  4.05287735  1.34926370 -0.54118356
  H -0.72178283 -1.55863445 -0.09420987
  H -1.41601774 -0.35326233  1.01194454
