14
opt_min/./Product_5580_0_opt.xyz
  C -2.17238200 -0.02154400  0.63699900
  H -2.98101281 -0.74000493  0.73871068
  H -2.46178516  0.97140082  0.30437097
  C -0.81069525 -0.48967736  0.36889863
  C  0.17473165  0.36156408 -0.40143916
  C  1.59219943 -0.21247504 -0.25331723
  C  2.28981552 -0.21108314  1.01459535
  H  1.84045301  0.54021061  1.69055106
  H  2.31584624  0.47791682 -0.73552286
  H  1.69160934 -1.16618523 -0.78418197
  H -0.11612835  0.38021762 -1.45546429
  H  0.13815296  1.38011113 -0.00691547
  H -0.64965579 -1.56675700  0.29181456
  O -1.20148181 -0.05710050  1.64114284
