8
opt_min/./Product_9763_1_opt.xyz
  C -1.93398945 -0.03999714  0.14756469
  C -5.50643652 -3.26783646  2.15037732
  C  1.82871285  27.33549953 -13.00980791
  C -4.16848807  7.90782383  8.68089611
  H -3.27866781  5.66838548 -5.91559409
  H  5.16660977  5.72652693  4.52234727
  H -17.23296584  7.22512981 -12.04921035
  H  31.44545754 -5.32757967  13.65538971
