13
opt_min/./Product_10377_0_opt.xyz
  N  1.72899000  0.08334900 -0.25555400
  H  2.57381615 -0.08754705 -0.77678506
  C  1.22696911  1.27483839 -0.05167601
  C -0.04670505  0.96833695  0.68351996
  H -0.45225231  1.71681804  1.35132662
  C -0.94992568  0.43458276 -0.45935896
  H -0.69910415  0.74050869 -1.47866978
  H -2.00258112  0.61467084 -0.26161235
  C -0.51542450 -0.93637780  0.00137088
  H -1.10664688 -1.83590822 -0.07702827
  C  0.94355967 -0.98078937  0.30562912
  H  1.42328204 -1.92484670  0.52021850
  N  0.03292957 -0.42777435  1.27285122
