14
opt_min/./Product_11715_0_opt.xyz
  C -0.65219700  1.72253200  0.05185400
  C -0.46540317  0.40487510  0.05229732
  C -1.53853561 -0.64996502  0.04356552
  H -2.20296578 -0.58013943  0.91227335
  H -2.15069438 -0.60097302 -0.86422089
  O -0.87456163 -1.90617020  0.09269768
  C  0.47080692 -1.64761601  0.08034980
  H  1.09727229 -2.51998572  0.11648980
  C  0.78753129 -0.33972271  0.06727810
  N  2.04836965  0.24003085  0.11584466
  H  2.77279091 -0.31801118 -0.31108084
  H  2.05029633  1.19141894 -0.22000940
  H -1.63986637  2.14782151  0.04680527
  H  0.17198550  2.41338176  0.06183640
