10
opt_min/./Product_2355_0_opt.xyz
  O  2.40811100 -0.40674400 -0.42529800
  C  1.12734063 -0.16192691 -0.17451282
  O  0.24241314 -1.14736279 -0.27872718
  C -1.06023583 -0.53601765 -0.07803919
  C -0.74472304  0.96174266  0.04110136
  H -1.13230011  1.47920983  0.91053022
  H -1.52918882 -0.99724390  0.80678903
  H -1.67579678 -0.76962547 -0.95481848
  O  0.65709164  0.98923931  0.06354057
  H  2.92315739  0.40503961 -0.31859731
