18
opt_min/./Product_10238_0_opt.xyz
  C -1.44049800  0.96489300 -0.40609700
  C -0.85130032 -0.27346830  0.26642170
  C -1.68214197 -1.51853537 -0.07818336
  H -2.30979191 -1.81679887  0.75622284
  H -2.31399703 -1.32459918 -0.94327923
  H -1.00856432 -2.33539714 -0.32891258
  N  0.53804913 -0.57357841 -0.08596163
  C  1.51586726  0.43903677 -0.12776654
  C  2.92745631  0.06893299  0.24496292
  H  3.61145089  0.86327276 -0.04602929
  H  3.19413673 -0.85082620 -0.27215946
  H  2.98670382 -0.09308318  1.31855865
  H  1.22427557  1.46449952  0.12452033
  O  0.99640256 -0.02790384 -1.32302380
  H -0.83296422 -0.13128053  1.35653117
  H -0.87105480  1.86728649 -0.19375727
  H -2.45939010  1.11734534 -0.04700588
  H -1.47756797  0.81054834 -1.48460173
