19
opt_min/./Product_7721_0_opt.xyz
  C  3.07632300  0.29295700  0.09806800
  C  1.75927765  0.37639607  0.13594866
  C  0.87206405 -0.64091027  0.78372326
  C -0.11365482 -1.30340712 -0.19281801
  C -1.12276092 -0.32960373 -0.80139800
  O -1.86369252  0.27358475  0.23865906
  C -2.80157144  1.20569393 -0.22099489
  H -3.53092863  0.74297818 -0.89453490
  H -3.32425209  1.58671042  0.65299576
  H -2.31342332  2.04415442 -0.72889685
  H -1.80082409 -0.88490306 -1.47645919
  H -0.61961381  0.43551852 -1.40831527
  H  0.44343963 -1.78372632 -0.99328580
  H -0.67864750 -2.05495424  0.35412582
  H  0.30299361 -0.17358369  1.58873542
  H  1.49225641 -1.42317289  1.22704639
  H  1.26869736  1.22747361 -0.31355066
  H  3.67533597  1.05385047 -0.37345242
  H  3.61157716 -0.53271634  0.53654634
