14
opt_min/./Product_10169_0_opt.xyz
  N  2.25470400 -0.03874400 -0.65201700
  C  1.39916911  0.58615324  0.28272850
  H  1.81420970  1.50498330  0.67821805
  O  0.67369240 -0.17594873  1.22096575
  C -0.06572483  0.46695252  0.20768393
  C -0.76660930 -0.36829376 -0.81701284
  H -0.20197796 -1.18423292 -1.25341396
  C -2.22697017 -0.48010373 -0.78362149
  H -2.71305783 -1.36680824 -1.17234269
  H -2.77045387  0.04764820 -0.00960723
  O -1.57649969  0.32751460 -1.71603776
  H -0.66319421  1.30644033  0.55191112
  H  3.21031350 -0.04931021 -0.32125488
  H  1.96864480 -0.99061511 -0.83820632
