15
opt_min/./Product_7238_0_opt.xyz
  C -0.95870400 -1.39886500  0.31801200
  C -0.62789886 -0.16667002 -0.53350810
  H -0.52949249 -0.47153136 -1.57928305
  N -1.65497527  0.84377138 -0.44803891
  C -1.06941443  1.89790534 -0.04060121
  H -1.58778932  2.82424354  0.11496309
  N  0.29917396  1.81240402  0.19887266
  C  0.60379407  0.59515316 -0.08277221
  C  1.95902178  0.02070887  0.04858938
  H  2.07336246 -0.40639786  1.04354977
  H  2.70625886  0.79889779 -0.06758485
  H  2.12180971 -0.76580496 -0.67988843
  H -0.73945794 -1.20530312  1.36320252
  H -0.39263116 -2.26094793 -0.01180634
  H -2.01778768 -1.61324242  0.22399353
