15
opt_min/./Product_10512_0_opt.xyz
  C -2.11574900 -0.60074900  0.22921800
  C -1.09247021  0.12125743 -0.65584384
  C  0.28906267 -0.34724359 -0.36566205
  C  1.30128025  0.43397533  0.04582703
  O  1.14977903  1.78322290  0.21205283
  H  1.97904122  2.16399791  0.52940086
  C  2.61829691 -0.14300573  0.32364361
  O  2.92479348 -1.30452752  0.23023440
  H  3.36172423  0.61744871  0.66806197
  H  0.49669449 -1.40207650 -0.46848397
  H -1.31710862 -0.08321434 -1.70565402
  H -1.14835368  1.19832757 -0.49811990
  H -2.34843241 -1.58514342 -0.16864693
  H -3.03303415 -0.02232922  0.29262630
  H -1.72513554 -0.72704106  1.23646395
