11
opt_min/./Reactant_56_0_opt.xyz
  C -1.31906400 -0.41007200  0.48768200
  O -0.20288319  0.26701379  1.02150990
  C  0.69157715  0.75035236  0.06076399
  C  1.47235400 -0.30211528 -0.69584042
  O  1.38270358 -1.48724538 -0.56395124
  H  2.16319313  0.14727212 -1.43837135
  H  0.18239947  1.39139272 -0.68005767
  H  1.41014155  1.37329675  0.60141664
  H -1.03071739 -1.33369562 -0.02230131
  H -1.94418532 -0.65345166  1.34302958
  H -1.87961427  0.22624488 -0.20363285
