17
opt_min/./Product_10400_0_opt.xyz
  C -1.41603500 -0.92649900  1.04185200
  C -1.11509209  0.41907292  0.45704994
  C  0.35214518  0.77241715  0.43354939
  C  1.10157910 -0.07817239 -0.50399999
  C  1.18686065 -1.00725740 -1.40927681
  H  0.71044298 -1.73194605 -2.02171158
  C  2.48683007 -0.35444190 -1.02109585
  H  2.96221508  0.34648176 -1.69779677
  H  3.19796098 -0.89530281 -0.40616482
  H  0.77361731  0.64234333  1.43641260
  H  0.49011245  1.81946302  0.14933023
  C -2.04694753  1.24811820  0.02236639
  H -1.81086808  2.21895013 -0.37817328
  H -3.09191074  0.98843014  0.04020789
  H -2.40985666 -1.26860770  0.76678788
  H -1.37844287 -0.86674948  2.13173359
  H -0.67699580 -1.65862462  0.72850795
