8
opt_min/./Product_5762_0_opt.xyz
  O  0.55592000  1.01378000  0.16076700
  C  1.26743114 -0.16145141  0.15475341
  H  2.32489189 -0.09209093  0.31934509
  C  0.47751324 -1.26677915 -0.06886057
  N -0.76269815 -0.64298839 -0.19452073
  H -1.61882711 -1.14495203 -0.37037516
  C -0.68200410  0.67635617 -0.05639743
  H -1.46454898  1.40554751 -0.10361768
