15
opt_min/./Product_7168_0_opt.xyz
  C  2.51892600  0.29769800  0.49911600
  C  1.30824154 -0.35464355 -0.07153814
  N  0.17238552 -0.16107093  0.42271163
  C -0.98038835 -0.80823722 -0.12548559
  C -2.00736762  0.24259735 -0.57767831
  C -2.42673538  1.08134028  0.51736969
  N -2.77039559  1.74211394  1.38455187
  H -1.56565514  0.88511822 -1.34537814
  H -2.88640612 -0.25741864 -0.98869157
  H -1.42377645 -1.40626221  0.67836478
  H -0.73953268 -1.47093291 -0.97330627
  H  1.47224554 -1.03194782 -0.93269975
  H  2.26183481  1.27669022  0.88944195
  H  3.30604099  0.37393904 -0.24518602
  H  2.88802437 -0.30514643  1.32822521
