10
opt_min/./Reactant_412_0_opt.xyz
  C -1.37713900 -0.10467400 -0.10911100
  N  0.04685362 -0.17496419  0.01281212
  C  0.96611684  0.82195167  0.02801417
  H  0.75420435  1.86350048 -0.06455892
  N  2.14879034  0.28397699  0.17494744
  N  1.95481523 -1.02473619  0.23696931
  N  0.72652657 -1.31495741  0.16140577
  H -1.74993664 -1.10294048 -0.31586451
  H -1.64913592  0.56811410 -0.91914797
  H -1.81710534  0.25287753  0.82186526
