14
opt_min/./Product_8714_0_opt.xyz
  C  7.03723687  2.73016836  0.00507835
  N  5.81271446  3.30651377 -0.50720830
  C  4.65445378  3.03860529  0.27207056
  N  4.73972192  2.08391071  1.33965443
  H  3.99701425  2.22797183  2.01171554
  H  4.69588284  1.12626053  0.99756036
  C  3.48947069  3.58814992  0.03335867
  O  2.35349322  3.70581158 -0.25010382
  N  5.57157840  3.07534861 -1.88411373
  H  6.19139528  3.67047162 -2.42466503
  H  5.74188046  2.09992782 -2.14816014
  H  7.87735517  3.21673232 -0.49239767
  H  7.10451458  1.64521589 -0.16926575
  H  7.09187360  2.92178510  1.07237322
