9
opt_min/./Product_4240_0_opt.xyz
  O  2.15158400  0.55468700 -0.40782900
  C  1.21277625 -0.12856406  0.30920942
  C -0.03911857 -0.34094200  0.01628594
  N -1.21426770 -0.49440125 -0.23728011
  C -2.48224497 -0.16792332  0.07496978
  O -3.06297148 -0.51116701  1.06908219
  H -2.96405946  0.33718537 -0.78411794
  H  1.63000219 -0.63246694  1.17166172
  H  1.73422124  1.15972614 -1.03105722
