11
opt_min/./Product_6125_0_opt.xyz
  N  1.78557896  1.23265205 -1.65704398
  C  1.07926599  0.54315534 -1.08198889
  C  0.08198335 -0.30197268 -0.45211707
  C -0.40955951  0.25738813  0.88940047
  O  0.61799210  0.06831307  1.83814311
  H  0.41810730  0.57363351  2.63276651
  H -0.65590187  1.32135412  0.76992772
  H -1.31853224 -0.29059146  1.17810551
  C -0.95547337 -0.84509002 -1.31705973
  H -0.58335407 -0.94663073 -2.34993169
  H  0.61103651 -1.24714858 -0.20768811
