13
opt_min/./Product_10716_0_opt.xyz
  C  1.95958000  0.31366800  0.47539500
  O  0.66060663  0.77345309  0.78030229
  C -0.33239078  0.12716183  0.09687760
  C -1.58024401  0.41048484 -0.28760107
  O -2.47315063  1.41302818 -0.27601098
  H -2.12725016  2.11663435  0.28676138
  O -1.87774060 -0.83744230 -0.81510725
  C -0.55637935 -1.27536246 -0.42564311
  H -0.62053503 -2.07670165  0.31031420
  H  0.02440969 -1.58924780 -1.29181263
  H  2.63365367  0.89349375  1.10295137
  H  2.20642548  0.48084361 -0.57761971
  H  2.07415496 -0.74975016  0.70196383
