17
opt_min/./Product_10383_0_opt.xyz
  C -0.81885100  0.97177900  1.00027100
  C -0.17350425  0.02546844 -0.01384777
  C -1.20896332 -0.40664411 -1.05505102
  H -1.62960595  0.46363323 -1.55319489
  H -2.01869249 -0.95332568 -0.57268303
  H -0.75525030 -1.05163070 -1.80539244
  C  1.03368397  0.65682806 -0.66631048
  H  0.98900055  1.55296632 -1.25066863
  C  2.10715776 -0.06783204 -0.39402164
  H  3.13787617  0.05641850 -0.67842792
  O  1.87884183 -1.16363256  0.37801673
  C  0.48313671 -1.19588114  0.67613481
  H  0.36758277 -1.16596654  1.76428479
  H  0.07809551 -2.14271490  0.30492767
  H -0.09433637  1.27197792  1.75617705
  H -1.18278804  1.86486034  0.49710306
  H -1.65559873  0.48395068  1.49815131
