12
opt_min/./Product_6460_1_opt.xyz
  C -0.05314300  0.24915700  0.12539500
  C  1.38986285 -0.00256787 -0.27122718
  H  1.68023689  0.62759091 -1.11134715
  H  1.51942238 -1.04531430 -0.54988925
  H  2.05215670  0.22242774  0.56411159
  C -0.86084807 -0.96181490  0.52968789
  H -1.07088331 -1.58932326 -0.33657117
  H -1.80640819 -0.65597380  0.97457327
  H -0.31160917 -1.55202074  1.26169245
  C -0.71772248  1.46110043 -0.31774555
  H -1.20479593  1.98636041 -1.10470506
  N -0.32235270  1.53870784  0.86853339
