17
opt_min/./Product_7841_0_opt.xyz
  C -2.64421000  0.23460100  0.39290800
  C -1.53811425 -0.53217328 -0.33028074
  C -0.20616345  0.17034379 -0.17734321
  H -0.06951218  1.02072723 -0.84541900
  O  0.27107379  0.38025393  1.12400930
  C  1.00098314 -0.50010566  0.31227172
  C  2.40416525 -0.06860166 -0.08008998
  O  3.25232366 -0.05626087  1.04601691
  H  3.45191710  0.84826446  1.30052517
  H  2.35940215  0.90902359 -0.56914976
  H  2.80864421 -0.79762826 -0.79225468
  H  0.91599620 -1.54831915  0.58708322
  H -1.76776903 -0.60831291 -1.39451595
  H -1.46494553 -1.54273681  0.07377735
  H -3.62169076 -0.07621834  0.03437681
  H -2.53562806  1.30293651  0.22355509
  H -2.59061981  0.05557815  1.46255079
