13
opt_min/./Product_6004_0_opt.xyz
  C -1.31460900 -0.81999000 -0.37484800
  N -0.38475603  0.29735798 -0.47952183
  H -0.41210030  0.72567254 -1.40615241
  C -0.17512458  1.20975253  0.66394305
  H -0.78838609  0.99681050  1.53886178
  H -0.14136796  2.27162439  0.42031693
  C  0.87076816  0.30675333  0.25374874
  C  2.05807764 -0.35537018  0.19421906
  O  2.36735124 -1.23311946 -0.61684082
  H  2.76168458 -0.01310981  0.98661960
  H -1.07240795 -1.55548215 -1.14136532
  H -2.34590094 -0.48359504 -0.49821752
  H -1.19319513 -1.29235028  0.59763669
