14
opt_min/./Product_5988_0_opt.xyz
  O  2.03097400 -0.51348800  0.87425300
  C  0.83933016 -0.46428251  0.23383862
  C  0.66042780  0.07463375 -0.97282592
  H  1.53351024  0.49678017 -1.46448161
  C -0.55875903  0.10844198 -1.76164080
  C -1.82357458  0.14626283 -1.34693116
  C -2.28779996  0.23145199  0.06936453
  H -1.50417951  0.61515927  0.71620388
  H -2.58723748 -0.75182339  0.43406808
  H -3.15494826  0.88625335  0.13806266
  H -2.60733173  0.14270226 -2.09040867
  H -0.37831873  0.13298767 -2.83088227
  H  0.06335504 -0.95476088  0.79933643
  H  2.70304332 -0.07048508  0.33869435
