15
opt_min/./Product_8844_0_opt.xyz
  C -1.19902036  1.40360233 -0.14304639
  C  1.39521898  2.00206143 -7.45803974
  C -5.67830049  4.07508438 -10.19937166
  C -3.32688541  10.40512200  1.39818141
  N  14.39212367 -1.85390538  7.99416520
  H  15.87795286  1.37202457  2.20395590
  H  9.79175501  6.51812812  19.10205965
  C  3.52297628 -0.96806182  0.19602869
  H -24.52803997  4.46385756 -16.50191578
  H -4.36918316  4.10443845  17.09571173
  N  5.49899092  1.35764845 -0.79910494
  H -9.51406785  4.09970581  11.11220632
  H -6.41081252  1.54862430 -2.33587303
  H  1.81934154  2.88061920  2.42700690
  H -7.72708181  9.01608408  3.00583129
