16
opt_min/./Product_11775_0_opt.xyz
  C -1.62904900  0.08419700 -1.55302800
  C -0.82980797 -0.20020259 -0.29912057
  C -1.61464760 -0.12108840  0.99538181
  H -2.17385793 -1.04215594  1.13754181
  H -2.31214780  0.71021501  0.95988538
  H -0.95038532  0.00935454  1.84559291
  C  0.59347526 -0.04132629 -0.29444454
  N  1.75735793  0.53468262 -0.26213862
  C  2.98360960  0.02310904 -0.46366078
  H  3.07740372 -1.04314749 -0.50566157
  H  3.81200209  0.60878408 -0.11625932
  H  1.71505862  1.54618780 -0.16738144
  O  0.08865811 -1.32347677 -0.39559165
  H -2.11569548  1.05135430 -1.47598163
  H -0.98026640  0.08249303 -2.42480319
  H -2.38731065 -0.68434433 -1.68424109
