13
opt_min/./Product_3332_0_opt.xyz
  C -1.28469200  0.47181200 -0.65160000
  H -1.08887264 -0.15460155 -1.50776925
  H -2.21019501  1.02362794 -0.69429696
  C -0.10132545  1.13634726  0.01827325
  H -0.20215796  2.16955531  0.31958512
  C -0.81736599 -0.02169899  0.68525323
  H -1.44416200  0.05751817  1.56310682
  N  0.10104928 -1.10820613  0.63118566
  H  0.06855329 -1.83428215  1.32608745
  C  1.29760742 -0.67797266  0.07663542
  C  1.23731810  0.59843372 -0.31661851
  H  2.02701857  1.18201737 -0.74499219
  H  2.06158158 -1.43099598  0.16767617
