12
opt_min/./Product_3813_0_opt.xyz
  C -1.91257900 -0.24033900  0.25401200
  C -0.44761016 -0.41681351  0.43145401
  N  0.40271209  0.41222987 -0.12740384
  C  1.74692185  0.41496268 -0.10390093
  C  2.48350659 -0.54836297  0.55390883
  N  3.13949627 -1.32887441  1.09784377
  H  2.26384437  1.19604402 -0.63363020
  H -0.01585668  1.17879279 -0.65144058
  H -0.04768241 -1.23506337  1.00561126
  H -2.44763889 -0.82385822  0.99784351
  H -2.20319641  0.80615679  0.35987496
  H -2.24193619 -0.57996946 -0.73344480
