11
opt_min/./Product_3346_0_opt.xyz
  C -1.46606500  0.09768400  0.09711500
  N -0.13037675  0.59146208 -0.10761549
  C  1.01331794 -0.13018593  0.03798130
  O  2.09813032  0.64733803 -0.19195007
  H  2.87635263  0.08390112 -0.08506228
  N  1.19319298 -1.34726166  0.32591715
  H  0.35349617 -1.89274890  0.46726619
  H -0.02784353  1.55819931 -0.36803782
  H -1.42575476 -0.83739158  0.65346526
  H -2.04688721  0.81546648  0.67831205
  H -1.98047950 -0.07954926 -0.85246014
