9
opt_min/./Product_5965_1_opt.xyz
  C  0.76668900 -0.91240800  0.27010100
  O  2.06041064 -0.95215543  0.09302576
  H  2.43076416 -0.28047534 -0.52817942
  N  0.15072376  0.04528755 -0.39072453
  C -1.28544309  0.17664683 -0.41335463
  H -1.67011790  0.02545748  0.59403007
  H -1.74067776 -0.56580227 -1.07239070
  H -1.55880389  1.17371066 -0.75395260
  H  0.67025014  0.64899299 -1.04730999
