13
opt_min/./Product_4985_0_opt.xyz
  C -1.05055300 -0.46581800 -0.33905000
  H -1.95794430 -0.91327627  0.06626832
  H -1.16905539 -0.34972542 -1.42124488
  C -0.82815721  0.96168632  0.22935152
  H -1.63963746  1.64139546 -0.03375415
  H -0.72440095  0.89834287  1.31938746
  O  0.33309352  1.51475599 -0.34807737
  C  1.42882689  0.70621450 -0.20092284
  H  2.37142626  1.19263247 -0.35041621
  N  1.30603047 -0.58893029  0.04211258
  H  2.15496573 -1.10109828  0.24597116
  C  0.14987984 -1.28916127 -0.02682012
  H  0.09159289 -2.15786436  0.60827747
