14
opt_min/./Product_5792_0_opt.xyz
  C  2.31775400  0.37246700  0.61296900
  C  1.13871065  0.77231774 -0.16103527
  C  0.18824583 -0.31722041 -0.37636147
  H  0.61561384 -1.32079200 -0.52491632
  C -0.84869306 -0.22799484  0.78120187
  H -0.65141693  0.56378646  1.50070543
  H -1.01771283 -1.17384594  1.28786775
  C -1.84171847  0.11762726 -0.32787243
  H -2.67907643 -0.57473466 -0.45295831
  H -2.21128341  1.14573338 -0.31486915
  O -0.85194050 -0.07094560 -1.33991185
  H  3.08692537  0.36284165 -0.16970369
  H  2.62007378  1.14285791  1.31963348
  H  2.30432264 -0.61772780  1.08949885
