12
opt_min/./Product_9760_0_opt.xyz
  O -1.20356598  1.52081501  0.34617000
  C -0.49795555  0.96391313 -0.44487480
  C -0.35545076 -0.53772066 -0.59932636
  C  0.68817436 -1.07454074  0.39369737
  N  0.28306079 -0.89130687  1.72021188
  C -0.04965388 -0.73956653  2.82301876
  H  1.64433170 -0.55988914  0.24665312
  H  0.83207766 -2.14725003  0.22284591
  H -1.32347345 -1.00188098 -0.40156163
  H -0.02442078 -0.76985178 -1.61023694
  O  0.29393177  1.61455391 -1.30998377
  H  0.21327071  2.57644796 -1.18676211
