8
opt_min/./Product_4641_0_opt.xyz
  C -0.38190001 -0.87020599 -0.08865106
  C -0.33339569  0.61736785  0.11332950
  O -1.25779494  1.32755313  0.38090349
  N  0.95584619  1.12054115  0.04096093
  C  2.04025275  1.55318626 -0.01227400
  H  0.38413628 -1.20885047 -0.77853773
  H -0.21077890 -1.35474978  0.86912796
  H -1.36677803 -1.15167302 -0.44404961
