11
opt_min/./Product_10441_0_opt.xyz
  C  2.01591700 -0.22131700  0.19947800
  N  0.81749719 -0.55460570  0.09208105
  C -0.22455300  0.43974237 -0.00466861
  C -1.57734652 -0.25707388 -0.16829462
  H -1.41366521 -1.30216941 -0.40877091
  H -2.16542567 -0.21079320  0.74237870
  H -2.15839356  0.18654319 -0.96883095
  H -0.21808525  1.06239998  0.89552212
  H -0.02649604  1.10680725 -0.84916323
  H  2.76465807 -0.99434804  0.26813638
  H  2.37986891  0.81644168  0.22765013
