10
opt_min/./Product_6490_0_opt.xyz
  C -1.49997095 -0.33827004  0.55155606
  C -7.76573066 -10.24924360 -9.71073273
  C -5.60625252  3.62253659  6.41539047
  N  5.42415730  4.37372125 -0.14822259
  H  2.35043280 -2.95007911 -1.04864987
  H  2.66574528 -3.42983098  1.41435623
  O -1.93915926  3.88395454 -12.12263255
  H -4.33619959  1.59770643 -6.33203001
  H -7.63129021  1.26538506 -12.24165226
  H  8.31349583  20.08444263  1.26575179
