15
opt_min/./Product_6407_0_opt.xyz
  C  0.35272300  1.80798300 -0.31832200
  C -0.14351117  0.46852432  0.22677747
  O -1.42975200  0.23625010 -0.35576590
  C -1.86064365 -1.02412497 -0.46025536
  N -1.25472894 -2.11036905 -0.33198451
  H -0.24490123 -2.01539999 -0.16977045
  H -2.92027099 -1.04043845 -0.70624208
  C  0.88785547 -0.57571884 -0.12208143
  N  1.71472351 -0.79357043  0.86542940
  H  2.49114305 -1.42168013  0.73289692
  H  1.65225786 -0.36703537  1.79526661
  H -0.29729952  0.55069679  1.32523236
  H  1.33728530  2.03536167  0.08441625
  H  0.41490459  1.74873660 -1.40212402
  H -0.34196260  2.59761574 -0.04484899
