10
opt_min/./Product_5919_0_opt.xyz
  O -0.00666400  1.13277600 -0.86359200
  C  0.18859343  0.31646101 -0.02215903
  C -0.56322510 -0.97826142  0.10899197
  O -1.38987922 -1.21102652 -0.98901966
  H -1.48128025 -0.38261266 -1.48107143
  H  0.13291323 -1.81407087  0.22503246
  H -1.15878371 -0.90506138  1.03682476
  O  1.13264085  0.44237790  1.00394711
  C  1.82280681  1.56290092  1.04664413
  H  2.50674869  1.44740237  1.90908767
