14
opt_min/./Product_6937_0_opt.xyz
  O -0.10843085 -0.44126151 -0.04696156
  C  0.72719400  0.46280114  0.60467114
  N  2.01806010  0.41878385  0.33763510
  C  2.70512058 -0.42537760 -0.42417914
  H  3.76644439 -0.32030720 -0.49287651
  H  2.18161810 -1.19531868 -0.94817356
  H  2.56307655  1.13556925  0.80655370
  H  0.29485672  1.25154990  1.18993490
  C -1.45320657 -0.38089869  0.35592887
  C -2.08695786  0.90998538  0.12703609
  C -2.58330130  1.98417785 -0.04776501
  H -3.04157618  2.91479850 -0.21209317
  H -1.55354086 -0.63468584  1.42401994
  H -1.97286106 -1.14077334 -0.23839711
