11
opt_min/./Product_10515_0_opt.xyz
  C  1.73641525 -2.25930958 -0.24697949
  C  1.52281548 -0.78856010 -0.58537701
  C  2.62936473  0.08529797 -0.04836681
  C  3.50139569  0.62956853 -0.82978908
  O  4.17486543  1.24780826 -1.55259445
  H  2.73192055  0.17266287  1.02009554
  H  1.47460009 -0.66193110 -1.66795725
  H  0.57436459 -0.45560981 -0.15660579
  H  2.70205476 -2.60371725 -0.60938866
  H  1.69733256 -2.41263041  0.82912759
  H  0.95790767 -2.85968618 -0.71128713
