15
opt_min/./Product_8705_0_opt.xyz
  C -1.65369987 -0.34565120 -1.12995891
  C -0.71890189  0.14791744 -0.05452017
  C -1.09205598  1.44501763  0.62094078
  H -1.74330438  2.03301806 -0.02197272
  H -1.62158853  1.24341102  1.55370553
  H -0.20353216  2.02881930  0.85390986
  C  0.34520059 -0.51381945  0.28493040
  C  1.44322545 -1.15112331  0.59986801
  C  2.66840277 -0.90001142 -0.05752583
  C  3.70982976 -0.68414890 -0.61509233
  H  4.61789525 -0.49101146 -1.10340178
  H  1.44784697 -1.89247361  1.39183676
  H -1.63370150 -1.43185576 -1.19626111
  H -1.34905350  0.06119033 -2.09560640
  H -2.67219613 -0.02110847 -0.92766115
