13
opt_min/./Product_1736_0_opt.xyz
  C  2.76277800 -0.13526800  0.07664200
  O  1.58740707  0.37858428 -0.06682448
  C  0.44469679 -0.19345337  0.10192352
  C -0.77949787  0.59106378 -0.08954107
  H -0.60261513  1.61004479 -0.41425269
  C -2.03840689 -0.08243182 -0.51045047
  H -2.73786357  0.44804200 -1.14140409
  H -2.01691526 -1.15476524 -0.66960869
  N -1.89968835  0.44608958  0.82561996
  H -1.75855870 -0.26293837  1.53952131
  H  0.38936262 -1.22848324  0.42295046
  H  2.90489319 -1.16152205  0.37597645
  H  3.59222287  0.51137131 -0.12423019
