15
opt_min/./Product_8649_0_opt.xyz
  C -0.05107900  1.44999400 -0.39293000
  C -0.02072133 -0.04100454 -0.13176656
  O  1.32556909 -0.53504431 -0.25304854
  C  2.18492826 -0.09357132  0.61438455
  H  3.14364669 -0.58990301  0.33383146
  C -0.75530614 -0.57652406  1.10345549
  H -0.13106283 -1.15453291  1.79136340
  H -1.33826367  0.16715137  1.65205169
  O -1.57297580 -1.41548696  0.28838882
  C -0.98017701 -0.93902066 -0.92367623
  H -1.70521929 -0.41471755 -1.55043924
  H -0.49737258 -1.74210880 -1.48605346
  H  0.63561675  1.93983410  0.29497763
  H  0.25441291  1.65009179 -1.41960948
  H -1.05620913  1.84175754 -0.25084104
