10
opt_min/./Product_2243_0_opt.xyz
  O -2.20422715 -0.49603883  0.72139928
  C -0.85089563 -0.58039178  0.55364073
  C -0.15791723  0.26728872 -0.22004223
  O -0.75934455  1.28957898 -0.91526710
  H -0.08215783  1.77131333 -1.40404379
  C  1.24506513  0.11703224 -0.34540558
  C  2.43651402  0.05362359 -0.48937441
  H  3.47730067 -0.01334615 -0.60625596
  H -0.31745370 -1.36276981  1.07467782
  H -2.49911357 -1.18572328  1.32385935
