8
opt_min/./Product_1672_0_opt.xyz
  O  1.71433400  1.10609700 -0.04205900
  O  0.30437135  1.14189892 -0.23072259
  C -0.27017020 -0.01983193  0.18028600
  C -1.57404372 -0.20419249  0.09628155
  H -2.22729179  0.55156772 -0.30161703
  H -2.02509044 -1.12104434  0.42144483
  H  0.42486379 -0.75321188  0.56665556
  H  1.99368497  1.96115206 -0.39580921
