9
opt_min/./Product_593_0_opt.xyz
  C -0.51411079 -0.95510599  0.34904835
  H -0.74277711 -1.99120839  0.52377455
  N -1.16639098  0.08718267  0.70485058
  C -0.18284931  0.97430122  0.06800940
  H -0.61194447  1.52046542 -0.77083157
  H  0.29644439  1.67771555  0.74335669
  C  0.62943691 -0.28194221 -0.34054544
  H  1.60114685 -0.39750404  0.13047527
  H  0.72118531 -0.45846370 -1.40918734
