16
opt_min/./Product_11578_1_opt.xyz
  C  1.86036700 -0.17490100  0.28501100
  C  0.60589555  0.68668869  0.19808879
  C -0.56811043 -0.01544792 -0.51509814
  C -1.11512470 -1.17612063  0.31257239
  H -0.37977037 -1.96913247  0.39666722
  H -1.36620278 -0.84887549  1.31818922
  H -2.00372657 -1.57348174 -0.16426149
  N -1.66931274  0.88325976 -0.82403519
  H -2.08792288  1.22216953  0.03691834
  H -1.33885048  1.69710029 -1.33033981
  H -0.21851758 -0.40668648 -1.47682716
  H  0.85361809  1.58870811 -0.36860941
  H  0.29492672  0.98826725  1.19731583
  H  1.66787416 -1.08457690  0.84686379
  H  2.19985257 -0.46388982 -0.70505411
  H  2.65894077  0.36318367  0.78236761
