9
opt_min/./Product_3711_0_opt.xyz
  C -1.01887600 -0.26136100 -0.48691500
  C -0.00095029  0.75124119 -0.08833092
  N  1.25322596  0.62616597 -0.10003025
  O  1.75252169 -0.60202828 -0.54340472
  H  2.71004746 -0.48667561 -0.49998374
  H -0.34037403  1.71409111  0.26430560
  H -1.38499766 -0.79017081  0.39158316
  H -1.87134086  0.20944394 -0.96932441
  H -0.57784916 -0.99163533 -1.15958042
