13
opt_min/./Product_5529_0_opt.xyz
  O  0.46563500  0.71050400  0.62567200
  C  1.14379246 -0.32549655  0.06489690
  C  2.46724422 -0.35692048  0.04653683
  H  2.99466703 -1.18946875 -0.37934390
  H  3.05143927  0.44292514  0.46037931
  H  0.56013990 -1.14136664 -0.34999853
  C -0.91650288  0.76233683  0.54513393
  H -1.25675046  1.63725055  1.08293685
  C -1.70209962  0.28983513 -0.61794148
  H -2.59933907  0.81994303 -0.89283485
  H -1.18366465 -0.17869456 -1.44393545
  N -1.77783223 -0.37750304  0.67325091
  H -1.29820820 -1.26909568  0.72505484
