12
opt_min/./Product_2632_0_opt.xyz
  C -1.76169900  0.24257500  0.10634900
  C -0.46758467  0.28639352 -0.66512764
  H -0.34460849  1.10000214 -1.37650535
  C  0.73462303 -0.34121883 -0.15557934
  O  1.16670429 -0.77915180  1.06203782
  C  2.12363745 -0.14907759  0.20352543
  H  2.87781457 -0.80945555 -0.20494973
  H  2.45716632  0.82999773  0.52802655
  O  0.04671400 -0.96834029 -1.14981193
  H -2.50003070 -0.33463769 -0.44808902
  H -2.13809594  1.25199426  0.24835193
  H -1.60933740 -0.22638535  1.07605478
