12
opt_min/./Product_9789_0_opt.xyz
  N  2.16043700  0.33658800  0.05434100
  C  0.83671237  0.09281340  0.31615278
  C -0.31413204  0.55573086 -0.17540480
  H -0.47039073  1.33024946 -0.89608813
  C -1.41686321 -0.26787304  0.45091574
  O -2.50025462  0.41993513  1.00326196
  H -2.99766364  0.84369179  0.29601830
  H -1.76883137 -1.00860842 -0.29815979
  C -0.66626819 -1.16120729  1.43151434
  O  0.58524672 -0.93124692  1.25042121
  H  2.36125193  1.23747124 -0.34978222
  H  2.77942952  0.07079980  0.80715363
