14
opt_min/./Product_1872_0_opt.xyz
  C -1.99286700 -0.70608500  0.18617100
  C -0.77585102  0.08651272  0.50412928
  C -0.49190523  1.44858958  1.02793728
  H -0.09832668  1.59702463  2.02691583
  H -1.14977320  2.23888514  0.68830017
  C  0.37003847  0.84287941 -0.05517192
  C  0.63932630 -0.43266938  0.67152025
  O  1.03042898 -1.57908092 -0.01668876
  H  0.79233763 -1.47911929 -0.94259403
  H  1.14291032 -0.40467695  1.63349526
  H  0.69119255  1.27484122 -0.98011340
  H -1.92061421 -1.16944522 -0.79801392
  H -2.06936556 -1.50286669  0.92518598
  H -2.89286033 -0.09614024  0.19794637
