15
opt_min/./Product_244_0_opt.xyz
  C -1.61651400  0.04149900  0.47651000
  C -0.48988283  0.04417935 -0.56645268
  H -0.92251494  0.30643859 -1.53815119
  C  0.68537165  0.93866846 -0.14823195
  H  1.08650083  1.48301757 -1.00004186
  H  0.38236597  1.65995295  0.60380368
  C  1.73296014 -0.07135722  0.38912728
  H  1.84942076 -0.03732228  1.47134296
  H  2.72205451  0.09870381 -0.03952110
  C  1.30976926 -1.43995763 -0.07610277
  N  0.13630864 -1.28191355 -0.60509385
  H -0.36418476 -2.06540597 -1.00260402
  H -1.21464998 -0.25108887  1.44096559
  H -2.39427169 -0.66651617  0.19686181
  H -2.06064705  1.02869499  0.54753401
