13
opt_min/./Product_9474_0_opt.xyz
  O  2.25236500  0.27871200  1.58505700
  C  2.02545345 -0.05610562  0.33126439
  C  0.64707832  0.42364474 -0.05547467
  C -0.14226945 -0.76220357 -0.61409281
  O -1.43190397 -0.39428390 -1.10733575
  C -2.33627584 -0.00469562 -0.23300052
  O -2.23026748  0.05347749  0.95643048
  H -3.25822065  0.27576517 -0.77236282
  H -0.25010787 -1.53810516  0.15042835
  H  0.38447438 -1.18100366 -1.47397201
  H  0.11679953  0.88787971  0.78151112
  H  0.78556717  1.15172969 -0.85888367
  H  3.13506900 -0.00792943  1.87269284
