10
opt_min/./Product_2116_1_opt.xyz
  O  2.60163700 -0.33546900 -0.18712600
  C  1.40617929 -0.30978835 -0.11130384
  N  0.62357673  0.81459405 -0.01275536
  H  0.99292787  1.74520741 -0.01333127
  C -0.76830419  0.48280088  0.07749823
  H -1.36711930  0.89085695 -0.74214395
  H -1.21595940  0.80125869  1.02534662
  C -0.65423573 -1.01274919  0.00722053
  H -1.48474128 -1.69480664  0.03527027
  N  0.53452629 -1.43069690 -0.08860588
