15
opt_min/./Product_6523_0_opt.xyz
  C  0.76578600 -0.60215900 -0.65308900
  H  1.16506873 -0.56936898 -1.66562867
  H  0.64905421 -1.65144296 -0.37393576
  C -0.54920905  0.15466985 -0.49327642
  H -0.80187673  0.76833398 -1.35607585
  C -1.70794330 -0.59657915  0.15967886
  H -1.65287178 -1.68813049  0.18024756
  H -2.69822278 -0.27654364 -0.18078892
  O -1.41420300 -0.02739724  1.43946175
  C -0.42937605  0.85939920  0.87918261
  H -0.75466744  1.90716952  0.97170092
  C  0.95567828  0.73769948  1.42510009
  C  1.71437460  0.06984212  0.36794902
  H  2.51842168 -0.57904118  0.71867827
  H  2.22075439  0.93939845 -0.08407851
