15
opt_min/./Product_7211_0_opt.xyz
  O  1.33055900 -0.63499400 -0.60619100
  C  1.54478603  0.61931868  0.05883959
  H  2.43937983  0.57770705  0.68285436
  H  1.62367328  1.44181778 -0.65370427
  C  0.21407311  0.50570947  0.80954953
  H  0.22244071  0.59896075  1.88691603
  C -0.98879734  1.03744831  0.01172051
  H -0.74280028  1.86870904 -0.64375149
  H -1.83931995  1.30723393  0.62957961
  C -1.13541702 -0.32094399 -0.70868451
  H -1.01625811 -0.30274665 -1.78751466
  H -2.03333181 -0.86893866 -0.44022018
  C  0.09196817 -0.84379376  0.07699070
  O  0.00408091 -2.05417558  0.71635116
  H  0.26495388 -2.75059077  0.10270309
