10
opt_min/./Product_4769_0_opt.xyz
  O -1.38960800  0.43971700 -0.35080500
  C -2.45696077  0.11772449  0.32146902
  H -3.24528111  0.80329130 -0.05168686
  C -0.23183941 -0.30484658 -0.06500802
  O  0.74571328  0.61579392  0.38770799
  C  1.95410288  0.12266254  0.60877349
  O  2.28720766 -1.01370094  0.46478980
  H  2.62021665  0.92634158  0.95634894
  H -0.43483352 -1.06568454  0.70539526
  H  0.11613617 -0.79314964 -0.98635384
