14
opt_min/./Product_4419_0_opt.xyz
  C  0.06480800  1.17251500 -0.63632300
  C -0.15298546  0.11630884  0.46526419
  O -0.95947847  0.69140315  1.48040377
  H -1.82042775  0.26514451  1.50431776
  C -0.76862948 -1.18040825 -0.11627555
  H -0.39010695 -2.04833934  0.42652627
  H -1.85272917 -1.16328556 -0.01126055
  H -0.51714008 -1.28754387 -1.16835895
  C  1.06676504 -0.48592902  1.14719787
  O  2.20018096 -0.39890804  0.57880879
  H  2.29329421  0.18095328 -0.21969824
  H  1.08226057  1.16512720 -1.03602887
  H -0.12131730  2.15583550 -0.21206825
  H -0.61383836  1.01391763 -1.47007960
