13
opt_min/./Product_2367_0_opt.xyz
  C  2.01329500 -0.22034400  0.30452800
  H  2.20078826 -1.24134673 -0.00185781
  H  2.88230418  0.41300334  0.22676877
  C  0.64821960  0.36689873  0.17898283
  C -0.50478181 -0.40100426 -0.45069341
  C -1.84071697  0.22905950 -0.08450928
  H -2.66512350 -0.36248206 -0.47154362
  H -1.93874926  0.28364633  0.99695920
  H -1.90854352  1.23589915 -0.48801345
  H -0.35471913 -0.39693794 -1.53445112
  H -0.47659835 -1.43717527 -0.11114199
  H  0.59015242  1.43265063 -0.00526797
  C  1.14758179 -0.07500818  1.50394206
