10
opt_min/./Product_5276_0_opt.xyz
  C -0.37191900  1.21015000  0.11558800
  H -0.86070023  2.17345493  0.11052043
  C  1.03428757  1.15234285 -0.17203491
  N  1.47938672 -0.10599605 -0.12497561
  H  2.46655647 -0.25565403 -0.31474216
  N  0.84259270 -1.24534618  0.13507296
  C -0.42752647 -1.15340351  0.39043678
  H -0.94759191 -2.07645120  0.60198732
  C -1.10247191  0.08317616  0.39386633
  H -2.16039812  0.13602889  0.60921094
