14
opt_min/./Product_7957_0_opt.xyz
  C -1.95041400 -0.36231700 -0.29584600
  C -0.99807637  0.80842096 -0.04878786
  C  0.41138234  0.34764467  0.11307211
  C  1.47848216  0.49516086 -0.71054187
  N  2.62999347  0.07831236 -0.58338338
  H  3.48051095  0.19771820 -1.08697477
  H  2.63912861 -0.70600025  0.83442580
  N  0.78278739 -0.36073359  1.19254693
  N  1.82436132 -0.85297532  1.53254293
  H -1.30894761  1.33663368  0.85579909
  H -1.04143118  1.50657112 -0.88604649
  H -1.67644697 -0.89183997 -1.20548653
  H -1.90498287 -1.05981130  0.53677319
  H -2.97212093 -0.00569344 -0.39706589
