11
opt_min/./Product_9475_1_opt.xyz
  O -0.40496400  1.45426000  0.46640200
  C -0.02101703  0.35798106 -0.31311288
  C  1.26944515 -0.28511479  0.21670238
  H  1.59511856 -1.08603780 -0.43991326
  H  2.04180769  0.47622266  0.26883645
  H  1.10834497 -0.68122924  1.21585266
  C -1.11335319 -0.68290932 -0.34770810
  O -2.14334493 -0.56640221  0.25717759
  H -0.88418003 -1.57239484 -0.96359403
  H  0.15302122  0.69932009 -1.34752862
  H -1.28507463  1.26073507  0.82834717
