11
opt_min/./Product_1564_0_opt.xyz
  C -1.58417700 -0.11440100  0.29812800
  C -0.07071519 -0.24893946  0.20847765
  O  0.50814944  1.02279269  0.58803925
  C  1.77269433  1.26784568  0.63814385
  O  2.62563449  0.34232256  0.32337446
  H  2.28865125 -0.56107531  0.12947361
  H  0.23975302 -0.48982817 -0.81605086
  H  0.28010752 -1.03236892  0.89363744
  H -1.99219935  0.30169505 -0.61863209
  H -1.83515640  0.55265460  1.11917769
  H -2.03918134 -1.08418160  0.48134044
