11
opt_min/./Product_1462_0_opt.xyz
  C  1.67602794 -0.28912715  0.49410011
  C  0.23592063 -0.44037496  0.65203017
  C -0.60013111  0.17522550 -0.44276639
  O -1.17864578 -0.96591148 -1.05658118
  H -1.74385021 -1.40896174 -0.41047654
  C -1.59448242  1.06114198  0.14397273
  N -2.38548643  1.73856253  0.61427187
  H -0.06371328  0.71972660 -1.23597305
  H  2.05449854  0.10334887 -0.45475524
  H  2.18047359 -1.21548815  0.77766788
  H  1.92476459  0.41964466  1.29481559
