11
opt_min/./Product_5702_0_opt.xyz
  C -1.09928500 -0.84498200  0.19535300
  C -0.36254813  0.37974164 -0.27006392
  O  0.93416696  0.51104236 -0.31576612
  C  1.86931610 -0.31377954 -0.00496614
  H  2.86795552  0.05889864 -0.13445553
  H  1.69541518 -1.30480379  0.38071032
  C -1.10800690  1.48145181 -0.69641500
  N -1.72278644  2.39759991 -1.03024131
  H -0.40545917 -1.62802521  0.48965700
  H -1.73874633 -1.23261214 -0.59800577
  H -1.73544045 -0.60210501  1.04703933
