11
opt_min/./Product_1478_0_opt.xyz
  C  1.56516169 -2.32480892 -3.52189524
  C  1.50816213 -1.18205668 -2.83472128
  C  0.82715059 -1.00280538 -1.61415098
  C -0.21406205 -0.61130832 -0.90534095
  O  0.63836432  0.41482704 -0.87304122
  N -1.34036869 -0.82838061 -0.24177387
  H -1.93932822 -1.57963209 -0.53729885
  H -1.75653983 -0.03641046  0.22084766
  H  1.87968605 -0.26038912 -3.26470840
  H  1.92636637 -2.33266542 -4.53382289
  H  1.12152796 -3.23415579 -3.15629623
