15
opt_min/./Product_4796_0_opt.xyz
  C -0.87355200  1.33812600  0.07838700
  N -0.59772682 -0.00604395 -0.40200453
  C -1.24491238 -1.10137572  0.28926339
  H -2.21545325 -0.77658965  0.65047430
  H -1.39502565 -1.91936038 -0.41327033
  H -0.66315591 -1.48405071  1.13678492
  C  0.76270097 -0.22875261 -0.74823855
  H  0.97903772  0.00585548 -1.78980544
  O  1.44407681 -1.33564116 -0.27277481
  C  1.87019559 -0.09632510  0.21578188
  H  2.84606465  0.23151690 -0.12138188
  H  1.66017909  0.09738086  1.26067386
  H  0.03736921  1.85961516  0.38034640
  H -1.34497707  1.92175055 -0.71647078
  H -1.55112572  1.32176432  0.92706448
