14
opt_min/./Product_7125_0_opt.xyz
  N  0.07721100  2.15212200 -0.19981100
  C  0.42054851  0.95279074 -0.13419947
  O  1.59872637  0.47005698  0.34339397
  C  1.57572854 -0.95475075  0.25631673
  H  2.42070006 -1.31332199 -0.34105241
  H  1.68278659 -1.39346505  1.25629622
  C  0.32457368 -1.43831150 -0.33217310
  C -0.45245981 -0.20887484 -0.59073985
  C -1.80680776 -0.26379606  0.14347297
  H -2.45817441 -0.99178539 -0.32430354
  H -2.25420226  0.72285117  0.10100627
  H -1.65813980 -0.53553251  1.18368019
  H -0.65668587 -0.12899521 -1.66071313
  H  0.76427487  2.81269199  0.14518587
