17
opt_min/./Product_9655_0_opt.xyz
  C -1.60264000  0.49835500  0.02340400
  C -0.40308997 -0.42172260  0.24377716
  O -0.75772757 -1.54669495  1.02292230
  H -1.51515445 -1.97956368  0.61562780
  C  0.22026780 -0.81510033 -1.12250966
  H -0.49097054 -0.89770728 -1.94601735
  H  0.69403948 -1.80131040 -1.03678379
  C  1.36990435  0.04590881 -1.42877419
  C  1.68997371  0.76289368 -0.18044540
  H  1.62669281  1.83471642 -0.38247269
  H  2.75224684  0.58533082  0.01152472
  C  0.76059731  0.30861233  0.95440128
  H  0.39760214  1.13910180  1.55208253
  H  1.25341258 -0.40500794  1.60775138
  H -2.41378616 -0.03709360 -0.46481801
  H -1.97005242  0.86952821  0.97570335
  H -1.30695382  1.33618331 -0.59944519
