11
opt_min/./Product_2842_0_opt.xyz
  C -1.34251388 -0.68337209 -0.37804875
  C -0.33473822  0.32482078  0.09600272
  N -0.85625235  1.60009501  0.26538818
  O -0.25404148  2.45214088  0.90471814
  C  0.96307511  0.07778916  0.19067515
  C  2.24717598 -0.03212650  0.19797075
  H  2.77800072 -0.39434921  1.06204952
  H  2.85578451  0.22173735 -0.65464937
  H -1.53337547 -0.53950085 -1.44105133
  H -2.27699797 -0.53986285  0.15681860
  H -0.98021285 -1.69346131 -0.21955834
