15
opt_min/./Product_2545_0_opt.xyz
  C  2.33283200 -0.12107200  0.21508800
  C  1.07683403 -0.00556104 -0.63731569
  N -0.10360657 -0.00149594  0.20647189
  C -1.33097639  0.12955149 -0.49267442
  H -1.31521270  0.77426640 -1.38042158
  O -2.10191761 -1.02327100 -0.65118866
  C -2.59918630 -0.04231949  0.21204430
  H -2.58190297 -0.29206623  1.26459277
  H -3.48479798  0.48202044 -0.12884194
  H -0.02259019  0.68500609  0.94709388
  H  1.13497249  0.90060646 -1.26786397
  H  0.99402507 -0.86851445 -1.30247332
  H  2.43723123  0.75046836  0.85479299
  H  2.27801097 -1.01031791  0.83303063
  H  3.20601152 -0.19140017 -0.42482698
