12
opt_min/./Product_1659_0_opt.xyz
  O  2.85690400  0.02877000  0.11219700
  N  1.74360287  0.89529185  0.22105228
  C  0.59853632  0.32085906  0.24185276
  C -0.75285765  1.00505393  0.34971481
  H -1.03196560  1.64046050 -0.48904459
  H -0.95075859  1.51737315  1.28970784
  N -1.39715400 -0.34932536  0.28693105
  H -1.93882980 -0.59732901  1.12581197
  H -2.01507383 -0.48434869 -0.52426871
  C -0.03766884 -0.92017369  0.18478310
  H  0.19381067 -1.95883798  0.11330422
  H  2.53621295 -0.88386642  0.07052920
