11
opt_min/./Product_4945_0_opt.xyz
  O -0.83750300 -1.15237700 -0.61174800
  C -0.39484666 -0.58482315  0.55987171
  C  0.44522888  0.75279456  0.25206869
  C  1.44252253 -0.10896478  0.81422797
  H  1.97033031 -0.65707599  0.01284839
  O  0.30745943  1.09615454 -1.10138659
  H  1.05969034  0.74586924 -1.59664240
  H  0.10069640  1.58456410  0.86300030
  H -1.19909438 -0.29891583  1.24559000
  H  0.22953487 -1.33166765  1.10690304
  H -0.95263657 -0.43208193 -1.26183429
