14
opt_min/./Product_9320_0_opt.xyz
  C -2.20747000  0.62407000  0.12011199
  O -1.07887585 -0.20644720  0.04735349
  C  0.12653819  0.51048084 -0.00708110
  C  1.29180116 -0.43901707 -0.09134829
  C  1.18012851 -1.76551072 -0.08470565
  H  0.20999526 -2.22387729 -0.01692203
  H  2.04614603 -2.40183078 -0.14770886
  C  2.56366595  0.17628211 -0.18142746
  N  3.59779929  0.66605402 -0.25134638
  H  0.14016072  1.18089961 -0.88467238
  H  0.24125923  1.14724516  0.88806532
  H -2.28153557  1.27511464 -0.75992465
  H -2.19054294  1.24973651  1.02028439
  H -3.07066591 -0.03697518  0.15359752
