10
opt_min/./Product_5054_0_opt.xyz
  C  1.78433200 -0.10314500  0.25884100
  O  0.39898118 -0.07548767  0.57445071
  C -0.43397367  0.05086336 -0.43962797
  C -1.83505583  0.09428647  0.09214611
  H -2.24286586  1.06266815 -0.18621799
  H -1.90484287 -0.04032317  1.17470513
  H -2.41052783 -0.67582046 -0.41537164
  H  2.31058821 -0.36358586  1.17381611
  H  1.99475436 -0.84296181 -0.51381535
  H  2.11363915  0.87579064 -0.09079399
