12
opt_min/./Product_1496_0_opt.xyz
  O  2.21145200  1.75430300  0.23124600
  C  1.59248553  0.78324069 -0.06505669
  C  1.39248721 -0.65604615  0.03607028
  H  1.03770126 -1.05377459  0.97627395
  H  2.04954132 -1.33422598 -0.49260112
  C  0.43531167  0.22618978 -0.78961110
  C -0.94860381  0.51768624 -0.34640887
  C -1.61504007 -0.14544201  0.57991446
  H -1.19894789 -0.99213180  1.10065430
  H -2.61839339  0.12481707  0.85962598
  H -1.40065968  1.35891844 -0.85532159
  H  0.53126711  0.16290157 -1.86960245
