12
opt_min/./Product_4248_0_opt.xyz
  C  1.21392000 -0.39015600  0.17146500
  H  2.17153177 -0.38788984 -0.34664291
  H  1.43501782 -0.65367268  1.21692748
  C  0.32344744 -1.50965023 -0.16550730
  C -1.03211567 -0.95167420 -0.16156407
  H -1.85242393 -1.61240547  0.10429578
  C -0.99856386  0.52116051  0.12772635
  H -1.76466499  1.00467606  0.71871241
  C  0.44595859  0.95893275  0.16512316
  H  0.67569976  1.47550242 -0.76965367
  H  0.69422491  1.61567653  0.99531248
  O -1.35445701  0.03112658 -1.11557326
