12
opt_min/./Product_2225_1_opt.xyz
  C -1.17728200 -0.37842000 -0.35296200
  H -1.79435302 -1.26266357 -0.35778868
  H -1.37944832  0.27207380 -1.18752392
  C  0.22598451 -0.48167532  0.15912541
  C  1.32833184  0.28203319 -0.53524480
  H  1.15186411  1.35187020 -0.48947147
  H  2.29039832  0.07656461 -0.07100696
  H  1.39663646 -0.00159195 -1.58289106
  H  0.53274010 -1.44848501  0.53174710
  C -0.81618565  0.23432824  0.96543300
  H -1.18621730 -0.21947774  1.86914653
  H -0.74695762  1.30882059  1.01516148
