14
opt_min/./Product_4972_0_opt.xyz
  O -1.34901100 -0.11185000  1.64645000
  C -1.39448058  0.30667108  0.30199129
  C -0.27115741 -0.40099436 -0.45706092
  C  1.06003486  0.34226052 -0.39065947
  O  1.53260193  0.41914969  0.96814349
  C  2.57311568 -0.13027148  1.39950416
  H  3.14024887 -0.70721796  0.62538840
  H  0.94564206  1.37442032 -0.73924796
  H  1.81429076 -0.16593004 -1.01054837
  H -0.14993343 -1.38226184  0.00907200
  H -0.54363211 -0.54093129 -1.50314824
  H -2.36491908  0.04112650 -0.14621621
  H -1.27711370  1.39862184  0.23321247
  H -2.00566503  0.37078945  2.15725402
