17
opt_min/./Product_10772_0_opt.xyz
  O  3.05646600 -0.19705000 -0.64528200
  C  1.68363120 -0.50823388 -0.67312988
  C  0.95113334 -0.02223765  0.57767651
  C -0.50158730 -0.50022425  0.65508927
  C -1.39905250  0.14047443 -0.38696142
  H -0.99900663  0.10712706 -1.39656794
  C -2.88559996  0.13833695 -0.20156393
  H -3.75868049 -0.46695221 -0.22404436
  C -2.30122273  1.28439828 -0.01256343
  H -2.37222240  2.31366133  0.24096113
  H -0.52361349 -1.58882875  0.54455108
  H -0.89246101 -0.25865001  1.64633013
  H  0.97217165  1.07123194  0.61063745
  H  1.49536952 -0.39833184  1.44714077
  H  1.63061833 -1.59907485 -0.73692804
  H  1.22110708 -0.09466046 -1.58137135
  H  3.15463655  0.74281805 -0.45354419
