14
opt_min/./Product_4132_0_opt.xyz
  C  1.69225300  1.11474900  0.04365500
  C  0.69969560 -0.01108593  0.08262566
  O -0.56757190  0.47532467  0.22412957
  C -1.65369235 -0.41235735  0.13623407
  O -2.82365364  0.31128139  0.23966503
  H -2.78435839  1.05517901 -0.37408321
  H -1.59487842 -0.96814284 -0.82112164
  H -1.65497182 -1.12772748  0.96924592
  C  1.03623655 -1.28962028 -0.02467508
  H  2.06379336 -1.57342171 -0.13913558
  H  0.31664442 -2.08676834  0.00236226
  H  1.75892874  1.51739325 -0.96603008
  H  1.36768562  1.91623445  0.70168228
  H  2.67286365  0.76732324  0.35025940
