11
opt_min/./Product_5886_0_opt.xyz
  C -1.85536500 -0.00043400  0.12417600
  N -0.42740398  0.00720118  0.02914954
  N  0.32621585 -0.86949622  0.64182941
  C  1.56370957 -0.55284166  0.29135183
  H  2.41661283 -1.09408812  0.64333124
  C  1.49664327  0.55511123 -0.56178472
  H  2.28873068  1.09171435 -1.04054815
  N  0.21976818  0.87854818 -0.70579221
  H -2.14570891 -0.40111404  1.09194626
  H -2.29164693 -0.61750940 -0.66283354
  H -2.21831765  1.01869938  0.02184153
