14
opt_min/./Product_2963_0_opt.xyz
  C -0.62687300 -0.89694300 -0.37510200
  H -0.19487460 -1.79679298  0.08299501
  H -1.06430908 -1.17070306 -1.34785338
  N  0.31778750  0.18204929 -0.54822733
  C  1.66363964 -0.10725060 -0.11470917
  H  2.29888706  0.73632196 -0.38497997
  H  1.75136019 -0.27755579  0.97166109
  H  2.02443506 -0.99275839 -0.63738357
  C -0.28454616  1.36565956  0.09575696
  H -0.50719420  2.12824929 -0.65651436
  H  0.38686866  1.81717946  0.83367018
  C -1.53858132  0.93219734  0.79882211
  N -1.67238031 -0.31946392  0.47617916
  H -2.34006197 -0.91771536  0.94179874
