14
opt_min/./Product_9400_0_opt.xyz
  O -1.04601537  1.67194414  0.10213460
  C -2.86795931  0.77826324 -5.91738813
  C -4.28753949  7.66929098 -0.27616468
  O -5.30151945  4.76561510  4.33977323
  H -11.58769382  7.14851651  19.80045828
  H -6.01380969  10.47622643  0.78966839
  H -2.57507901  13.81629578 -2.81159239
  C -2.89072667  3.84354037 -1.99174521
  N  3.75289231 -0.02081782 -9.57493566
  C  6.04115646 -2.55349867 -9.04019461
  H  0.04934880  12.17008679  5.91036710
  H  5.72308682 -0.19322440  14.79768159
  H -7.62610860  3.08330836 -37.18990394
  H  5.15519530 -4.29647963  0.97071703
