17
opt_min/./Product_9933_0_opt.xyz
  C  2.78752200 -0.16134700  0.61252800
  C  1.60616503 -0.56247771  0.17990495
  C  0.55603870  0.35032058 -0.36431855
  C -0.72766110  0.27317239  0.45882531
  H -0.50661327  0.45126711  1.50916840
  C -1.91246511  1.07796086 -0.10259325
  H -2.44776896  1.67784740  0.63791463
  H -1.70487625  1.69638124 -0.97733330
  O -2.62486290 -0.11767533 -0.42262221
  C -1.62894389 -0.94378537  0.18541121
  H -1.22578726 -1.68708788 -0.50549278
  H -2.01053412 -1.45560655  1.07165804
  H  0.91921757  1.37984007 -0.36065165
  H  0.32239902  0.07529624 -1.39616904
  H  1.35239193 -1.61354056  0.22381998
  H  3.06975251  0.87902092  0.58456957
  H  3.52127746 -0.84353798  1.00336025
