12
opt_min/./Product_3152_0_opt.xyz
  O  0.87608200 -1.66156200  0.41539900
  C  1.19041990 -0.37541829  0.18164244
  C  2.12359677  0.37792426 -0.33262028
  H  2.01590445  1.44672863 -0.33675981
  H  3.01324895 -0.04104213 -0.76928559
  C -0.06364328 -0.65681182  0.83108828
  C -1.35099343 -0.58088438  0.08683706
  C -1.83320055  0.55236232 -0.39162489
  H -1.31110101  1.48547804 -0.27059411
  H -2.77347962  0.58024576 -0.91388447
  H -1.87931340 -1.51367307 -0.04323283
  H -0.13244420 -0.54434131  1.91003339
