17
opt_min/./Product_6657_0_opt.xyz
  C -1.80006500 -1.13730200  0.42049300
  O -0.39796724 -1.08727877  0.54286422
  C  0.22440827 -0.10598314 -0.25124723
  C -0.08350597  1.33394960  0.22064032
  O -1.33251016  1.82889399 -0.21057814
  H -1.35625190  1.80586123 -1.17331133
  H -0.11777965  1.34334371  1.31263075
  H  0.71933863  2.00229586 -0.11699031
  C  1.71006725 -0.33311236 -0.25630650
  C  2.33162913 -1.21358655  0.50361298
  H  3.39943249 -1.34436865  0.46585651
  H  1.77818008 -1.83689540  1.18259878
  H  2.25452830  0.29704600 -0.94706176
  H -0.14019568 -0.20420620 -1.30093375
  H -2.09066604 -1.30975986 -0.62581128
  H -2.13212204 -1.97203266  1.03197703
  H -2.26939840 -0.21265678  0.77086799
