17
opt_min/./Product_8044_0_opt.xyz
  C -1.25831900  1.05126400 -0.28821000
  C -0.23578616 -0.03888904  0.01186666
  C -0.90407705 -1.31325317  0.48868873
  H -1.37641990 -1.15760455  1.45715404
  H -1.67403330 -1.62575096 -0.21394795
  H -0.17544758 -2.11447067  0.59536586
  C  0.78517745 -0.22766516 -1.14788761
  H  0.61894683  0.42908948 -1.99824298
  H  0.88462850 -1.24229845 -1.52725038
  C  1.87915706  0.22199797 -0.21354970
  O  3.06442338  0.34615737 -0.33473890
  C  0.92030984  0.44108604  0.92765242
  H  0.85099195  1.47281302  1.26886639
  H  1.11944800 -0.17145298  1.80525004
  H -1.85873868  1.27753927  0.58684525
  H -1.90409811  0.75786858 -1.11245914
  H -0.73649910  1.95825047 -0.59799466
