11
opt_min/./Product_5114_0_opt.xyz
  C  1.86703100  0.33873300  0.31402600
  C  1.19299234 -0.74121658 -0.04183784
  O -0.15215994 -0.90931866 -0.09665856
  C -0.96984983  0.18642818  0.23956781
  O -2.28383517 -0.14359693 -0.01834995
  H -2.46687875 -1.00384335  0.37920297
  H -0.72988442  1.05843428 -0.38586879
  H -0.81586720  0.45011943  1.30422383
  H  1.67214536 -1.66345317 -0.33821099
  H  2.94068919  0.32562346  0.30654089
  H  1.40379292  1.26119451  0.61254120
