17
opt_min/./Product_9932_0_opt.xyz
  C  2.06466400  0.39145100 -0.37202500
  C  1.13412413 -0.82674307 -0.37513521
  C -0.24367246 -0.60647665  0.23421705
  H -0.59645526 -1.45059233  0.82056000
  C -1.29461584  0.09035267 -0.59767634
  H -1.18016574  0.36537843 -1.62887433
  C -0.76410071  0.73752606  0.64946839
  H -0.20723082  1.65017688  0.78466503
  O -2.00122894  0.57321991  1.32813955
  C -2.60738864 -0.00095853  0.15590387
  H -3.03921906 -0.98578079  0.34677801
  H -3.37871040  0.67740742 -0.22062774
  H  1.00982206 -1.18854709 -1.40050262
  H  1.61147425 -1.62051949  0.20561757
  H  1.88474667  1.01200138  0.49974179
  H  3.10347830  0.06144747 -0.34484094
  H  1.91359384  0.99086155 -1.26582808
