14
opt_min/./Product_4899_0_opt.xyz
  C  1.90054200  0.06137900  0.16337600
  C  0.55883097 -0.55654633 -0.25042734
  C -0.61499992  0.36045263  0.02951523
  C -2.00127962 -0.24394107 -0.07593758
  H -1.95420378 -1.23106064 -0.52836001
  H -2.63988228  0.38256600 -0.69385210
  H -2.45231585 -0.32748121  0.91039433
  C -0.41811298  1.61084730  0.79345862
  O -0.50752620  1.70029550 -0.47948242
  H  0.55023262 -0.80186540 -1.31551371
  H  0.38617953 -1.47908231  0.30352190
  H  2.55762628  0.20419785 -0.69121423
  H  1.75622486  1.03208411  0.63453070
  H  2.41969869 -0.57211730  0.87497930
