9
opt_min/./Product_183_0_opt.xyz
  C -1.00996700  0.04993000 -0.00142800
  H -1.61213184 -0.15036320  0.88929262
  H -1.60648722  0.64566258 -0.69792239
  O -0.69625788 -1.20142703 -0.62868393
  C  0.57191291 -1.41952320 -0.73145627
  C  1.25293142 -0.24981509 -0.14182156
  H  2.31997973 -0.14800928 -0.08524413
  C  0.32983614  0.61846587  0.29034404
  H  0.46825860  1.57022698  0.76750594
