13
opt_min/./Product_8521_0_opt.xyz
  O  0.65059700  2.08298000 -0.02828600
  C  0.65870620  0.87539707 -0.01870135
  C  1.89300842 -0.02598526 -0.01933981
  H  2.50963759  0.14081007  0.86595943
  H  2.50808853  0.13347582 -0.90748921
  O  1.41212872 -1.36133626 -0.00879979
  C  0.07401263 -1.30223209  0.00311633
  H -0.44593584 -2.24506652  0.01553830
  C -0.45978601 -0.06324597 -0.00086031
  C -1.89302639  0.33801102  0.01186360
  H -2.13647941  0.87949378 -0.89894649
  H -2.53110758 -0.53715102  0.08857360
  H -2.07564983  0.99889623  0.85376155
