16
opt_min/./Product_9587_0_opt.xyz
  C -1.33491896 -0.91507376 -0.49510161
  N -0.51350841 -0.18138050  0.47543022
  H -0.49485638 -0.72026407  1.34957712
  C  0.81240798  0.27585797  0.00157535
  C  1.89717069 -0.65664199 -0.39182044
  H  2.75176207 -0.05600841 -0.69343641
  H  1.61878349 -1.29323439 -1.23820114
  H  2.20873895 -1.30535572  0.43400724
  C  0.56068152  1.61423770  0.13211216
  O  1.08064590  2.70335812 -0.03184898
  C -0.88572076  1.25088746  0.68329973
  H -1.05045419  1.48866735  1.73373984
  H -1.74834112  1.55298645  0.09331552
  H -2.35656139 -1.02291035 -0.12923759
  H -0.90380691 -1.89971728 -0.66880192
  H -1.33835545 -0.36096441 -1.43248258
