14
opt_min/./Product_2965_0_opt.xyz
  C  0.83085400 -1.49881800  0.54045300
  N  0.08474520 -0.33666641  0.12422363
  C -1.18839230 -0.06218876  0.74468636
  H -1.96918998  0.02102772 -0.01540351
  H -1.44871797 -0.87434199  1.41796451
  H -1.16021168  0.86927512  1.31397509
  C  0.62091343  0.51097285 -0.76527292
  C  0.05622891  1.72353407 -1.23409983
  N  0.59641858  2.44755511 -2.11285386
  H -0.94888475  1.97384200 -0.83719077
  H  1.58495897  0.23708978 -1.16897664
  H  1.55757425 -1.24932394  1.31759110
  H  1.36292905 -1.92803402 -0.30762563
  H  0.14763921 -2.25171012  0.93007018
