16
opt_min/./Product_4634_0_opt.xyz
  C  1.24617500 -0.10402700 -0.33352600
  H  1.22006908 -0.26639241 -1.41274438
  H  2.27252667 -0.27599571 -0.00231924
  C  0.29105854 -1.09428417  0.32482016
  H  0.59671562 -2.11621478  0.08905814
  H  0.30215453 -0.95212469  1.40940828
  C -1.12178146 -0.85529458 -0.20229213
  H -1.11636345 -1.00335881 -1.28435291
  H -1.82249757 -1.57960174  0.21892064
  C -1.57119764  0.57568008  0.11380143
  H -2.50019499  0.82766234 -0.40647404
  H -1.80942240  0.66255100  1.18238827
  C -0.61452280  1.68478340 -0.02703428
  C  0.81382940  1.33565085 -0.02827849
  H  1.36720994  2.05858059 -0.63467285
  H  1.06155354  1.58904698  1.01085649
