11
opt_min/./Product_8084_1_opt.xyz
  C  1.32567600  0.48789600 -0.01668300
  O  1.48344846  1.65998240  0.17363651
  C  0.11039835 -0.31112929  0.42050091
  C -1.15562322  0.31113219 -0.18423307
  H -1.30574094  1.30699805  0.21777648
  H -2.01448612 -0.30677244  0.06137293
  H -1.06847403  0.38401804 -1.26673533
  O  0.24417941 -1.67820799  0.11797923
  H  0.15121678 -1.79914846 -0.83450184
  H  0.05624520 -0.26029699  1.51325493
  H  2.08107551 -0.11367602 -0.56668092
