9
opt_min/./Product_2212_0_opt.xyz
  N  2.19971200  0.26868800 -0.00566500
  C  0.95836904  0.08786327  0.00332152
  N  0.19407455 -1.05379154  0.21315114
  C -1.02992534 -0.68252716  0.11304233
  H -1.88600199 -1.32257850  0.22142524
  N -1.16522489  0.62669353 -0.14948437
  H -1.94602004  1.24245411 -0.28847980
  O  0.11041828  1.16896231 -0.22939714
  H  2.71793381 -0.58345884  0.17451911
