14
opt_min/./Product_10983_0_opt.xyz
  O  2.59934600 -0.65897300 -0.18317900
  C  1.47975494 -0.97538664  0.11054826
  C  0.41472568 -0.00319730  0.52904653
  C  0.63797427  1.40785197  0.74758529
  H  1.55935387  1.70401711  0.21828973
  C -0.43301392  0.50626252 -0.70963579
  H -0.04243540  0.12744056 -1.65736928
  H -0.51753272  1.61062087 -0.76513435
  N -1.58232284 -0.21062153 -0.20289902
  H -2.41973947  0.34852881 -0.08640802
  C -0.90895390 -0.57734169  1.05190234
  H -0.91793895 -1.65371477  1.23116558
  H -1.27960959 -0.04497572  1.93058908
  H  1.15139696 -2.03077547  0.10989192
