13
opt_min/./Product_6840_0_opt.xyz
  N -1.27755400  2.06064000  0.24332800
  C -0.60223764  0.99108048  0.12337687
  C -1.27457543 -0.37115172  0.17753155
  H -1.81155249 -0.51325973  1.11870511
  H -1.99107948 -0.47389537 -0.64310055
  N -0.17172263 -1.28982192  0.04912817
  H -0.25985889 -2.28600095 -0.02423498
  C  0.98316751 -0.60818088 -0.12059121
  O  2.11031650 -1.32553868 -0.29504753
  H  2.86294599 -0.72845511 -0.38223831
  C  0.79964447  0.73671333 -0.07709222
  H  1.55646215  1.49221005 -0.16101412
  H -0.71228118  2.90560543  0.18567327
