10
opt_min/./Product_11268_0_opt.xyz
  O  3.14200794 -0.40928942 -0.00518632
  C -1.17309164  0.32416651  14.46729806
  C  13.89535065 -6.01127367 -26.65068232
  N -3.88610632 -11.99379606  5.09294849
  C -1.93186377 -3.49884403  13.72660741
  H  13.70074048  3.06690418 -31.75408770
  C -11.10386232 -8.68734141  8.77811355
  H -15.77216399  17.48583337  27.47682885
  O  5.31316440 -23.67824750 -2.47647646
  H  2.85854793  5.88250044 -0.59794051
