14
opt_min/./Product_10148_0_opt.xyz
  O  1.68778834 -0.96308886 -0.58664212
  C  1.33284262  0.16287229  0.14887204
  H  1.96792792  1.03482299 -0.09054160
  C -0.17998576  0.57994529  0.26551291
  C -1.14649935 -0.38990424 -0.31151281
  C -2.30906882 -0.05670277 -0.83916883
  H -2.63716867  0.96864230 -0.89575590
  H -2.98925162 -0.79160493 -1.23435381
  H -0.83179924 -1.42489586 -0.24976111
  H -0.40945815  1.61658319  0.00570995
  N -0.02755509  0.41546205  1.73539200
  C  1.16939980 -0.00697609  1.62783099
  H  1.82309229 -0.34957854  2.41309610
  H  1.52575390 -0.79744911 -1.52279030
