14
opt_min/./Product_6944_0_opt.xyz
  O  0.54550887  0.76442566  0.86828636
  C  0.60633847 -0.59849027  0.48407450
  C  1.73046242 -0.85822509 -0.41546965
  C  2.65370173 -1.04056467 -1.15375710
  H  3.46317510 -1.22456087 -1.79543609
  H  0.75968919 -1.19129180  1.40900316
  N -0.64987840 -0.89775095 -0.19696629
  H -0.99244594 -1.82884500 -0.00202582
  C -1.57368149  0.16712719  0.14288765
  H -2.10146327  0.00249130  1.09556104
  H -2.30392811  0.30247922 -0.65472818
  C -0.59844259  1.33604001  0.26805721
  H -0.34856275  1.73639599 -0.72298685
  H -0.94885910  2.14056622  0.91416509
