16
opt_min/./Product_5403_0_opt.xyz
  C  0.04128400  1.53943300 -0.77392800
  C  0.44713569  0.04715150 -0.62525153
  O  1.77358802 -0.00863759 -0.15119154
  C  2.18043635 -1.31385333  0.16039701
  H  3.22054531 -1.24931782  0.47709979
  H  1.57768776 -1.73633700  0.97337996
  H  2.10896390 -1.97426615 -0.71488793
  C -0.61971079 -0.12632771  0.36659565
  C -1.90846645 -0.53369831 -0.23264768
  H -2.74748565 -0.02914513  0.24781787
  H -1.97256334 -1.58513425  0.07064181
  H -2.00169757 -0.47348459 -1.32012095
  H  0.37273595 -0.49189434 -1.58948609
  H -0.51595761  1.85292611  0.11985104
  H -0.57071871  1.69026454 -1.65686897
  H  0.95380816  2.12546100 -0.81292422
