16
opt_min/./Product_9230_0_opt.xyz
  C  2.61350500  0.41389500 -0.82273500
  O  1.23064682  0.59806193 -0.98166466
  C  0.41226467 -0.07357905 -0.03829841
  H  1.03922200 -0.63407563  0.66718529
  C -0.71003850  0.72241404  0.54563325
  H -0.77427044  1.53425771  1.23414786
  N -1.67306896 -0.02672673  0.00716085
  C -2.97472386 -0.08101723  0.04521682
  H -3.48627967 -0.83168612 -0.52227000
  H -3.51844970  0.65013089  0.60864131
  C -0.73021530 -0.91074197 -0.67591017
  H -0.81416373 -1.94475740 -0.34309220
  H -0.77819398 -0.84075467 -1.76014894
  H  3.08919758  0.97224458 -1.62666413
  H  2.89236951 -0.64337023 -0.90306960
  H  2.96508431  0.80565200  0.13844663
