14
opt_min/./Product_4172_0_opt.xyz
  C -1.31938400 -0.36131900  0.33433200
  C -0.45708450 -0.24538188 -0.93861768
  O  0.68769808  0.54974553 -0.78566596
  C  1.60141990  0.13154167  0.21454763
  C  2.85545507  0.80206984  0.35584016
  H  2.89320500  1.72280754 -0.24669057
  H  1.72430530 -0.96565714  0.19853054
  H  1.19116293  0.33745674  1.23049624
  H -0.20050452 -1.26101667 -1.27458367
  H -1.02391219  0.26691144 -1.72314879
  O -1.50889560  0.87134372  0.97283066
  H -1.87897112  1.49858246  0.33760268
  H -0.82322475 -0.99321953  1.07567240
  H -2.26885023 -0.83442310  0.05379307
