12
opt_min/./Product_552_0_opt.xyz
  C -1.56593900  0.70234600  0.46593600
  H -1.62208268  1.75606262  0.22998518
  H -1.99084019  0.45390893  1.42801561
  C -1.67976073 -0.29614567 -0.66040564
  H -2.18141436 -1.23407108 -0.46922704
  H -1.81022451  0.07763587 -1.66619771
  C -0.38875734 -0.05686176  0.00639007
  C  0.85094313 -0.34122865  0.13759064
  C  2.12311653 -0.57650728  0.30793352
  O  3.14966653  0.06670503 -0.33112564
  H  2.79848761  0.73815720 -0.92591688
  H  2.49507561 -1.34414402  0.97108505
