18
opt_min/./Product_7525_0_opt.xyz
  C  1.31821902 -0.15281997  1.55308198
  C  0.28078039 -0.84902485  0.68047132
  C -0.46583719  0.09908853 -0.27887696
  C -1.51904224 -0.67091985 -1.07871391
  H -1.02672831 -1.38087878 -1.73960211
  H -2.18114447 -1.22017833 -0.41396719
  H -2.11422075  0.01856694 -1.67098391
  C  0.50269346  0.83084655 -1.22275385
  H  1.25693525  0.13219464 -1.57455352
  H -0.04627857  1.22509179 -2.07263540
  H  0.99615824  1.64999877 -0.70982606
  N -1.14238640  1.06668042  0.49898255
  C -1.69239458  1.86684449  1.13781597
  H  0.75736468 -1.62290509  0.07453153
  H -0.45457107 -1.33630616  1.32392808
  H  2.08958948  0.32184603  0.95835323
  H  1.77838794 -0.87784322  2.21866209
  H  0.83097096  0.60197917  2.16928291
