16
opt_min/./Product_6832_0_opt.xyz
  C  1.70068200 -0.10725500  0.31515000
  C  0.27792335  0.26724018  0.62627160
  H  0.09577282  0.33447507  1.69746452
  C -0.37222590  1.37936739 -0.17429705
  H  0.27007502  1.78656840 -0.95437181
  H -0.75956523  2.19474863  0.43519014
  C -1.43672325  0.42489803 -0.69327207
  H -1.43130768  0.25527176 -1.76649464
  H -2.44448318  0.59350829 -0.32372760
  C -0.79778871 -0.85431076  0.00726459
  N -1.38974941 -1.42795218  1.00393690
  O -0.17976382 -1.64275184 -0.97488946
  H -0.23571196 -2.56624267 -0.69842233
  H  1.89569610 -1.15032405  0.55987544
  H  1.92033554  0.04343191 -0.73986758
  H  2.36417010  0.51520215  0.91715886
