12
opt_min/./Product_1417_0_opt.xyz
  C -1.78319100  0.03423500  0.07848400
  C -0.31483322  0.25454121 -0.08305528
  O  0.01837517  1.41926201 -0.60033629
  H  1.01944225  1.46264815 -0.63934462
  C  0.62334419 -0.66819212  0.28586520
  C  2.01401878 -0.38790487  0.12486114
  O  2.46706129  0.65581255 -0.33947770
  H  2.69949797 -1.18479766  0.45471057
  H  0.32655965 -1.61277306  0.70509236
  H -2.32459086  0.70572304 -0.58242187
  H -2.04673919 -0.99822848 -0.13278641
  H -2.07231790  0.25598278  1.10580234
