11
opt_min/./Product_5087_0_opt.xyz
  N  1.17838700  3.28796700 -0.15703999
  C  0.69155664  2.27017000  0.05058028
  C  0.10048316  1.01907360  0.29656008
  C  0.47929115 -0.08730415 -0.34320266
  C -0.12013197 -1.43975810 -0.12032078
  O -1.21082469 -1.45855706  0.76273692
  H -1.93791997 -0.96414294  0.36821268
  H  0.63540144 -2.09552572  0.32317942
  H -0.38835217 -1.87268904 -1.09746294
  H  1.27184081 -0.05399889 -1.07830773
  H -0.67561103  0.99978998  1.05071133
