15
opt_min/./Product_7682_0_opt.xyz
  C  1.67488400  0.04572500  0.48788000
  C  0.67895767 -0.05169711 -0.67071234
  H  1.11258504  0.41374776 -1.55782732
  C  0.41133120 -1.51615889 -0.89237169
  O -0.73815120 -1.81172121 -0.43432303
  C -1.47730701 -0.70942711  0.14197100
  H -1.43898606 -0.79901857  1.22962870
  H -2.51201410 -0.76896469 -0.19306233
  C -0.70964507  0.54872939 -0.32385086
  O -0.63622697  1.55124093  0.65408177
  H -1.40575149  2.12597508  0.60250765
  H -1.16283972  0.93839480 -1.24356683
  H  1.32164799 -0.52032908  1.34608939
  H  1.79062189  1.08367581  0.78698348
  H  2.63444630 -0.35589250  0.17766846
