16
opt_min/./Product_10013_0_opt.xyz
  C  0.91423500  1.04780500  0.15247200
  H  1.81187637  1.47386144 -0.30075924
  H  0.78252230  1.46425113  1.16182426
  O -0.15984819  1.41126192 -0.67403616
  C -1.36650222  0.86641992 -0.18308042
  H -1.58113521  1.28470995  0.81122132
  H -2.14913455  1.16688873 -0.88151271
  C -1.28870536 -0.65697516 -0.09706372
  H -2.21011144 -1.04901113  0.33821518
  H -1.14173883 -1.06979067 -1.10224508
  N -0.18041255 -1.00325154  0.79139074
  H -0.11868460 -2.00715881  0.90449196
  C  1.06473311 -0.48056619  0.29854401
  O  1.40339616 -1.11762812 -0.92168216
  H  2.23164745 -0.76838168 -1.25964238
  H  1.83986647 -0.68750095  1.06020281
