19
opt_min/./Product_6732_0_opt.xyz
  C -1.29317400 -1.05903300 -0.30854700
  C -0.90829118  0.19293048  0.47130499
  C  0.57492035  0.19000823  0.87036907
  C  1.57207774  0.30283788 -0.27812896
  O  1.62780652 -0.92081019 -1.04191623
  C  2.66549370 -1.59660704 -1.24307020
  H  3.57899997 -1.15902319 -0.75334997
  H  1.28679684  1.08628879 -0.98350866
  H  2.57579970  0.51418157  0.11381883
  H  0.79633851 -0.72807536  1.42045599
  H  0.76089971  1.03235945  1.54107937
  C -1.28851947  1.45159723 -0.30508620
  H -0.88463423  1.42099164 -1.31369933
  H -2.36940268  1.54604796 -0.37295539
  H -0.91073359  2.34042546  0.19993788
  H -1.47364953  0.19242021  1.41161186
  H -0.78187784 -1.09504614 -1.26740698
  H -1.02090857 -1.95303421  0.24923883
  H -2.36532753 -1.07998729 -0.49012434
