12
opt_min/./Product_4259_0_opt.xyz
  O -2.16629100  0.61329400  0.05145000
  C -1.26477944 -0.16812119 -0.69970515
  C  0.17034244  0.22992629 -0.49570781
  O  0.58894791  1.28657657 -1.24818966
  H  1.50540631  1.47866697 -1.00885775
  C  0.97282408 -0.37311367  0.38176434
  O  2.27276811  0.08083003  0.55324021
  H  2.74711213 -0.51271084  1.13882915
  H  0.64979809 -1.20951166  0.97925780
  H -1.53354055 -0.00797768 -1.74614872
  H -1.38326861 -1.23231967 -0.44607233
  H -1.85425768  0.66739799  0.96159871
