12
opt_min/./Product_3624_0_opt.xyz
  C  2.45166582  1.57406727  1.45115607
  C  1.48133894  0.97377563  1.09176585
  C  0.28842753  0.27500780  0.65571123
  C  0.60633871 -0.82809719 -0.32463386
  O -0.34586963 -1.35475461 -0.96925223
  C -1.74778611 -1.00449187 -0.86185134
  H -1.92181210 -0.05094295 -1.36246282
  H -2.28224097 -1.80042482 -1.37494413
  H -2.06070328 -0.94011892  0.17945549
  H -0.16970294 -0.21189855  1.53010498
  H -0.43969987  0.99776306  0.26409842
  H  3.30580255  2.10459003  1.75038202
