11
opt_min/./Product_1397_0_opt.xyz
  O  2.36041789  0.34184984  0.92742134
  C  1.38788454 -0.47487110  0.89065685
  C  0.60541306 -0.51691822 -0.38726436
  C -0.90357032 -0.50036049 -0.10385952
  C -1.31051252  0.82526618  0.28778246
  N -1.60427863  1.89777109  0.55214474
  H -1.47245037 -0.78197968 -0.99413143
  H -1.12945421 -1.19790372  0.70537618
  H  0.86310210 -1.48125470 -0.84108850
  H  0.87633587  0.28550161 -1.09846438
  H  2.51988469  0.91357815  0.13125410
