12
opt_min/./Product_880_0_opt.xyz
  C  2.13715800  0.63776800 -0.28000700
  C  1.11814013 -0.24003931  0.26302769
  N -0.13843311  0.41012500  0.54777191
  C -1.04543134  0.66357556 -0.54045322
  H -1.54282399  1.62414073 -0.50928375
  H -0.77232710  0.32523457 -1.53534854
  C -1.35388300 -0.35642799  0.48735351
  H -2.07840243 -0.13612415  1.25943488
  H -1.29755104 -1.40251906  0.19580512
  H  1.58456798 -0.46382277  1.24397109
  H  0.98479900 -1.21681966 -0.24513677
  H  3.02076788  0.03435635 -0.55300063
