15
opt_min/./Product_5000_0_opt.xyz
  C -1.72147100 -0.01114400  0.16226600
  C -0.21655584 -0.05374244  0.16826295
  C  0.75418463  1.13350137  0.34118205
  H  0.77805303  1.91848201 -0.42152980
  H  0.87147134  1.52561145  1.34757973
  N  1.63714553 -0.01074295  0.04944564
  H  2.65287666  0.03500202 -0.04101951
  C  0.70740582 -0.45664230 -0.99927724
  H  0.72525750  0.13876523 -1.92051034
  H  0.78363023 -1.52106808 -1.22459389
  C  0.77608716 -0.79457318  1.14208592
  H  0.82871564 -1.87311727  0.85034027
  H -2.10133285  0.08798062 -0.85367114
  H -2.11057211 -0.92643421  0.60309042
  H -2.06430534  0.83421711  0.75406801
