12
opt_min/./Product_11539_1_opt.xyz
  C  0.62860200  0.80582700 -0.00512900
  C  1.52006034 -0.37077695 -0.23647343
  H  1.79407593 -0.42004323 -1.28828991
  H  1.04393330 -1.30712727  0.03722959
  H  2.43927196 -0.26643240  0.33408349
  C -0.68513858  0.77680938  0.15954879
  C -1.53164539 -0.46157988  0.15717164
  H -1.63667362 -0.84472260 -0.85606497
  H -1.08661263 -1.23977973  0.76939748
  H -2.52573769 -0.24932653  0.54021180
  H -1.21414159  1.70774696  0.29754319
  H  1.13062880  1.76570894  0.00418479
