11
opt_min/./Product_906_0_opt.xyz
  N  2.09657200  0.64090700 -0.08595500
  C  1.11904685 -0.14555333  0.32288453
  N  0.72261759 -1.27596051  0.70790442
  C -0.30381944 -0.16842200  0.67889341
  C -1.31713898 -0.17353513 -0.37370474
  N -2.39437468  0.46176996 -0.22930519
  H -3.04033283  0.40051080 -1.01230470
  H -1.04117592 -0.75922291 -1.26564969
  H -0.62070992  0.24917431  1.62763848
  H  3.00907140  0.26381940 -0.27776860
  H  1.90343847  1.59614069 -0.33406588
