13
opt_min/./Product_3310_0_opt.xyz
  C -1.74929300 -0.59561900  0.37399900
  C -1.00976629  0.38198684 -0.51083839
  C -1.51032775  0.96910503 -1.55406263
  C  0.40665842  0.67562588 -0.07618347
  H  0.46351682  1.57344731  0.53857446
  C  1.34415227 -0.43385438  0.22033263
  H  2.04234219 -0.31601763  1.04308532
  H  1.04648491 -1.45591158  0.03141997
  N  1.47738852  0.36934415 -0.97346311
  H  2.24409897  1.03303187 -0.98859188
  H -1.55402807 -1.61097932  0.02924747
  H -2.82095317 -0.41680021  0.32749642
  H -1.40184339 -0.49570446  1.40094473
