9
opt_min/./Product_4790_0_opt.xyz
  C -1.48100700 -0.20539800  0.11002500
  C -0.14967585 -0.21801520  0.09607333
  C  0.76195331 -1.29563257  0.54688881
  O  1.92560871 -0.91119356  0.36438606
  N  2.00172456  0.49575933 -0.24265144
  C  0.79048235  0.82271355 -0.36582366
  H  0.51609027  1.77617110 -0.77244969
  H -2.05518214  0.63642209 -0.24415839
  H -2.03248515 -1.05192595  0.48262567
