16
opt_min/./Product_8581_0_opt.xyz
  C  2.76473900  0.05295800  0.11828600
  C  1.31105452 -0.28785807  0.33035754
  C  0.35972937  0.27130662 -0.63174302
  C -0.88328985 -0.12046854 -0.72522735
  C -2.11758220 -0.50468908 -0.77764288
  C -3.23630546  0.14289761 -0.01370195
  H -3.63608706  0.98936419 -0.57683635
  H -2.87688715  0.50964933  0.94657110
  H -4.03856875 -0.57128401  0.15161142
  H -2.39481133 -1.32961556 -1.41800290
  H  0.74358891  1.03136903 -1.29703213
  N  0.88058561 -1.01515698  1.27250412
  H  1.59858459 -1.37020821  1.90243511
  H  2.90312896  0.77371202 -0.68346624
  H  3.19188934  0.45658473  1.03882832
  H  3.31398705 -0.85768474 -0.13026007
