7
opt_min/./Product_594_1_opt.xyz
  N -2.11406800 -1.01499100  0.84728600
  C -1.19578525 -0.38229667  0.58009348
  C -0.06836400  0.39338723  0.24405506
  C  0.87361171 -0.04208180 -0.58690355
  H  0.81558715 -1.01708669 -1.04113664
  H  1.72780709  0.56296099 -0.83602197
  H -0.02323072  1.36931522  0.70823590
