14
opt_min/./Product_1717_0_opt.xyz
  O  3.47670700  0.13305400  0.64353300
  C  2.30649123  0.28477598  0.85060790
  C  1.20725876 -0.21345283 -0.03958157
  C -0.19446879  0.09734230  0.47277297
  O -1.11694477 -0.38216604 -0.47413188
  C -2.45543086 -0.14600610 -0.12996457
  H -2.66247243  0.92801477 -0.03684115
  H -2.72125087 -0.63767643  0.81297368
  H -3.05853320 -0.55918493 -0.93131944
  H -0.36164161 -0.38013709  1.45116260
  H -0.31864134  1.18597703  0.60097817
  H  1.32254880 -1.29093589 -0.16373285
  H  1.33903980  0.21795397 -1.03223773
  H  1.96594032  0.77223869  1.78786455
