9
opt_min/./Product_4385_1_opt.xyz
  O  1.21595768  0.47828102 -2.18887287
  C -7.28043217 -9.48204965 -5.24769300
  N -12.35472555 -8.61915386  9.55488991
  H  4.21534588  22.97781208  6.13408422
  C -4.51027414 -14.28119491 -1.30668701
  H -1.26939545 -14.04682855 -0.85161491
  H -4.05653185  1.01058882  18.84859715
  C -4.06183052 -21.53697911 -3.32847253
  C  1.05307248 -6.84223471  0.25233240
