14
opt_min/./Product_11686_0_opt.xyz
  C -1.49315700 -0.79920100  0.10853700
  C -0.32936273  0.04134557 -0.38629872
  C -0.62172579  1.42438731 -0.78313942
  O  0.18809891  2.24714655 -1.13076153
  H -1.70432722  1.68073515 -0.73420001
  C  1.08173177 -0.22802455  0.12956902
  N  1.81493328 -0.02994455  1.23439646
  H  2.62022293 -0.61437556  1.38674804
  H  1.35445576  0.34681886  2.04537390
  C  0.84843444 -0.63740478 -1.08092322
  H  1.13238091 -1.11503635 -1.98113190
  H -1.14137990 -1.55681853  0.80741323
  H -1.98072594 -1.31347667 -0.71910477
  H -2.23151792 -0.17959282  0.61329604
