12
opt_min/./Product_1128_0_opt.xyz
  O  1.63282800  0.24987900  0.97749800
  C  1.32024234  0.40494648 -0.34260954
  C  0.16369623 -0.00350964 -0.85079299
  C -0.87689491 -0.66339082 -0.03318219
  H -0.49092053 -1.30196082  0.75926684
  C -2.18758301 -0.02910865  0.17810732
  H -2.39832550  0.91527314 -0.31218640
  H -2.73628751 -0.21808802  1.09346453
  O -2.03004264 -1.12750752 -0.67166397
  H -0.04228970  0.14074413 -1.89764121
  H  2.06695469  0.87870793 -0.96754608
  H  2.52780160  0.56238332  1.14486429
