13
opt_min/./Product_8520_0_opt.xyz
  O  1.93240500  0.00876800  0.84423200
  C  0.89785320 -0.85139237  0.41888131
  H  1.11905996 -1.90942888  0.39343242
  C  1.48328397  0.15411507 -0.46819326
  H  2.19554962 -0.03815920 -1.25671709
  O  0.62610011  1.20998032 -0.71385772
  C -0.54576291  0.97942234  0.03880999
  H -0.97170795  1.87809406  0.45351242
  C -1.40528141 -0.17831433 -0.38785623
  H -1.16204193 -0.68571587 -1.30822444
  H -2.46051931 -0.12139172 -0.17482765
  C -0.46432174 -0.32997017  0.77863861
  H -0.83128914 -0.45917531  1.78406435
