12
opt_min/./Product_7688_0_opt.xyz
  C  1.22865100 -0.04430100  0.73762800
  H  0.87293564  0.27853147  1.70708218
  H  2.28272011 -0.27040245  0.68325007
  C  0.61923030  0.53852607 -0.49674036
  H  1.17383961  0.94021572 -1.32620233
  C -0.87940302  0.87760710 -0.25604099
  H -1.46133840  1.60723276 -0.79454502
  O -1.22929204  0.52835638  1.04918117
  C -1.15240458 -0.51017904  0.11673216
  H -2.01518945 -1.13537104 -0.03776375
  C  0.33715022 -0.89425350 -0.11854873
  H  0.63574434 -1.80722311 -0.59605935
