9
opt_min/./Product_2723_0_opt.xyz
  C -1.05132612  0.62708703 -0.82987109
  O  0.25941492  0.43247819 -0.31672513
  C  0.42076054 -0.50832823  0.60318071
  O -0.40204866 -1.24383610  1.06113648
  N  1.75493876 -0.54962950  0.98167209
  C  2.86760304 -0.60543299  1.32917516
  H -1.69291352 -0.22194544 -0.58640649
  H -0.96770271  0.73648454 -1.90945669
  H -1.47367536  1.53418678 -0.39667487
