10
opt_min/./Product_9365_0_opt.xyz
  C  0.95343300 -0.93815000 -0.09486300
  H  1.79821562 -1.59546546 -0.14996138
  C -0.33277253 -1.18152660 -0.21815837
  C -1.48717666 -0.62829624 -0.20032087
  C -2.00840033  0.56361710 -0.03533939
  H -3.03177908  0.89792536 -0.04551229
  O -1.13793725  1.60740749  0.19450056
  N  0.29278025  1.49796896  0.26823452
  C  1.08728976  0.52681219  0.15763617
  H  2.11357599  0.87061836  0.28083273
