13
opt_min/./Product_2259_0_opt.xyz
  C -2.48424800 -0.36755300  0.20617500
  C -1.16213904 -0.45465185  0.06390217
  C -0.29694398  0.69104861  0.15880400
  C  1.04253417  0.70288403  0.03030342
  C  1.89271452 -0.43898173 -0.23093133
  N  3.15106842 -0.44027187 -0.35360577
  H  3.58113663  0.48080425 -0.25148517
  H  1.41907618 -1.41006373 -0.33663379
  H  1.56262898  1.65029791  0.12779102
  H -0.80516759  1.62736615  0.35462699
  H -0.71772320 -1.42085629 -0.13038170
  H -3.12465435 -1.22940599  0.13376927
  H -2.97040023  0.57497004  0.40081867
