15
opt_min/./Product_8447_0_opt.xyz
  C -0.34512300 -0.42814800 -0.35122200
  C  0.52740574  0.78098360 -0.41956765
  C  1.80819526  0.89314480 -0.05578238
  C  2.65302160 -0.16536405  0.48234384
  O  3.80960585 -0.01722756  0.79278293
  H  2.17019460 -1.15555437  0.60285081
  H  2.31023284  1.84648467 -0.15485028
  H  0.02032822  1.66391731 -0.79158585
  C -1.47254046 -0.18232754  0.61291892
  C -2.75066545 -0.19412550  0.28758865
  H -3.07917537 -0.38959776 -0.72042474
  H -3.52229875 -0.01769501  1.01695855
  H -1.16387748  0.01952676  1.63017960
  H -0.75944180 -0.62203546 -1.34354875
  H  0.21829103 -1.30587468 -0.03087831
