19
opt_min/./Product_11868_0_opt.xyz
  C -1.52292900 -0.62346000 -0.88973400
  C -0.44346917  0.28666167 -0.30102806
  C  0.33960205 -0.46001285  0.76910471
  H -0.30759359 -0.83740373  1.55167847
  C  1.70048480  0.01843486  1.18031560
  H  2.11910975  0.84850800  0.63555126
  H  1.95288172  0.00350669  2.22930958
  C  1.55108089 -1.27297800  0.43926216
  H  1.86304290 -1.29934829 -0.59200383
  H  1.70548468 -2.19690924  0.97554854
  C -1.07819696  1.53985031  0.31919234
  H -1.77225479  1.25801957  1.10482230
  H -1.60489285  2.11219635 -0.44115089
  H -0.29821638  2.16702227  0.74177638
  O  0.47636736  0.67249801 -1.31632626
  H -0.02273869  0.90879801 -2.10566728
  H -1.06228403 -1.49115174 -1.35409031
  H -2.21075150 -0.95520205 -0.11720760
  H -2.10377266 -0.08546539 -1.63949583
