12
opt_min/./Product_968_0_opt.xyz
  C  1.73139800 -0.22095200  0.51829000
  C  0.46026010 -0.08622900  0.15687652
  C -0.14757027  1.07919605 -0.59281636
  H -0.07526193  2.01874684 -0.03648623
  H  0.30074252  1.22847609 -1.57986256
  O -1.52939594  0.76410264 -0.77010343
  C -1.73931657 -0.43458531 -0.18721084
  H -2.74840657 -0.80236470 -0.23760389
  C -0.65454081 -0.98873240  0.36695304
  H -0.60099653 -1.92942695  0.87371270
  H  2.06499655 -1.09249712  1.05338006
  H  2.46826358  0.52941447  0.29423728
