7
opt_min/./Product_11663_0_opt.xyz
  O  2.79710600 -0.32004600  0.01652600
  C  1.65614069 -0.06185166 -0.01664563
  C  0.40118292  0.13012892 -0.14468575
  C -1.01763995 -0.14968667  0.01640123
  H -1.52417310 -0.71958338 -0.75240602
  H -1.43251978 -0.22847383  1.01410131
  O -0.54503543  1.11771353 -0.35385131
