14
opt_min/./Product_11867_1_opt.xyz
  C  1.97839500 -0.63529700 -0.53952500
  C  1.17177522 -0.02233406  0.41722894
  H  1.43744566 -0.19042209  1.45761299
  C  0.46384932  1.35158125  0.16067309
  H  0.61652938  1.77221910 -0.82174964
  H  0.54286302  2.05703373  0.97394689
  C -0.41025768  0.20026702  0.31069055
  C -1.13405544 -0.43968066 -0.84843662
  H -2.02124345  0.14579028 -1.08644785
  H -1.44544324 -1.44943245 -0.58027565
  H -0.49844486 -0.50032198 -1.72674352
  O -1.05250250  0.07404162  1.52501385
  H -1.09974645 -0.85392190  1.78512382
  H  1.69622467 -0.33180670 -1.56393231
