14
opt_min/./Product_10954_0_opt.xyz
  C -1.67125800 -1.40069400 -0.29181700
  C -0.45251986 -0.94953589 -0.01598270
  C -0.06051818  0.45251609  0.09027385
  N -1.05680785  1.37656660  0.14693647
  H -2.00544735  1.09821593  0.31265822
  H -0.82187916  2.34410680  0.27572243
  C  1.24069252  0.86702318  0.11578914
  C  2.42077555  0.06248417 -0.00220780
  O  3.55569935  0.49231798  0.03362113
  H  2.24711496 -1.02611917 -0.14041697
  H  1.43338173  1.92760183  0.21914602
  H  0.34703436 -1.65653431  0.14393881
  H -1.87122493 -2.45636182 -0.35147276
  H -2.51238479 -0.75751403 -0.49311980
