12
opt_min/./Product_9259_1_opt.xyz
  C -1.71665100 -0.40095800  0.04793000
  C -0.81566378  0.78074968  0.21754098
  C  0.50688816  0.70910430  0.17751172
  O  1.15165498 -0.48492240 -0.03487248
  N  2.55849861 -0.30855074 -0.19065199
  H  2.80457674 -0.70065390 -1.09622836
  H  2.99378348 -0.87887867  0.53073413
  H  1.17134035  1.55291666  0.30215429
  H -1.26668688  1.74056110  0.40616122
  H -2.69393538 -0.09284605 -0.31424565
  H -1.27967145 -1.10756568 -0.65259506
  H -1.84997627 -0.91834039  0.99760809
