12
opt_min/./Product_936_0_opt.xyz
  O -0.23591900  1.25063600 -1.01069000
  C -0.34484402  0.48712846  0.15603001
  H -0.57540409  1.18927285  0.96229404
  C -1.24126564 -0.76692897  0.03660868
  H -1.80706489 -0.82805917 -0.89297782
  H -1.91864711 -0.95875477  0.86245833
  C -0.05456360 -1.68410401 -0.04266547
  C  0.83784347 -0.51115373  0.34739526
  O  1.99872056 -0.28888706 -0.38653913
  H  2.57682586  0.32619228  0.07410467
  H  1.02417569 -0.69149125  1.41616487
  H  0.36173520  0.78194283 -1.60958992
