16
opt_min/./Product_8015_0_opt.xyz
  C -1.50924800  0.56420100 -1.45523800
  O -0.67620344  1.21786373 -0.53534524
  C  0.41793169  0.42794531 -0.08626769
  C  1.38118995  1.36906909  0.63290082
  H  0.89543126  1.79170371  1.50970825
  H  1.65904832  2.18532414 -0.03231681
  H  2.27336916  0.82513259  0.94058268
  C -0.04875859 -0.65734938  0.84954109
  C  0.22618806 -1.93706862  0.70270106
  H -0.11766854 -2.68622349  1.39626271
  H  0.82050905 -2.30409963 -0.11849439
  H -0.65050234 -0.29246926  1.67120661
  H  0.92361176 -0.02701552 -0.95646999
  H -2.28429420  1.27857814 -1.73774809
  H -1.98025861 -0.32611286 -1.01621415
  H -0.94835826  0.25806115 -2.34847157
