14
opt_min/./Product_287_0_opt.xyz
  C  2.56275500  0.41857200  0.33626900
  C  1.25027621  0.41806957  0.12445668
  C  0.41286021 -0.73062235  0.38215867
  C -0.90857231 -0.82020201  0.22858852
  C -1.84379767  0.23628120 -0.27382632
  O -2.53494596 -0.29310182 -1.39173950
  H -3.11265947  0.38284621 -1.76051476
  H -1.29750238  1.14569389 -0.55842067
  H -2.55725750  0.49225437  0.52263041
  H -1.40560377 -1.75355814  0.44825336
  H  0.94330109 -1.59809279  0.75173192
  H  0.77393545  1.30846461 -0.26459989
  H  3.07261462 -0.44771520  0.72428234
  H  3.17387749  1.28103071  0.13172328
