15
opt_min/./Product_8799_0_opt.xyz
  O  1.05671299  0.17824539 -1.91940072
  C -4.27540587 -1.19269666  8.50427420
  C -1.75247766  3.58516231  11.53115902
  H -40.13866246  66.83463988  27.27210485
  C  7.22603456  2.76636835 -3.43945614
  C  3.11703568  27.23166809 -22.71253540
  C -6.28059809  1.34125661 -15.70443824
  C  32.52671552 -13.60355798 -18.48004283
  H -4.68419800 -25.47085039  41.54129071
  H -1.75699354  2.15436480 -22.19247695
  H -5.01139577  8.41074091 -5.67805138
  H  22.76783366  1.25030267 -11.78311599
  H -32.25462321 -9.44088894  4.85591892
  H -14.44376052  3.41704975 -34.44685425
  H  5.03706532 -24.52801747  9.43658426
