13
opt_min/./Product_6001_0_opt.xyz
  C -2.04312000 -0.03705900 -0.15007500
  C -0.59919578  0.27247369  0.26270376
  N  0.28320840 -0.65810839 -0.37828592
  C  1.53923173 -0.64335266 -0.27921896
  C  2.40647358  0.28640369  0.48605836
  O  3.60532262  0.20071368  0.51534197
  H  1.87803112  1.08301226  1.04909233
  H  2.07939922 -1.41476440 -0.82306708
  H -0.49014392  0.19749686  1.35069585
  H -0.33774420  1.30092043 -0.01406652
  H -2.51816928  0.82560700 -0.60776841
  H -2.03049102 -0.84776899 -0.87347139
  H -2.64133018 -0.34667596  0.70202773
