9
opt_min/./Product_10539_1_opt.xyz
  O  1.47897800 -1.14172200  0.66000000
  C  1.23215926  0.03000253  0.67497984
  C -0.04355024  0.65218135  0.09583066
  C -0.95529718 -0.32392396 -0.57709291
  H -0.60258892 -0.47155903 -1.59758007
  H -0.91661373 -1.28587160 -0.07351818
  H -1.96831570  0.06584178 -0.61338772
  O -0.23798884  1.83590296  0.19995909
  H  1.92659800  0.77790814  1.10454906
