12
opt_min/./Product_3807_0_opt.xyz
  C  0.19465400 -0.84940900  1.20500100
  C  0.19424949 -0.51761320 -0.26337583
  H  0.46000947 -1.35739396 -0.90189912
  C -0.88138374  0.36705392 -0.88859389
  H -1.51467297  0.06665830 -1.70192961
  C -1.09101920  1.55230872  0.03513703
  O  0.20155869  1.83350443  0.07822451
  C  0.56509709  0.80002107 -0.84288397
  H  1.28784392  0.99449433 -1.61517391
  H  0.08636798  0.05075882  1.80742261
  H  1.11801274 -1.35756943  1.47992717
  H -0.64032710 -1.51245123  1.42641534
