10
opt_min/./Product_237_0_opt.xyz
  C -0.56680800  0.92445400  0.43965000
  H -1.19387573  1.46450319  1.12819798
  N  0.58140012  1.34281621  0.07396563
  C  1.45535693  0.64620795 -0.52698818
  C  1.53215580 -0.71369729 -0.13072580
  H  2.41668171 -1.32282650 -0.09696050
  N  0.36991231 -1.24230428 -0.08584463
  C -0.84941500 -0.48306838 -0.04307536
  H -1.29954797 -0.50988507 -1.04848142
  H -1.53362400 -0.98597299  0.64518100
