9
opt_min/./Product_5524_0_opt.xyz
  N  1.24925600 -1.16203800 -0.03162100
  C  0.30636987 -0.31568859 -0.00731136
  N -1.01690121 -0.65531797  0.04868933
  H -1.44338363 -1.56158822  0.07814864
  O -1.81952129  0.50265219  0.06311001
  N -1.00082836  1.55119120  0.01645263
  C  0.21572549  1.16012722 -0.02495519
  H  1.03328833  1.85156656 -0.06645568
  H  2.17143273 -0.74211113 -0.07327258
