14
opt_min/./Product_6056_0_opt.xyz
  C  1.25611500  0.57366800  0.29395300
  H  2.05395104  0.87852770 -0.39582163
  H  1.65971813  0.72163420  1.30558090
  C  0.95059058 -0.87705393  0.08760231
  H  1.80205778 -1.54330395  0.05938200
  C -0.27562154 -1.35036157 -0.05373547
  H -0.44103123 -2.40874112 -0.21022355
  C -1.50344975 -0.49571610 -0.01818835
  H -2.08288620 -0.72184022  0.88788524
  H -2.15420450 -0.74700547 -0.86420702
  C -1.17152449  0.96275848 -0.04540120
  H -2.01059434  1.63442326 -0.19153942
  C  0.05154831  1.44080312  0.09228594
  H  0.23416503  2.50745852  0.06505191
