12
opt_min/./Product_2575_0_opt.xyz
  N  0.87311900  1.53920200  0.24295000
  C -0.35299945  1.26374809  0.04226410
  H -1.13222769  1.99861377  0.14678138
  C -0.59413805 -0.17428272 -0.35938716
  N -1.61317001 -0.82405002  0.44891676
  H -1.67748511 -1.80858066  0.21111143
  H -1.35486875 -0.76465294  1.42968168
  H -0.95528708 -0.19389553 -1.39686387
  C  0.83147911 -0.67970426 -0.28846910
  H  1.12724515 -1.69218006 -0.48537757
  C  1.60360035  0.35738610  0.04786413
  H  2.66956757  0.39273539  0.18608622
