10
opt_min/./Product_3465_1_opt.xyz
  N -0.66284200  1.72856300  0.64967800
  C -0.35626831  0.59072646  0.24716611
  C -1.13616572 -0.67366317 -0.03322983
  H -1.56545310 -1.15601215  0.84483331
  H -1.87322047 -0.62310281 -0.83361315
  O  0.08204498 -1.31523724 -0.45690576
  C  0.83963593 -0.18877685 -0.20206703
  N  2.05213171  0.06492056 -0.30755780
  H  2.63951512 -0.68837954 -0.65192021
  H  0.11957552  2.37478621  0.72836254
