10
opt_min/./Product_10941_0_opt.xyz
  N  1.60656329  0.01366088  1.42678214
  N  0.86475298  1.07382283  1.56407271
  N  0.36595546  1.66080310  0.60449879
  C -0.00132991  1.33655014 -0.63825205
  N -0.64401558  0.28587932 -1.01776979
  C -0.81209594 -0.80130685 -0.32973621
  N -0.94892117 -1.83261570  0.17025111
  H  0.07161075  2.15029656 -1.35219135
  H  1.71435619 -0.50027354  0.55120500
  H  1.96150570 -0.38817130  2.28046292
