19
opt_min/./Product_7419_0_opt.xyz
  C -1.14867000  0.98844400 -0.06478200
  C -1.20814163 -0.53579889 -0.17217926
  C -2.23404983 -1.11065258  0.79992045
  H -1.97300914 -0.85422031  1.82584708
  H -3.22505127 -0.71145304  0.58966256
  H -2.27635720 -2.19538525  0.71700560
  C  0.15658521 -1.13697038  0.08902721
  C  1.27225212 -0.66448313 -0.37529055
  C  2.36599310 -0.12960058 -0.82590764
  C  3.18759617  0.87897738 -0.07311706
  H  3.92478338  0.37542912  0.55407282
  H  2.54902538  1.48124702  0.57046202
  H  3.71731270  1.53222982 -0.76285160
  H  2.75445092 -0.44562756 -1.78757245
  H  0.17559512 -2.04124377  0.68668361
  H -1.50979558 -0.79898937 -1.19448243
  H -2.12596760  1.42553506 -0.26039437
  H -0.82675666  1.28228293  0.93251100
  H -0.43519444  1.38609475 -0.78301572
