14
opt_min/./Product_7382_0_opt.xyz
  C  1.97169700  0.00661800  0.45012400
  C  0.64702779  0.02120240 -0.32528109
  H  0.90693867 -0.08830471 -1.39579269
  C -0.15305512 -1.18906047 -0.09691017
  C -1.59133356 -0.97214275 -0.07130307
  H -2.01260257 -1.54661119 -0.90883010
  H -1.99521480 -1.43036557  0.84183016
  O -2.13638995  0.36442444 -0.15466300
  C -1.24323204  1.36644583 -0.08661622
  H -1.74075797  2.31990843  0.03705993
  N  0.00513653  1.31652795 -0.16275929
  H  2.58341393  0.84553738  0.13486911
  H  1.76977887  0.10306515  1.51300053
  H  2.49349308 -0.92795783  0.27064317
