12
opt_min/./Product_8319_0_opt.xyz
  C -1.59317410 -0.63359900 -0.17536886
  C -0.43400787  0.18323548 -0.66622165
  C  0.80471752 -0.20867745 -0.50682565
  N  1.94525432 -0.62858844 -0.48228938
  C  3.03875706 -0.77160866  0.32171218
  O  3.25306526 -1.73871900  1.04671968
  H  3.90178592 -0.22015462 -0.11464389
  O -0.78492006  1.38909834 -1.21518504
  H -0.01066374  1.84747552 -1.55930829
  H -2.05342000 -1.16891869 -1.00557783
  H -2.33239988  0.04070523  0.24992302
  H -1.27003885 -1.35061639  0.57290092
