7
opt_min/./Product_4236_1_opt.xyz
  O -0.48392033  1.33610267 -0.40037140
  C -0.04834987  0.05367321 -0.10992872
  C -0.81222191 -1.01542225 -0.21206502
  O -1.46183198 -1.97103208 -0.26353620
  C  1.30868214 -0.15504840  0.24461927
  N  2.40511710 -0.27373410  0.55674683
  H -0.82135818  1.77700826  0.39038020
