12
opt_min/./Product_10612_0_opt.xyz
  O -2.07210569  1.02355357  1.28895622
  C  11.49939467 -0.15029238  1.63915614
  C  11.22951597 -5.01604395 -11.49221530
  H -19.80295525 -10.59488705 -9.65788525
  C  32.54117221  4.47669225 -6.64895326
  H  11.30152032 -11.69431670  11.20918772
  C  4.01879373 -8.84362726 -18.26738684
  C  0.92421285  11.33918096  0.69547969
  N  6.06930119  20.06717732  22.86897681
  H -7.71560045  0.98338313  9.53444539
  H -4.59829571 -7.04846436 -6.77061378
  H -0.64958531 -24.16986887  26.79215129
