10
opt_min/./Product_3329_0_opt.xyz
  C  1.82141199 -0.55177500  1.36254701
  C  0.87764515 -0.51046073  0.62752584
  C -0.26689393 -0.43593578 -0.24333194
  H -0.57756539 -1.43234794 -0.55512670
  C -0.22067557  0.57949389 -1.36720502
  H  0.33567167  0.76599851 -2.25059876
  O -1.23309127  1.26492460 -0.83651094
  C -1.39218667  0.46311345  0.21545584
  H -2.08248847  0.53437921  1.01738345
  H  2.64109895 -0.59325109  2.01406600
