11
opt_min/./Product_1773_0_opt.xyz
  N -0.79281277 -0.11644241  1.24723457
  C  0.25045925  0.34638807  0.33794315
  C  0.75112857 -0.79443017 -0.51447142
  N  1.97017935 -0.89416380 -0.76502134
  H  2.25487199 -1.66918926 -1.35646990
  H -0.03955063 -1.46681293 -0.87528013
  C -0.25729588  1.38386067 -0.54887265
  N -0.79550853  2.16235547 -1.19043180
  H  1.09133721  0.74250378  0.91693300
  H -1.62909505 -0.37994157  0.73904612
  H -1.04090222  0.60889464  1.90875843
