12
opt_min/./Product_1951_0_opt.xyz
  C  1.78981800  0.49007900 -0.05827100
  N  0.51631731  0.21224040 -0.00743999
  C -0.54351232  1.02064444  0.17746624
  H -0.44451476  2.07678788  0.32196874
  C -1.69853876  0.22248243  0.13563992
  H -2.70629774  0.57960285  0.24777408
  N -1.45198925 -1.03707488 -0.05805543
  C -0.03402940 -1.14982977 -0.15857183
  H  0.35995913 -1.78943140  0.63890680
  H  0.24914711 -1.58504264 -1.12100146
  H  2.49058727 -0.30449167 -0.21782098
  H  2.11801677  1.50122108  0.07568791
