13
opt_min/./Product_1200_0_opt.xyz
  C  2.06788500  0.05710200  0.16420800
  C  0.79040814 -0.16382596 -0.60657110
  O  0.76570294 -0.41249107 -1.78330184
  N -1.14311096  1.25667572 -0.01243321
  H -1.54267243  1.68757253  0.81535542
  C -1.78249665  0.04399992 -0.45185279
  H -2.63371939 -0.34624674  0.09542984
  H -1.82773558 -0.08134890 -1.52424723
  C -0.45830956 -0.00317836  0.21275333
  H -0.39186265 -0.40125454  1.22288983
  H  2.52590381 -0.91025247  0.36899595
  H  2.76296406  0.62660070 -0.44826409
  H  1.89097447  0.57166664  1.10311375
