9
opt_min/./Product_9226_0_opt.xyz
  N  0.92954698 -0.07480101 -1.09989501
  C  0.14404895 -0.48498634 -0.22239708
  O -0.97957946  0.20987050  0.12960319
  C -0.91754820  1.53389929  0.37141091
  O  0.05528895  2.20590509  0.43650218
  H -1.94923668  1.87464864  0.55647473
  N  0.23597558 -1.67210338  0.46788299
  C  0.34583578 -2.68878850  1.03368142
  H  1.72542783 -0.66205414 -1.31603878
