11
opt_min/./Product_4753_0_opt.xyz
  N -1.37270685 -1.02952755  1.04679048
  C -0.55276175 -0.20128112  0.28897094
  O  0.76854566 -0.27730542  0.71949132
  C  1.71274431  0.14302016 -0.07139308
  C  2.61568999  0.46163343 -0.79043903
  H  3.42925610  0.70415865 -1.40143940
  C -0.96602353  0.62675135 -0.66117330
  H -2.00438748  0.66937677 -0.92690058
  H -0.27305198  1.24074757 -1.20440152
  H -0.89026162 -1.44359777  1.83513329
  H -1.90833151 -1.70543820  0.52021323
