17
opt_min/./Product_8502_0_opt.xyz
  C -2.49481700 -0.10279100  0.45426700
  C -1.09057684 -0.67812259  0.46394738
  H -1.11481532 -1.74130974  0.72520381
  C -0.21748699 -0.33694122 -0.75505294
  H -0.70627612  0.25604617 -1.51865107
  H  0.29874662 -1.18360648 -1.19380591
  C  0.64544465  0.45617679  0.25344093
  C  2.05992776  0.00358194  0.37963774
  C  3.10485874  0.74415087  0.05592277
  H  2.98533447  1.75054240 -0.30728746
  H  4.11035001  0.37165837  0.13748227
  H  2.18699247 -1.00369619  0.75134660
  H  0.60574088  1.54288066  0.12605914
  O -0.19668533  0.03128964  1.33747921
  H -3.06666309 -0.54484835 -0.35602555
  H -2.99349873 -0.30566102  1.39686171
  H -2.44602352  0.97218833  0.31334185
