11
opt_min/./Product_418_0_opt.xyz
  O  3.83691199 -1.19274799  0.92826703
  N  2.80053169 -0.70562236  0.62405587
  C  1.79617279 -0.22123265  0.32245896
  C  0.52629731  0.37144817 -0.03461384
  O -0.49517637 -0.59408826  0.10212961
  C -1.76703771 -0.09255382 -0.22610944
  H -2.05034726  0.73948087  0.42833685
  H -1.80050756  0.24667417 -1.26892056
  H -2.45992561 -0.91629487 -0.08881763
  H  0.56998890  0.72824691 -1.08011016
  H  0.33952146  1.23630299  0.62410045
