12
opt_min/./Product_6753_0_opt.xyz
  O  2.45716700 -0.01526600  1.26012000
  C  1.71826445  0.05088873  0.32433562
  C  0.23293568  0.14605398  0.41045315
  O -0.44443394  0.85232390  1.36222652
  N -0.61552605  1.24656816  0.00200432
  C -1.63081712  0.28443063 -0.52187381
  H -1.81353338  0.48370226 -1.57463306
  H -2.55548513  0.33874671  0.05009409
  C -0.70147334 -0.89746177 -0.23551694
  H -0.27117678 -1.33006774 -1.13633821
  H -1.05732083 -1.67936459  0.42915875
  H  2.07005404 -0.03060157 -0.72200078
