13
opt_min/./Product_1301_0_opt.xyz
  C  0.23731600 -0.09655300 -0.75658900
  O  0.94021146  0.07331718  0.37907748
  C  2.33010619  0.24521098  0.23090243
  H  2.73593522  0.33520730  1.23693078
  H  2.78858394 -0.61303037 -0.27055679
  H  2.56132779  1.15370320 -0.33455346
  C -1.09351622 -0.24992139 -0.77647726
  C -1.92260030 -0.24313375  0.41139821
  N -3.17670289 -0.38066452  0.47727561
  H -3.63020743 -0.51119585 -0.42863843
  H -1.40004404 -0.10195405  1.35227361
  H -1.58492118 -0.38612713 -1.72934395
  H  0.81037019 -0.10648440 -1.68037589
