8
opt_min/./Product_2598_0_opt.xyz
  C  0.93811354 -0.02565546  0.45379085
  C -0.35461210  0.08454134  0.31314158
  C -1.62819021  0.19135005  0.13263297
  H -2.08963583  1.14156178 -0.08480379
  H -2.28626126 -0.65914552  0.21028146
  N  1.77758541 -0.28893742 -0.58446219
  C  2.51469954 -0.51138871 -1.46128083
  H  1.42919431  0.07173614  1.41557059
