13
opt_min/./Product_3788_0_opt.xyz
  C -2.09213429  0.61726553  0.38878233
  N -3.71275922  10.30365461  25.56604082
  C -5.63871670 -0.34622002 -20.97853686
  C -15.80751750 -7.01393868 -16.69999889
  C  4.48276580 -0.89932624 -9.28862812
  C  12.97889253 -16.77612659 -14.84727351
  H  18.76718325 -8.34343441  2.26302463
  H  21.14283765 -16.31112966 -39.75473217
  H -48.15212930  6.71240512  45.65024904
  H  0.48335990  36.10865719  76.62603877
  H -1.65127308  5.48615359  8.09843237
  H -4.01823724 -5.23435926 -2.00803992
  H  0.89771311  7.38231950  0.37478577
