12
opt_min/./Product_3204_0_opt.xyz
  C -1.68633600 -0.22619400  0.06063100
  C -0.24106989  0.11885577  0.04788643
  C  0.40285654  1.31749856  0.19652669
  H -0.07814425  2.25973914  0.37791891
  C  1.82213176  1.13910460  0.08255717
  N  1.92687108 -0.16532357 -0.13227129
  H  2.78380237 -0.67893550 -0.26332706
  N  0.70846360 -0.83142134 -0.16207935
  H  0.57925962 -1.81769380 -0.31355057
  H -2.24185251  0.53804377  0.59738553
  H -1.85512474 -1.18908389  0.54006317
  H -2.07547954 -0.27915250 -0.95692985
