11
opt_min/./Product_624_0_opt.xyz
  O -2.05728200  0.73834300 -0.03964900
  C -1.17661693 -0.36574389 -0.03401127
  C  0.19527571  0.00724819  0.43246606
  C  1.29554775 -0.11120246 -0.29212482
  O  2.52475810  0.23163706  0.18990313
  H  3.19458517  0.11193909 -0.49304143
  H  1.26318708 -0.51364090 -1.29852164
  H  0.26010472  0.41452901  1.43357216
  H -1.15014908 -0.72666146 -1.06570205
  H -1.58073244 -1.15737227  0.61828105
  H -2.02413166  1.15218409  0.83296857
