12
opt_min/./Product_1272_0_opt.xyz
  C -1.71348200 -0.47685800 -0.06182100
  C -0.25175152 -0.26432867 -0.01633609
  N  0.62371333 -1.20159847  0.09232353
  C  1.85060400 -0.54671939  0.11842857
  H  2.75674815 -1.11954456  0.20804207
  N  1.82772797  0.72502727  0.04156463
  C  0.43617897  1.07692296 -0.06177460
  H  0.14918835  1.73168956  0.76308667
  H  0.25352194  1.61971789 -0.99130134
  H -2.21167940  0.33090966 -0.59248144
  H -1.93173735 -1.43035446 -0.53539769
  H -2.10305492 -0.51247917  0.95536132
