10
opt_min/./Product_6539_0_opt.xyz
  O  2.63408000 -0.34936900  0.02229800
  C  1.43610826 -0.41251363  0.00211735
  N  0.69986619 -1.57828675 -0.06124838
  N -0.55737936 -1.59328449 -0.08011036
  C -1.28348328 -0.45932774 -0.03933493
  H -2.35456267 -0.56677233 -0.05968507
  C -0.67124282  0.76453501  0.02486374
  H -1.21454310  1.69987146  0.05930185
  N  0.66627758  0.79046756  0.04538196
  H  1.18350969  1.66093388  0.09222594
