8
opt_min/./Product_354_0_opt.xyz
  N -0.02824097  1.13664964  0.24188423
  H  0.14455165  2.09330723  0.53912105
  C  0.67556722  0.71177936 -0.94637655
  H  0.98244352 -0.32729852 -0.93748596
  H  1.35528721  1.38653525 -1.45464837
  C -0.76518564  1.04509890 -0.98257558
  N -1.78641397  0.34758198 -1.24718540
  N -2.77274886  0.06922849 -1.74258772
