8
opt_min/./Product_5122_1_opt.xyz
  C  1.37373400  0.13190600 -0.05210200
  O  1.28347163  1.29227532  0.22338507
  O  0.38235784 -0.73215003 -0.17913609
  C -0.93289019 -0.21227557  0.00643235
  H -1.21010611  0.42486602 -0.83503701
  H -1.59439877 -1.07043624  0.06583694
  H -0.97927250  0.38256904  0.91956439
  H  2.33037974 -0.38546132 -0.22874885
