9
opt_min/./Product_2852_0_opt.xyz
  O  0.89434200  0.13179800 -1.37892300
  C  0.46187281 -0.34821165 -0.16095999
  H  1.10615224 -1.14162441  0.23821976
  C -0.24542765  0.49285692  0.87880419
  H -0.09458603  0.93559488  1.83347247
  O -1.27758108  0.92342683 -0.01801327
  C -1.00839492 -0.47349640  0.14899210
  H -1.78011324 -1.19982655  0.22154120
  H  1.48809835  0.88082877 -1.25515421
