10
opt_min/./Product_3473_1_opt.xyz
  N -1.79295295 -0.97199687  0.76887628
  C -0.68093985 -0.65610431  0.30229428
  C -0.19620326  0.72424067 -0.08974583
  O  0.81963036  0.70392994 -1.08680626
  C  1.92527411  0.12951301 -0.82058411
  N  2.93910680 -0.36938041 -0.63639999
  H -1.00440467  1.31822137 -0.52461481
  H  0.17104024  1.22757255  0.81625126
  H  0.05410149 -1.44683058  0.17187413
  H -2.46261721 -0.21144023  0.88088179
