12
opt_min/./Product_4255_0_opt.xyz
  O -0.12303500 -1.50455900  0.49994800
  C -1.20102897 -0.66632341  0.06734279
  H -1.81574061 -1.16589979 -0.68153300
  H -1.80990418 -0.32100187  0.90374531
  C -0.20031815  0.38699919 -0.45975873
  O -0.19426878  1.63872338  0.15307398
  H -0.89201699  2.18640415 -0.22166040
  H -0.17207080  0.47274040 -1.55026077
  C  0.87260623 -0.57787068  0.12191868
  O  1.58283628 -0.14350389  1.21945027
  H  2.15945507  0.58494039  0.96582277
  H  1.54263088 -1.00860934 -0.64490033
