11
opt_min/./Product_8701_0_opt.xyz
  O  2.26005900  1.02512600  0.17189500
  C  1.57725000 -0.09682796  0.05968341
  C  0.22604298 -0.13879718 -0.00882894
  C -0.69189924 -1.24940026 -0.13533811
  H -0.45004601 -2.29301518 -0.19717432
  N -1.90677778 -0.79270854 -0.15025695
  C -1.76692746  0.57805549 -0.04762084
  H -2.62640057  1.22348897 -0.04446525
  N -0.55357431  1.01893033  0.03268649
  H  2.18763066 -0.99086652  0.02328681
  H  1.61944230  1.76433766  0.19031874
