13
opt_min/./Product_275_0_opt.xyz
  C  1.68416500 -0.18204700 -0.12065800
  C  0.25560746 -0.39673326  0.36951634
  H  0.27887875 -0.88448951  1.34588655
  C -0.71420960  0.80217975  0.32460747
  H -0.33577464  1.64883519 -0.23873922
  H -1.08502543  1.15108491  1.28564928
  C -1.66692953 -0.10530794 -0.47204646
  H -2.53598105 -0.45467668  0.08292075
  H -2.00823946  0.25054277 -1.44038177
  C -0.63666940 -1.20315599 -0.55669930
  H  2.25591616 -1.10169606 -0.03564151
  H  2.16533453  0.58329713  0.48343271
  H  1.67887828  0.12930961 -1.16015507
