12
opt_min/./Product_1581_0_opt.xyz
  O  1.25864400  0.76982100 -1.19518300
  C  0.71206816  0.19254095 -0.04237992
  H  1.16810823  0.60215211  0.86630854
  C -0.85670952  0.27248207  0.00186373
  O -1.44492794  0.92112162  1.08760273
  H -1.34305540  1.87266396  0.98371345
  H -1.25431236  0.63061500 -0.95302644
  C -0.80652492 -1.23183801  0.11159286
  H -1.59506608 -1.94323183  0.24929194
  C  0.51335252 -1.31241783 -0.00530229
  H  1.21407498 -2.11981753 -0.06495105
  H  2.19161667  0.53996498 -1.25599178
