11
opt_min/./Product_1364_0_opt.xyz
  N -1.77699200  1.00250700 -0.10700300
  C -1.76567373 -0.23432952  0.13145084
  O -0.65210374 -0.94235760  0.19260568
  C  0.54151072 -0.21643709 -0.04738478
  C  1.74533707 -1.08959945  0.10265786
  O  2.84966990 -0.53058688 -0.18228146
  H  2.84552572  0.41218959 -0.48658432
  H  0.59648274  0.62544408  0.66353058
  H  0.49299218  0.23442560 -1.05433067
  H -2.63047646 -0.87534726  0.34537974
  H -2.69452649  1.43033480 -0.10402241
