15
opt_min/./Product_9104_0_opt.xyz
  C  1.57870300  0.44831100 -0.23487400
  H  2.50219366  0.75542396  0.26624784
  H  1.84593254  0.34443930 -1.29538907
  C  0.75785106  1.70076689 -0.27197714
  O -0.49135767  1.80706278 -0.15259260
  C -1.53724515  0.82142079  0.10591205
  H -2.33024962  1.06557825 -0.60505753
  H -1.87985196  1.04012125  1.12214840
  C -1.15406903 -0.64703691 -0.00841622
  H -2.03665752 -1.24751980  0.24311966
  H -0.85355055 -0.88302149 -1.04243905
  O -0.14225280 -0.99856458  0.89575566
  C  1.15028905 -0.93312389  0.33767551
  H  1.23406931 -1.68814603 -0.46194328
  H  1.81272758 -1.21339550  1.15829383
