16
opt_min/./Product_10645_0_opt.xyz
  C -1.47360200 -0.99056500 -0.92775100
  C -0.69477566  0.29923505 -0.69097554
  N -0.94808304  0.78555009  0.65718326
  H -0.82543917  1.78945196  0.72156191
  H -1.88746988  0.54791035  0.95457137
  C  0.80386497  0.02824341 -0.85312795
  H  1.03448371 -0.52092049 -1.75937682
  C  1.80374534  0.95301849 -0.32909312
  O  2.35412716  2.00835499 -0.40987197
  C  1.64081180 -0.30168427  0.39957435
  H  2.39474061 -1.07265462  0.33136680
  H  1.10381537 -0.26432072  1.33728160
  H -0.97997297  1.04345263 -1.45788765
  H -1.15512988 -1.74218617 -0.20633552
  H -1.28325947 -1.37217216 -1.92947011
  H -2.54352216 -0.81880052 -0.82193771
