13
opt_min/./Product_6403_0_opt.xyz
  C -0.31401699  1.33834099  0.27351606
  C  0.19597385  0.00774060 -0.24095491
  O  1.21897812 -0.49667813  0.65693110
  C  2.38267610 -0.67693422  0.18342145
  N  3.44126376 -0.84719711 -0.21720195
  C -0.86202667 -1.07193405 -0.29170388
  N -2.01699566 -0.83591153  0.12522714
  H -2.66663948 -1.61782748  0.07590522
  H -0.49560137 -2.02997509 -0.69029262
  H  0.63827554  0.10886913 -1.24248372
  H -0.81459253  1.19761058  1.22518894
  H  0.51726977  2.02774256  0.39649181
  H -1.01680543  1.75028553 -0.44162947
