12
opt_min/./Product_7500_0_opt.xyz
  O  1.22374958 -1.45789821 -0.04817685
  C -0.03850142 -1.75443522 -0.10522261
  C -1.06508394 -0.72480392  0.00152371
  H -2.04394027 -1.08618668 -0.29749761
  C -1.06292052  0.23391573  1.16248875
  H -0.20715968  0.23905228  1.83332718
  H -2.01077721  0.42010206  1.64767305
  N -0.93333604  0.72769761 -0.16516486
  H  0.00165968  1.04171973 -0.41083522
  C  1.81188229 -0.29016468  0.07914903
  C  2.45633876  0.71688021  0.18543661
  H  3.02851468  1.58893349  0.28664215
