8
opt_min/./Product_3320_0_opt.xyz
  O  2.49541467 -0.28625653 -0.93430948
  C  7.00006081  2.01784715 -4.10272146
  N -8.13084916 -7.48716560 -11.01639641
  C  12.77070125  6.01238657 -5.12954917
  C -5.58424263 -7.98752721 -0.63186076
  H -1.87509789  2.44355561  4.87980436
  H -2.50238561  5.71463077  6.50888435
  H -4.00656900  0.12655253  2.75245107
