13
opt_min/./Product_467_0_opt.xyz
  O  2.24341000 -0.28965100  0.02423800
  C  0.89649553 -0.29153756  0.43400897
  H  0.81493555 -0.26682841  1.53306788
  C  0.11407010  0.89521130 -0.17144868
  H  0.24970002  1.81470656  0.39305270
  H  0.46804757  1.02766406 -1.19425575
  C -1.31306483  0.37395709 -0.16677437
  H -1.82340330  0.58955266  0.77708886
  H -1.91698541  0.72998397 -1.00579045
  N -1.07265382 -1.06799544 -0.29348454
  H -1.83275892 -1.69737400 -0.51234829
  C  0.10080079 -1.52880436  0.01434119
  H  2.82196747 -0.34241790  0.78730680
