14
opt_min/./Product_571_0_opt.xyz
  C -1.90775500  0.27745600 -0.27103100
  C -0.42235331  0.50401763 -0.08606365
  H -0.12400186  1.53332386  0.06977607
  C  0.38669464 -0.55624485  0.61776284
  H -0.03946283 -1.36625286  1.17950753
  C  1.82530032 -0.06711621  0.68119527
  H  2.54280030 -0.83195845  0.98572298
  H  2.01507847  0.86226754  1.22435801
  O  1.86165150  0.11840552 -0.74128803
  C  0.53022230 -0.35893472 -0.86605778
  H  0.26326341 -0.97041982 -1.71025995
  H -2.45572938  1.19203047 -0.06442677
  H -2.27100411 -0.49487642  0.40475566
  H -2.13251122 -0.03514220 -1.28889554
