16
opt_min/./Product_5056_0_opt.xyz
  C  2.45924700  0.49458400 -0.81526800
  C  1.21282350  0.07415209 -0.04762579
  C  0.02775370 -0.14370122 -0.89211759
  C -1.14309409 -0.69562271 -0.18948599
  O -1.08154164 -0.90548094  1.22262868
  H -1.16058430 -0.04580364  1.65168694
  C -2.42911137  0.04302981 -0.58697108
  H -3.29606583 -0.43140355 -0.13623094
  H -2.52412323  0.03659588 -1.66952635
  H -2.37488589  1.08043902 -0.25699595
  H -1.19865330 -1.71400015 -0.61486232
  H  1.40462287 -0.83158268  0.54691313
  H  0.95434706  0.83145667  0.70997723
  H  2.65924700 -0.22247331 -1.60869845
  H  3.32131441  0.54571552 -0.15579859
  H  2.30198151  1.46602329 -1.27978927
