19
opt_min/./Product_10065_0_opt.xyz
  C -2.07201100  0.66209200 -0.60024600
  C -1.43718508  0.05197108  0.64492188
  C  0.00519697 -0.40705693  0.44365979
  C  0.22765397 -1.43330480 -0.69933522
  H -0.68105820 -1.54648794 -1.28166485
  H  1.00320784 -1.05885272 -1.38943979
  H  0.55770639 -2.38611295 -0.29467686
  C  0.90285368  0.46898653 -0.31079924
  C  2.28682694  0.49465167  0.22227599
  O  3.22040302  0.78822869 -0.79137688
  H  4.07437881  0.98505138 -0.39353040
  H  2.20620901  1.32646448  0.95025765
  H  2.60941134 -0.40123749  0.79644906
  H  0.38763574 -0.80998949  1.39732721
  H -2.03225662 -0.79330108  1.00441987
  H -1.42712180  0.80745092  1.43484079
  H -2.37342027 -0.10569338 -1.30928694
  H -1.35982313  1.32402940 -1.08548390
  H -2.95812626  1.23050965 -0.32607748
