17
opt_min/./Product_9581_0_opt.xyz
  C  1.49476500  0.21469300  1.08441600
  H  1.20546597  1.17360666  1.49229473
  H  1.45106076 -0.58575681  1.81075160
  C  2.58630688  0.17228489  0.02868387
  H  3.26984421 -0.66674034  0.04938213
  H  3.05865124  1.09695240 -0.27219458
  C  1.18325508 -0.07412943 -0.31502727
  C  0.32435482 -0.34375648 -1.26622061
  C -1.16358378 -0.49207702 -1.08368034
  C -1.59337895 -0.39285788  0.34332407
  C -2.40641887  0.53119985  0.81794047
  H -2.82608761  1.29921147  0.18827441
  H -2.69117628  0.56209730  1.85606389
  H -1.18694232 -1.14798875  1.00266735
  H -1.67091141  0.27174768 -1.68133433
  H -1.45815073 -1.46953222 -1.48352273
  H  0.67571004 -0.46839602 -2.28393944
