13
opt_min/./Product_10119_0_opt.xyz
  O -1.70477500  1.73900200  0.73881900
  C -0.63466134  1.32259000  0.56240942
  N -0.97465837 -0.91410027 -0.87778207
  H -1.82117142 -1.35671136 -1.19134080
  H -0.55202961 -0.29514746 -1.55055378
  C -0.08238172 -1.68321838 -0.16105291
  H -0.38875981 -2.69522366  0.07284667
  C  1.10474434 -1.24258682  0.25758727
  H  1.77069353 -1.90189647  0.78719488
  C  1.53271084  0.19058810  0.10581907
  H  1.79484458  0.43724939 -0.93226626
  H  2.42050428  0.38453181  0.71282667
  N  0.53090386  1.09126147  0.57059482
