17
opt_min/./Product_7842_0_opt.xyz
  C -2.33194100  0.44817000 -0.26889500
  C -0.84101235  0.60433304  0.04528684
  C -0.10648779 -0.74345180  0.09157435
  O -0.19702030 -1.44892194 -1.11416444
  H  0.10577195 -0.86906878 -1.82422167
  C  1.36295207 -0.50386394  0.49049316
  C  2.12398889  0.19621015 -0.58328496
  O  2.93053643  1.10489836 -0.19875050
  H  2.92420440  1.36477572  0.76339184
  H  1.41562981 -0.00419712  1.47377406
  H  1.85914039 -1.47772648  0.56447218
  H -0.58674004 -1.38953486  0.83580206
  H -0.35437240  1.22983834 -0.70837105
  H -0.71251368  1.09305661  1.01263586
  H -2.62525816 -0.59495584 -0.18284143
  H -2.55696293  0.77227588 -1.28130678
  H -2.94098328  1.03279015  0.41475265
