13
opt_min/./Product_8304_0_opt.xyz
  C  2.11013865  1.07955133  0.63687255
  O  8.03923362  5.80653446  6.66134866
  C  0.02863470  5.21848031  9.18310269
  C  1.63342325 -3.99139975  12.10875426
  N -4.74025725 -9.40365735  10.50182531
  C  0.79660148  8.86695818 -9.19840050
  N -6.03801282 -2.59486765  3.19542288
  H  0.89243887 -8.60637988  5.99958507
  H -5.61433205  28.71307208  14.19102467
  H  15.03469929 -20.39842807 -3.46421445
  H  6.67991070  6.25417576  1.06780451
  H  6.67081864 -1.57875822  1.59861260
  H  22.89985090  39.76264168  12.52305438
