13
opt_min/./Product_1747_0_opt.xyz
  N  4.16208900 -0.65778500 -0.08762500
  C  2.96846776 -0.73660008 -0.09244132
  C  1.69482322 -0.82281355 -0.13452573
  C  0.27204385 -0.76268920 -0.08433670
  C -0.27278441  0.66552093  0.10128665
  C -1.79416258  0.66331312  0.15190264
  H -2.16584689  1.67657662  0.28277012
  H -2.21407045  0.25801734 -0.76642017
  H -2.14498740  0.06050293  0.98799113
  H  0.12591579  1.08651524  1.02747396
  H  0.07620890  1.29319186 -0.72206337
  H -0.08361984 -1.39362393  0.74500298
  H -0.14951828 -1.19315968 -1.00393355
