15
opt_min/./Product_7876_0_opt.xyz
  C  0.14189500  1.16234000 -0.69965100
  H -0.35279845  1.36965092 -1.63481948
  H  0.77062297  1.97929045 -0.38135153
  C -0.57873385  0.35447719  0.33866581
  C -1.97922361 -0.13943491  0.07058836
  H -2.71937745  0.58830107  0.39416358
  H -2.11739074 -0.32969616 -0.98910877
  H -2.16123628 -1.06873784  0.60836968
  H -0.41053025  0.62014132  1.37423825
  C  0.58565272 -0.23940023 -0.39876023
  C  1.89167049 -0.48199931  0.31757094
  H  2.14011250  0.36317984  0.95199052
  H  1.81938918 -1.36854137  0.94594650
  H  2.70179189 -0.63677926 -0.39050183
  H  0.35522290 -0.99964654 -1.13351231
