9
opt_min/./Product_2054_0_opt.xyz
  N -1.09779700 -0.03939400 -0.52937899
  C -0.00095129 -0.02962209  0.39112908
  N  0.85123922 -1.12115264  0.15305020
  C  1.56451294 -2.01371149 -0.05479629
  C  0.78174765  1.21038312  0.25993331
  N  1.36653625  2.18438697  0.15358124
  H -0.34031231 -0.09501425  1.44929309
  H -1.75850770  0.70795087 -0.52086454
  H -1.14039488 -0.73177991 -1.24679840
