14
opt_min/./Product_11335_0_opt.xyz
  C -1.59787400 -1.02414800  0.65516100
  C -0.27759366 -0.67448124  0.07594752
  N  0.52951788 -1.54980373 -0.40989988
  C  1.65330241 -0.86327087 -0.88188917
  H  2.45866059 -1.41585261 -1.33047537
  C  1.56473361  0.46740727 -0.69649523
  H  2.26127657  1.24056853 -0.94973006
  C  0.28000388  0.70007357 -0.04970998
  C -0.27379500  1.85206581  0.33399468
  H -1.24252206  1.89045037  0.80427511
  H  0.22772225  2.79299484  0.18415983
  H -1.85898261 -0.35366708  1.46766788
  H -2.36607531 -0.93819795 -0.11261315
  H -1.57990343 -2.04799508  1.01154782
