11
opt_min/./Product_4044_0_opt.xyz
  O -1.18437500 -1.37755400 -0.25133000
  C -0.39044467 -0.36938459  0.30055977
  H -0.46747189 -0.36235908  1.40540554
  C -0.79456913  1.02510961 -0.13807613
  H -1.80150975  1.39788722 -0.09757720
  N  0.19127335  1.72843161 -0.52589558
  C  1.33764197  0.91788383 -0.48154779
  H  2.27025480  1.35394984 -0.79065073
  C  1.07721095 -0.31887172 -0.05313451
  H  1.75364205 -1.14146496  0.07088243
  H -0.84724792 -2.23796862  0.02371657
