12
opt_min/./Product_2525_0_opt.xyz
  C -1.95297500 -0.63504000  0.18284900
  N -0.55675944 -0.28920118  0.18783010
  C -0.15083743  0.94697462  0.08219736
  N  1.23756456  1.09607714  0.03293734
  C  2.17881232  0.21752760 -0.41332298
  O  1.99701461 -0.92500931 -0.75898364
  H  3.17695334  0.70029007 -0.47447405
  H  1.53242263  2.06129102  0.11576228
  H  0.08423273 -1.07140482  0.30940938
  H -2.14741120 -1.38234002 -0.58907925
  H -2.53297524  0.26569143 -0.02273649
  H -2.25149425 -1.04502596  1.15219632
