13
opt_min/./Product_4532_0_opt.xyz
  C -1.59997800 -0.19207000  0.31490200
  C -0.36750165  0.03804174 -0.54374916
  H -0.65591139  0.50309794 -1.49228955
  C  0.77587672  0.78266591  0.15528855
  H  1.11672557  1.65443342 -0.40675039
  H  0.53362074  1.07007616  1.17986808
  N  1.81488055 -0.25572876  0.13790805
  H  2.70705641 -0.09316756  0.56809128
  C  1.45555423 -1.37611210 -0.45958682
  O  0.22926935 -1.25049448 -0.88201143
  H -1.32993225 -0.58959813  1.28691517
  H -2.14097505  0.74001052  0.44672652
  H -2.25592688 -0.90266461 -0.17838394
