15
opt_min/./Product_6710_0_opt.xyz
  O -2.61457800 -0.39733200  0.90222700
  C -1.63001592 -0.48569088 -0.10291340
  C -0.79571890  0.75808245 -0.19241547
  C  0.52677498  0.83760002 -0.16447589
  C  1.46229963 -0.30462117 -0.03894157
  H  1.05541189 -1.18844407  0.45539968
  O  2.30024316 -0.58908320 -1.13060276
  C  2.91129700 -0.09600009  0.02362190
  H  3.31623467  0.91144779 -0.04633899
  H  3.52539793 -0.80359109  0.57297880
  H  1.00787404  1.80270689 -0.26936171
  H -1.37579703  1.66963960 -0.28659890
  H -1.02752540 -1.35511174  0.16008797
  H -2.10728329 -0.66257548 -1.08251104
  H -3.10344003  0.42796735  0.78834997
