14
opt_min/./Product_646_0_opt.xyz
  O  2.63275800 -0.24300800  1.26487100
  C  1.58453504  0.12895975  0.80379690
  C  0.86549920 -0.54440045 -0.27995685
  H  1.35763410 -1.44445933 -0.62545238
  C -0.64422079 -0.48184081 -0.42049528
  C -1.52386996  0.17576773  0.62392606
  H -1.00551625  0.30657172  1.56917117
  H -1.86813815  1.15047600  0.28500911
  H -2.40054217 -0.43824183  0.81268548
  H -1.08083309 -1.37382952 -0.85089767
  C  0.20415374  0.33394980 -1.32923367
  H  0.24418123  1.39855460 -1.15637205
  H  0.31720573  0.04898363 -2.36276932
  H  1.11317911  1.06236710  1.17144311
