14
opt_min/./Product_554_0_opt.xyz
  C -1.83950500  0.44935500  0.88036300
  C -1.05333927  0.38104331 -0.42766081
  C -0.04875105 -0.73840278 -0.38196864
  C  1.13061583 -0.63351575  0.14698188
  C  2.31421671 -0.47499319  0.65744794
  O  3.45579385 -0.20969948 -0.07997268
  H  3.76484480  0.68252910  0.12231077
  H  2.49324499 -0.64232137  1.72041413
  H -0.38035538 -1.69625007 -0.76403705
  H -1.74228923  0.21599808 -1.25782367
  H -0.53387660  1.32852473 -0.58936542
  H -2.38246727 -0.48026707  1.04822232
  H -2.55418499  1.26966700  0.85078983
  H -1.16108537  0.60560839  1.71817240
