10
opt_min/./Product_436_0_opt.xyz
  O  1.60837600  0.03243500 -0.13488900
  C  0.23152300  0.11111558 -0.34646911
  H  0.09926491  0.23809188 -1.43569060
  C -0.57733758  1.21162252  0.30410581
  H -0.32828556  2.25551571  0.31182192
  N -1.65144250  0.76133656  0.81632775
  N -1.70346273 -0.62447715  0.67147785
  C -0.66302039 -1.03601167  0.06589650
  H -0.48485455 -2.07271118 -0.14660649
  H  1.78426387 -0.07389780  0.80727954
