10
opt_min/./Product_2216_0_opt.xyz
  C  2.78293013 -0.15093308  0.25612521
  C  1.61366325 -0.40376855  0.09541214
  C  0.25926853 -0.66529478 -0.07460976
  N -0.61304244  0.33089670 -0.19775033
  C -1.91631563  0.29081609 -0.39196843
  H -2.41132023 -0.65845053 -0.45082653
  H -2.47301358  1.20074102 -0.46803450
  H -0.19547618  1.25744604 -0.14983286
  H -0.10389989 -1.67877288 -0.11798255
  H  3.80268614  0.04835928  0.39177988
