11
opt_min/./Product_3529_0_opt.xyz
  O -0.57065800  1.69324100 -0.16302000
  C -0.32160505  0.37384766 -0.52930271
  C -1.25674316 -0.62812587  0.10183760
  H -1.50740805 -1.42451406 -0.59520914
  H -2.16168280 -0.09489117  0.38190784
  H -0.81326539 -1.06616955  0.99648058
  C  0.53905993  0.02198196 -1.44337841
  O  1.38154992 -0.32198846 -2.18694649
  H  1.71216448  0.29525354  2.05774838
  H  1.49493929  0.20035670  1.31346044
  H  0.15060775  2.26262417 -0.45202360
