12
opt_min/./Product_1044_0_opt.xyz
  C -2.18172600 -0.01353800  0.24183400
  C -0.71811004  0.07991260  0.47711878
  O  0.06295869 -0.24386199 -0.47665816
  C  1.39007285 -0.24393976 -0.48766926
  C  2.21208686  0.09211584  0.60267346
  O  1.83126279  0.44685662  1.71315654
  H  3.29263102 -0.00182443  0.38155325
  H  1.79347732 -0.55794230 -1.43639142
  H -0.33409063  0.39698288  1.43766760
  H -2.59781947 -0.85873391  0.79408054
  H -2.67926450  0.88575353  0.59852163
  H -2.38992600 -0.15528725 -0.81580188
