8
opt_min/./Product_10529_1_opt.xyz
  O  1.81726300  0.42944600  0.06585000
  C  0.50537192  0.25959917  0.20242125
  C -0.68590913  0.76135135  0.31118813
  H -1.37682427  1.56113380  0.38155381
  C -0.57981381 -0.75498646  0.33889024
  H -0.89182746 -1.32822554 -0.52870902
  H -0.70429157 -1.29286501  1.27258197
  H  2.25517913 -0.42301965 -0.04854367
