17
opt_min/./Product_6431_0_opt.xyz
  C -1.96906100  0.35646200 -0.64665800
  C -0.56412516  0.05992738 -0.18596145
  C  0.12863909 -1.33540902 -0.41973898
  H -0.47174664 -2.21775875 -0.19291815
  H  0.57103847 -1.42776384 -1.40242512
  C  1.11418107 -0.85763480  0.68719788
  H  1.74774264 -1.54662223  1.23667710
  C  1.77189547  0.35929787  0.04267419
  H  2.24447302  0.98658348  0.79975727
  H  2.53621434  0.07695126 -0.68351633
  C  0.54650575  1.02686265 -0.60288261
  H  0.62673319  1.10255802 -1.68949127
  H  0.35664760  2.02607970 -0.20970171
  C -0.26807868 -0.56248963  1.12149497
  H -2.68066592 -0.22609134 -0.06565809
  H -2.08453929  0.10629262 -1.70053008
  H -2.19037073  1.41243942 -0.51227094
