17
opt_min/./Product_8414_0_opt.xyz
  O -1.94743700  0.49470200  1.39722200
  C -2.32205859 -0.33725154  0.32129484
  C -1.12989124 -0.46348900 -0.63157851
  C  0.01037653 -1.15733058  0.04186057
  C  1.20570012 -0.65069475  0.34428859
  C  1.67728319  0.68828100  0.08173921
  C  2.89861031  1.10406006  0.40260820
  H  3.23163586  2.10888343  0.20613180
  H  3.61282729  0.45104305  0.87672690
  H  0.98973120  1.37862417 -0.38809863
  H  1.92388491 -1.28927861  0.84307708
  H -0.20387992 -2.18323335  0.31996362
  H -0.83854400  0.53454046 -0.95586728
  H -1.44929902 -1.03795553 -1.50293259
  H -3.17967624  0.08537795 -0.21879358
  H -2.60385553 -1.33376542  0.69459849
  H -2.71279322  0.65933292  1.95654649
