14
opt_min/./Product_7136_0_opt.xyz
  N -2.28418400 -0.21553400  0.41070700
  H -3.00354477 -0.72201078  0.88657908
  C -1.80248247  0.92274542 -0.03347683
  O -1.94583292  2.10087994 -0.09453339
  C -1.02298549 -0.31670444 -0.32445860
  C  0.23412468 -0.67160290  0.44626329
  C  1.44668759 -0.43688285 -0.40104938
  C  2.40848438  0.41727939 -0.11361150
  H  3.26109427  0.55219214 -0.75631189
  H  2.38565602  1.01908994  0.78001501
  H  1.48898423 -1.02753275 -1.30784583
  H  0.19393637 -1.72621859  0.74092144
  H  0.29516082 -0.06629369  1.35387527
  H -1.08486272 -0.77677191 -1.30850899
