12
opt_min/./Product_6542_0_opt.xyz
  C  1.41494185  0.49001398  0.89527624
  N  0.55445557 -0.51595505  0.33578716
  C -0.63952356 -0.26074856 -0.28039230
  C -1.41463985 -1.17543364 -0.89072171
  H -1.11522837 -2.20714265 -0.95105115
  H -2.34619406 -0.89804637 -1.34256999
  C -1.08797238  1.08783100 -0.25566895
  N -1.45492617  2.17418275 -0.25702435
  H  0.90252640 -1.45775581  0.27712961
  H  1.99034293  0.06153655  1.71563219
  H  0.81281316  1.31167116  1.28382667
  H  2.11963633  0.89455774  0.16115715
