19
opt_min/./Product_10809_0_opt.xyz
  C -2.66712900 -0.47494700 -0.34572100
  C -1.70929999 -1.36717383  0.43428546
  C -0.26830432 -1.28316878 -0.06734582
  C  0.37417774  0.08267793  0.18840752
  C  1.67053336  0.26158009 -0.45344076
  C  2.66516260  1.08277935  0.09728302
  C  3.20518014  2.24622167 -0.26797855
  H  2.74202148  2.86309047 -1.01811680
  H  4.07819497  2.64229166  0.21805249
  H  3.14923198  0.51163721  0.89427480
  H  0.31588490  0.34848060  1.25368921
  H -0.19318794  0.84860010 -0.36515248
  H -0.23588726 -1.49696845 -1.13700347
  H  0.32943396 -2.04324819  0.44027505
  H -1.74018144 -1.09650522  1.49320603
  H -2.04430150 -2.40328776  0.35074191
  H -2.42726875  0.57765983 -0.21075194
  H -2.62116374 -0.70474991 -1.40835626
  H -3.68940032 -0.62806788 -0.00710718
