8
opt_min/./Product_9867_1_opt.xyz
  C  0.16083500 -0.14380700  0.10668800
  C  1.37888953  0.18685141 -0.22743607
  H  1.68504469  1.21605162 -0.25579119
  H  2.11292718 -0.55293438 -0.48874751
  C -1.19651545  0.08372607  0.52319801
  H -1.41907272  0.30145673  1.56029292
  H -1.93514478  0.41348332 -0.19719838
  O -0.63791772 -1.21460904  0.27849232
