19
opt_min/./Product_7420_0_opt.xyz
  C  2.24669500 -0.58498600  0.29935300
  C  1.08076015 -0.12694146 -0.57242614
  H  1.37049206 -0.25515728 -1.61657264
  C -0.20626814 -0.93351646 -0.28843049
  H -0.47736228 -1.59124774 -1.11261303
  H -0.09169674 -1.55691442  0.59985382
  C -1.26668897  0.10567548 -0.03549598
  C -2.68666601 -0.29626614  0.17998140
  H -3.24436600  0.49837429  0.66485693
  H -2.74225775 -1.19545174  0.79076293
  H -3.15941794 -0.51469173 -0.77547786
  C -0.76076260  1.32918205 -0.04071956
  H -1.31093431  2.23540956  0.14624893
  C  0.70971780  1.35536630 -0.32725811
  H  1.26855132  1.77776475  0.51109940
  H  0.91956469  1.97613891 -1.19956096
  H  2.45213273 -1.63778794  0.13286627
  H  2.01434449 -0.43930524  1.34937557
  H  3.14348080 -0.02085540  0.06322001
