12
opt_min/./Product_3989_0_opt.xyz
  C  1.88560600  0.12856100 -0.15167900
  C  0.79260284 -0.71873091  0.40544005
  N -0.43349175 -0.56166050  0.05672401
  C -1.71463507 -0.91985860 -0.01178714
  H -2.35517411 -1.06520234  0.83529597
  C -1.28348443  0.33923142 -0.67125989
  H -1.40555336  1.32933666 -0.22892976
  H -1.19339768  0.34960806 -1.75359885
  H  1.03560681 -1.53499676  1.06861138
  H  2.51031276 -0.44366066 -0.84205228
  H  2.53191679  0.49604950  0.64487677
  H  1.46859981  0.97831749 -0.68843344
