12
opt_min/./Product_1122_0_opt.xyz
  O  2.71793900 -1.02990300  0.67409700
  C  2.05640414 -0.36076862 -0.06465117
  C  0.75145536  0.30215889  0.30100261
  C -0.39832837 -0.55272052 -0.09884606
  C -1.71189109 -0.00202183  0.24912381
  O -2.75212447 -0.89699662 -0.05685848
  H -3.59373612 -0.51856277  0.21564536
  H -1.82937587  0.92349619 -0.34896881
  H -1.76466142  0.30432687  1.30877705
  H  0.73033309  0.44589249  1.38716443
  H  0.66680492  1.28159367 -0.17507131
  H  2.36306688 -0.20599824 -1.12087710
