7
opt_min/./Product_1210_0_opt.xyz
  C -0.86046523  0.76541577 -0.80310572
  C -18.06426094 -4.96076714 -5.52524311
  C -0.89858603  0.17971524  0.12304922
  C -4.69619344  6.60132408 -2.10822700
  O -3.30234505  5.50721730 -1.62472180
  H -14.44803427 -6.64655138 -7.03243238
  H -8.48894899  20.69236704 -5.56685756
