10
opt_min/./Product_8971_1_opt.xyz
  N  1.55248895 -1.40740887  0.87426838
  C  15.60018385  13.91419740  37.85055602
  C  15.81173714  13.16760361  38.73434395
  H  55.07918196  16.68492139 -67.16274970
  N  10.76520689  14.15909387  30.91235920
  C  3.67323198  14.24155721  23.97402556
  H -38.57630573 -16.39001076 -36.49873335
  N  8.09835877  21.86732244  15.83870571
  C  11.96662399  17.01823046  27.97456440
  H -4.48463992 -30.00366198  77.77423645
