8
opt_min/./Product_4744_1_opt.xyz
  N -0.77753800 -0.83298500 -0.06049300
  C  0.36742022 -0.07843904 -0.00054490
  O  0.20010536  1.24784391 -0.25285420
  H -0.70856219  1.45424142 -0.50056236
  N  1.48200978 -0.61789879  0.21820754
  H  2.26215412  0.02509874  0.16806884
  H -1.63808560 -0.40443123  0.24496734
  H -0.66248630 -1.79050803  0.22552720
