14
opt_min/./Product_11207_0_opt.xyz
  N  2.33866900 -0.79297500 -0.52546300
  C  1.39901090 -0.18523462  0.01039317
  C  0.37817352 -0.22137502  1.04387200
  H  0.65998246 -0.20145891  2.08664616
  C -0.92179828 -0.92399225  0.66743769
  H -1.63110093 -0.93210427  1.50066529
  H -0.73989808 -1.96144524  0.37482124
  C -1.43853940 -0.11194474 -0.48348637
  H -2.34818193 -0.38727852 -0.98928627
  C -0.67494303  0.93431706 -0.76637233
  H -0.84647141  1.66897773 -1.53421304
  C  0.51426342  0.99880486  0.11338587
  H  0.91884169  1.95361175  0.41948098
  H  2.80111031 -0.30155651 -1.29165548
