10
opt_min/./Product_5704_0_opt.xyz
  C -1.48714300  0.18929100  0.46713600
  O -1.08346926 -1.17806086  0.27107729
  C  0.03842642 -1.62085874 -0.09675426
  O  1.04704837 -0.77581519 -0.42965575
  C  1.49615886  0.34161325  0.13864118
  O  1.22814514  0.74644689  1.23227904
  H  2.25234246  0.79768309 -0.52163141
  H -0.98649395  0.61899069  1.33611530
  H -1.25316539  0.78265867 -0.42008687
  H -2.56362102  0.16184920  0.62479415
