12
opt_min/./Product_46_0_opt.xyz
  C -0.28635100  2.15896000  0.59626700
  N -0.12590074  0.88577718  0.31584408
  C  0.01110432  0.26859628 -0.84347069
  N  0.16278307 -1.12579384 -0.87965700
  C  0.19602477 -1.93090205  0.19357983
  O  0.09330113 -1.55744152  1.35756265
  H  0.32453015 -2.98971421 -0.07583660
  H  0.26203712 -1.52640189 -1.79856693
  H -0.03011471  0.79760037 -1.77688351
  H -0.06653710  0.22659317  1.11109493
  H -0.37129076  2.45919212  1.61863737
  H -0.34646358  2.88697617 -0.19013504
