15
opt_min/./Product_11745_0_opt.xyz
  C -1.49547800 -0.83000100  0.71092700
  C -0.38347573  0.13642025  0.36654181
  H -0.22574358  0.84583458  1.18092480
  C -0.43414791  0.79461937 -1.01739716
  H -1.24208571  0.44542495 -1.66524359
  H -0.40228749  1.88811426 -1.02852776
  O  0.81678690  0.22850665 -1.40305668
  C  0.93861005 -0.47654846 -0.13885242
  C  2.15158792 -0.11303720  0.66015469
  O  2.92178221  0.69170050  0.04275413
  H  2.58754790  0.93523690 -0.86599383
  H  0.90380909 -1.56127112 -0.27687804
  H -1.63973304 -1.55240408 -0.08966913
  H -1.25078184 -1.36584147  1.62436987
  H -2.42595052 -0.28753364  0.86270383
