10
opt_min/./Product_10935_0_opt.xyz
  N -1.79047400 -0.37049400  0.07683700
  C -0.48285296 -0.36496914  0.04441718
  N  0.45675733 -1.22961869  0.14766574
  C  1.62258951 -0.49142086 -0.01058203
  H  2.57574460 -0.98141738  0.03953613
  N  1.50635307  0.76842391 -0.20920011
  N  0.13897528  1.02656546 -0.20859923
  N -0.46722206  2.02599229 -0.35643577
  H -2.34026841 -1.19771497  0.22945891
  H -2.22862121  0.53831816 -0.04889361
