8
opt_min/./Product_3057_0_opt.xyz
  C -0.88565400 -0.44319199 -0.58154201
  H -1.31717308 -0.86479715 -1.45473867
  C -0.78409084 -0.36804501  0.70737947
  H -1.04990789 -0.65670808  1.69323113
  C  0.13488242  0.55442847 -0.07166754
  C  1.51960230  0.24938017 -0.16511362
  N  2.63452548 -0.00226066 -0.24449303
  H -0.08180229  1.61844870 -0.12547890
