12
opt_min/./Product_7230_0_opt.xyz
  C  1.89400500  0.29208900  0.11580700
  C  0.59400267  0.04927300  0.08030971
  C -0.58851969  0.67118953 -0.63079817
  H -0.79369951  1.69772981 -0.33381547
  H -0.54023726  0.63724836 -1.71669575
  C -1.50528682 -0.39098175  0.02072420
  H -2.30650114 -0.02377166  0.65414603
  H -1.91664246 -1.10886823 -0.68607889
  C -0.28849561 -0.94453642  0.74387118
  O -0.10543039 -1.82701384  1.53623257
  H  2.33872957  1.08928585 -0.45793970
  H  2.56005079 -0.30221558  0.71818140
