10
opt_min/./Product_3401_1_opt.xyz
  N  1.78305500 -0.30191400  0.49502000
  C  1.23758999  0.54794350 -0.25361925
  O -0.06503740  0.82042599 -0.25169145
  C -0.88048158  0.13273717  0.61516423
  C -2.17748113  0.36724729  0.66752233
  H -2.64296434  1.09970111  0.03146330
  H -2.80453795 -0.17333501  1.34945119
  H -0.36515745 -0.58842551  1.23663456
  H  1.71697101  1.16876590 -1.02550010
  H  2.78243492 -0.41337656  0.36604145
