16
opt_min/./Product_9857_0_opt.xyz
  O -1.80183800  1.35588200 -0.07746000
  C -1.42277970  0.01588006 -0.03607170
  H -2.34166155 -0.57268899 -0.02035415
  C -0.40347468 -0.39541904  1.04635471
  H -0.72909680 -1.19747325  1.70305917
  H -0.03818034  0.43793767  1.64269331
  C  0.60185788 -0.82186722 -0.04001873
  N  1.83340198 -0.06204229 -0.02570449
  C  1.84493987  1.18217964  0.32672855
  H  2.86982786  1.59096016  0.25037022
  H  2.65122668 -0.59785541 -0.33784254
  H  0.84292752 -1.88568801 -0.03952590
  C -0.41254984 -0.41283288 -1.13239813
  H -0.73963538 -1.21784909 -1.78193332
  H -0.07593007  0.43175727 -1.72791045
  H -1.07708881  1.88284662  0.28365938
