11
opt_min/./Product_3133_0_opt.xyz
  C -1.29679172 -0.25763959 -0.05900205
  C  34.98222768  184.90057268 -55.09053298
  C  6.06206733 -177.78159078 -28.11323336
  N -90.20401449  157.23234184 -49.18875573
  C  72.68470599 -143.40263519  36.81777657
  H  15.53640148 -37.02235008  7.41506988
  H -0.66838033  175.11575100  40.64574851
  H  15.32542688 -53.88437284  26.24066994
  C  1.12988311 -3.41953865 -2.26190995
  H  0.69060611 -4.01184956 -1.44731396
  H  3.80348506 -5.26585461 -5.25228898
