11
opt_min/./Product_3395_0_opt.xyz
  N  1.97531100  0.83778400  0.11995200
  C  1.61504789 -0.35007241  0.31343156
  O  0.35722060 -0.74750187  0.19666459
  C -0.58023406  0.27640094 -0.14705532
  C -1.94947809 -0.28661145 -0.08117110
  C -3.18465342 -0.22834983  0.23740001
  H -2.11116042 -1.30880087 -0.50919441
  H -0.47676248  1.12021317  0.54088906
  H -0.35797037  0.63513520 -1.16180565
  H  2.24870428 -1.20458103  0.59252475
  H  2.96420723  1.01552303  0.24349729
