15
opt_min/./Product_251_0_opt.xyz
  C -1.66692800 -0.28682700 -0.25898000
  C -0.28054599 -0.40328984  0.36559281
  H -0.35017054 -0.93846713  1.31487730
  C  0.84862856 -0.93842864 -0.54775390
  H  1.32735193 -1.85002124 -0.20538185
  H  0.53549985 -1.06867908 -1.57908877
  C  1.65984257  0.35472621 -0.31384974
  H  2.56477705  0.22461722  0.27338541
  H  1.91036847  0.93138947 -1.19854774
  C  0.51453354  0.89023180  0.49500729
  N  0.35081009  2.00601031  1.03047431
  H -0.52836012  2.13141285  1.52630609
  H -2.41381335 -0.05922533  0.49902787
  H -1.68435324  0.50437897 -1.00349542
  H -1.94086996 -1.22725702 -0.72845603
