14
opt_min/./Product_6192_0_opt.xyz
  O -0.34575500  2.27221100  0.68523500
  C -0.47343315  1.14447473  0.30871211
  C  0.36753400  0.22459872 -0.56542857
  C  1.75218502 -0.08679217 -0.00988246
  H  2.32312387  0.83077552  0.08816224
  H  2.27679521 -0.76895679 -0.67164918
  H  1.66135739 -0.54364964  0.97143815
  H  0.45707497  0.60201565 -1.58489400
  C -0.71877646 -0.86464012 -0.38822696
  H -1.23231366 -1.11819366 -1.31011420
  H -0.36465380 -1.76594260  0.09966792
  C -1.52951013  0.07891594  0.52550660
  H -2.52485413  0.34878878  0.18313839
  H -1.60176421 -0.23230205  1.56541111
