13
opt_min/./Product_6614_0_opt.xyz
  C -2.12901000  0.46871500  0.44907100
  C -0.80066179  0.06228410  0.92371525
  C  0.20769691 -0.02399898 -0.13361162
  N  1.55586035 -0.11162107  0.39633008
  C  2.61363129 -0.31643255 -0.40287905
  O  2.56477731 -0.41390876 -1.60448298
  H  3.56356781 -0.37039222  0.16553822
  H  1.64512399 -0.09087654  1.39985914
  H  0.16904556  0.75844367 -0.90439909
  H -0.02276363 -0.96790119 -0.65898108
  H -2.19561164  1.50627599  0.79753740
  H -2.91587530 -0.07250162  0.97154632
  H -2.29645426  0.46380023 -0.63414237
