11
opt_min/./Product_10533_0_opt.xyz
  C  0.18826700 -0.27888300  0.22033300
  C -1.23441336 -0.31433273 -0.16875900
  C -1.67251249  1.01457501 -0.52817166
  N -2.00554231  2.07059893 -0.80821036
  H -1.84860063 -0.69263639  0.65348889
  H -1.37067192 -0.95898858 -1.04633086
  C  1.11790356 -0.44101252  1.11143002
  H  1.42923230 -0.69516762  2.09153387
  C  1.58659020  0.01057930 -0.24805393
  H  1.89928619  1.03584541 -0.39063142
  H  2.08705340 -0.69992818 -0.89592157
