12
opt_min/./Product_7987_0_opt.xyz
  N  2.80273500 -0.11280600 -0.08312200
  C  1.54962256  0.05302988 -0.48832414
  N  0.75928060  0.17792932 -1.47825209
  N  0.37331342  0.18544150  0.08938204
  C -0.76521842  0.27616732  0.88346168
  H -0.51935573  0.77422864  1.82238164
  C -2.10791081  0.40248525  0.26510809
  H -2.73463558  1.03712913 -0.31311939
  C -1.85507824 -0.75935992  0.80340505
  H -2.12464135 -1.77227950  0.97665416
  H  3.01868776 -0.12003205  0.89628627
  H  3.53595621 -0.15064118 -0.76613859
