8
opt_min/./Product_10200_1_opt.xyz
  C  0.53301900  0.54107300  0.17871100
  O  1.29573306 -0.61027560  0.08599156
  H  2.22325030 -0.38722683 -0.01528028
  C -0.79270485  0.48487885  0.17627030
  O -1.51536758 -0.65964911  0.07405033
  H -0.89558322 -1.39768522 -0.00804620
  H -1.39945832  1.37338610  0.25420455
  H  1.05267379  1.47945611  0.27357592
