11
opt_min/./Product_4041_0_opt.xyz
  O  1.87690200  0.85309000 -0.05044900
  C  0.61572507  0.36081714 -0.04740788
  C -0.52932284  1.05166215  0.03882132
  H -0.70557986  2.10255239  0.13870201
  N -1.58516098  0.12215976 -0.02194782
  H -2.54854850  0.42368114  0.03421387
  C -1.24780130 -1.14438065 -0.14550247
  C  0.27061360 -1.09439598 -0.18011748
  H  0.67160537 -1.71868585  0.62039148
  H  0.62888883 -1.51576002 -1.12178708
  H  2.50341990  0.12258149 -0.11921961
