11
opt_min/./Product_1452_0_opt.xyz
  O -2.04689566  0.41150375 -0.41250160
  C -1.39602658 -1.95522175 -1.89949920
  C -3.86796467 -7.90397068 -0.88046330
  N  1.14966279 -4.65664412 -6.24094508
  C  12.40509160 -3.10653091 -3.76113653
  O  4.57790263 -5.68698310  0.13396396
  H -5.12413976  14.21612929 -5.03946207
  H -17.71195721  5.63929720  0.11684582
  H -41.86002045 -4.30546429  18.71188055
  H -6.54910312  5.59708180  6.81080875
  H  0.60570415  6.81322268 -4.32470288
