14
opt_min/./Product_4071_0_opt.xyz
  C  2.19137400  0.18048200  0.68845500
  C  1.26837808  0.25282950 -0.25114481
  C  0.12554367 -0.70225778 -0.38833852
  C -1.22643890 -0.07175055 -0.14253159
  C -1.42461456  1.15882708  0.30565286
  H -2.42148477  1.53125041  0.45386678
  H -0.60445764  1.80478533  0.55183440
  O -2.29795314 -0.88462377 -0.40975754
  H -1.98381529 -1.71965472 -0.77090773
  H  0.13839116 -1.11942838 -1.40022697
  H  0.24732012 -1.52540123  0.32361752
  H  1.30006290  1.03800019 -0.99512258
  H  2.17956487 -0.59075830  1.44154632
  H  3.00125992  0.88673858  0.74617512
