9
opt_min/./Product_3176_0_opt.xyz
  O -1.61239900  0.63413400  0.18679900
  C -0.60587943 -0.14006755 -0.33461703
  H -0.99883960 -0.80661058 -1.13830424
  C  0.07242962 -1.13632475  0.59742132
  O  1.33227463 -0.99590848  0.35264437
  C  1.53705192  0.04033156 -0.56395937
  H  2.55317747  0.24207846 -0.84650438
  N  0.48755171  0.58026119 -0.97694054
  H -1.93809809  1.22985531 -0.49940970
