15
opt_min/./Product_7153_0_opt.xyz
  O  3.05047200 -0.51781100 -1.03484100
  C  1.83825520 -0.65679125 -0.67595800
  C  1.29586417  0.44453834  0.18456105
  C -0.20489303  0.65962485 -0.00235850
  C -0.98984801 -0.62177043  0.31062492
  C -2.45352302 -0.35935785  0.10037245
  O -3.01372684 -0.38895878 -0.95829749
  H -3.01674000 -0.12029666  1.02798674
  H -0.80119809 -0.93254554  1.33804096
  H -0.64869383 -1.39660630 -0.37556503
  H -0.40177786  0.94861253 -1.03526944
  H -0.54261304  1.46937644  0.64872483
  H  1.48907491  0.13604504  1.21813643
  H  1.83987148  1.38995418  0.01938496
  H  3.53733901  0.29719433 -0.74617613
