12
opt_min/./Product_8049_0_opt.xyz
  N  2.94187914 -0.00088753 -0.20783084
  C  4.49889832 -2.29676209  6.12948446
  C -1.30938748  0.34428119 -2.64214600
  C -2.30701914 -1.87609019 -6.33185434
  H  1.29905810  6.19180042  4.73851246
  H  6.79635801 -5.50388326  19.59830405
  N -0.89128867  16.18525422 -9.60101629
  C  0.71517278  8.52795104  0.57872590
  H  2.79080376  3.92415200  8.33436233
  N -10.78452301  5.11283280  6.99118958
  H  4.93268333  9.45235436  3.53570124
  H  12.80391509 -2.54786266 -9.28400433
