19
opt_min/./Product_11595_0_opt.xyz
  C  2.96811100  0.41292900 -0.21625300
  C  1.65777888  0.54013485 -0.13772043
  C  0.78947650 -0.14609005  0.86829668
  C -0.19038057 -1.14356598  0.22569448
  C -1.16819871 -0.53225657 -0.77202838
  C -2.10258756  0.50042708 -0.14880664
  O -3.09843619  0.83404640 -1.09393230
  H -3.46672545  1.69607479 -0.88563209
  H -2.56938676  0.07217265  0.75183450
  H -1.54197964  1.39036325  0.15605453
  H -1.78308588 -1.32977910 -1.18856003
  H -0.64030146 -0.07192471 -1.60760679
  H  0.39549628 -1.90781605 -0.28566826
  H -0.75267519 -1.63179042  1.02383153
  H  0.22106458  0.60779076  1.41619668
  H  1.41899718 -0.68270799  1.57617279
  H  1.13465640  1.18290448 -0.83451142
  H  3.54780624  0.93273941 -0.95885929
  H  3.52030753 -0.21528889  0.46158458
