12
opt_min/./Product_2160_0_opt.xyz
  O  2.22138500  0.84044300  0.24032500
  C  1.36988915 -0.20377781  0.47471210
  C  0.09031445 -0.14235106  0.15097609
  C -0.81462219  0.87314278 -0.47169346
  H -0.95003813  1.80199255  0.09195400
  H -0.61577706  1.11097990 -1.52246496
  O -1.92431461 -0.02267406 -0.32499341
  C -1.10324718 -1.03361011  0.27054578
  H -1.42520083 -1.27141289  1.29127922
  H -1.08598891 -1.94831336 -0.33237925
  H  1.78828918 -1.08395346  0.94473789
  H  3.11245550  0.60705006  0.51659204
