12
opt_min/./Product_2945_0_opt.xyz
  C  2.14689900 -0.17788100 -0.15020300
  C  0.81972430 -0.11230543 -0.07193603
  C -0.00324570  1.02312880  0.31812381
  H  0.38849249  1.98000991  0.59638623
  C -1.28297426  0.65254094  0.26179392
  H -2.14786112  1.24921357  0.48100673
  C -1.35093312 -0.77965195 -0.17339935
  H -1.81844943 -1.42178702  0.58183780
  H -1.90190933 -0.90808820 -1.11203010
  O -0.00309796 -1.16854846 -0.36436958
  H  2.65739540 -1.07345111 -0.45069403
  H  2.73642945  0.68549852  0.09348780
