11
opt_min/./Product_8366_0_opt.xyz
  C -0.77604600 -0.40814700 -0.76903500
  H -0.89586050 -1.09788750 -1.57439090
  C -1.46432289  0.03166184  0.29533256
  H -2.42086813 -0.15475280  0.74064752
  N -0.54110458  1.01890028  0.67255597
  H -0.19590548  1.06049038  1.62344345
  C  0.36475440  0.51258384 -0.37034911
  C  1.46651895 -0.36947980  0.12609126
  O  1.62334999 -0.68645646  1.27438686
  H  2.11562062 -0.76253213 -0.67532052
  H  0.71347446  1.27076880 -1.07198965
