14
opt_min/./Product_647_0_opt.xyz
  O -1.98789700  0.04173400 -0.82244900
  C -0.98951017 -0.01309079  0.15209294
  H -1.42187762  0.10918992  1.15505333
  C  0.22146549  0.93928283 -0.02699461
  H  0.35760493  1.75563943  0.67376263
  H  0.27614397  1.31385382 -1.05787845
  C  1.14801244 -0.32059644  0.21449765
  C  1.78574486  0.12430421 -0.98886208
  H  2.59195516  0.83465143 -0.72652289
  H  1.61508660 -0.32673808  1.20406899
  C -0.07316028 -1.23779492  0.05956208
  H -0.12841241 -1.68491253 -0.92757493
  H -0.20234798 -1.99639111  0.82125685
  H -2.41500238  0.90185858 -0.79790303
