16
opt_min/./Product_10814_0_opt.xyz
  C  1.98072500 -0.12102200 -0.15278600
  C  0.78621023 -0.21491510  0.81278546
  C -0.55482163  0.07124947  0.14927333
  C -0.95038236 -0.92892740 -0.92349647
  H -0.13222868 -1.11289058 -1.61533212
  H -1.21944419 -1.88279930 -0.47127979
  H -1.80326791 -0.56321153 -1.48927577
  C -1.63987535  0.72740412  0.95974905
  H -2.35150566  0.56281031  1.72977453
  C -1.05772285  1.48121150  0.07271267
  H -0.99985362  2.43970401 -0.38306061
  H  0.92256729  0.49814922  1.62706472
  H  0.74383443 -1.20960838  1.26177173
  H  2.67612255  0.64991998  0.16694752
  H  1.64668409  0.13871855 -1.15344699
  H  2.52100592 -1.06063102 -0.20943699
