12
opt_min/./Product_1693_0_opt.xyz
  C  2.68429500 -0.28751200  0.30711900
  C  1.40419711 -0.11111103  0.41815580
  C  0.12493060  0.08866632  0.43227727
  C -1.03007632 -0.21860512 -0.49106138
  H -0.99769927  0.29430001 -1.45113654
  H -1.22650775 -1.27820755 -0.64399276
  C -1.85616497  0.46139736  0.60395162
  H -2.33026061  1.40688308  0.32813593
  H -2.57617916 -0.17858295  1.12082579
  O -0.68549520  0.68404424  1.39643884
  H  3.32185811  0.45827498 -0.14538537
  H  3.17905137 -1.17624984  0.66754903
