9
opt_min/./Product_5719_0_opt.xyz
  N  1.88434800  0.02596300  0.19295500
  C  0.89033875  0.51286820 -0.50466138
  N  0.41784225  1.37489436 -1.31988146
  N -0.42407250  0.27091731 -0.72144493
  C -1.54243338 -0.41433320 -0.52321783
  O -1.58629562 -1.37848307  0.20746960
  H -2.39095720 -0.01494923 -1.09485019
  H  2.79100489  0.46368519  0.14958496
  H  1.73889454 -0.77774928  0.78246139
