12
opt_min/./Product_5222_0_opt.xyz
  C  2.05219800 -0.17856100 -0.02512900
  C  0.59894675  0.09844237 -0.04390263
  C -0.02643631  1.36245305 -0.22277519
  C -1.35070415  1.00134656 -0.12200241
  H -2.20620905  1.64950709 -0.20268956
  C -1.52903520 -0.47071768  0.10715291
  H -2.01625314 -0.73865808  1.04866453
  H -2.07820770 -0.93901726 -0.71611963
  O -0.20218640 -0.95413796  0.12581463
  H  2.46559294  0.17755513  0.91970343
  H  2.24559340 -1.24465424 -0.12030569
  H  2.54361489  0.37575464 -0.82117288
