11
opt_min/./Product_1317_0_opt.xyz
  C -1.66118800 -0.12895000  0.48195801
  C -0.31884690 -0.87856611  0.43996699
  C  0.72484450 -0.07775222 -0.15450845
  C  1.58288747  0.60967294 -0.65101080
  N  2.50332761  1.34963353 -1.18396267
  C  3.33162949  2.02234448 -1.67126904
  H -0.42157207 -1.80335005 -0.13267063
  H -0.00204017 -1.14103999  1.45177321
  H -1.50734650  0.93703887  0.32283134
  H -2.33375644 -0.47401918 -0.29792019
  H -2.15530435 -0.26087073  1.43819947
