14
opt_min/./Product_5649_0_opt.xyz
  C  2.38479313  0.76383798  0.03947437
  C  1.46968135 -0.15031445 -0.01328352
  C  0.52226695 -1.03366084 -0.08437736
  C -0.89590013 -0.73911684 -0.40084487
  H -1.33370729 -1.43126547 -1.11076510
  C -1.40433817  0.67128151 -0.41271134
  H -0.71277459  1.46988939 -0.19485341
  H -2.14545693  0.93465467 -1.15267897
  C -1.81028743 -0.25265572  0.69179290
  H -1.36872187 -0.09845671  1.66555449
  H -2.82753670 -0.61168933  0.72361674
  H  0.75122951 -2.07679138  0.11019342
  H  2.61953967  1.27609912  0.95942283
  H  2.98154895  1.01268719 -0.82396834
