13
opt_min/./Product_3443_0_opt.xyz
  N  2.39180020  0.46161054  0.28652155
  C  14.97587700  11.89302591 -31.92234449
  O  28.07864064  35.53113517  38.11799487
  C  16.77650657  27.46833503 -36.23932772
  C -10.60766921  10.84772694  33.44499045
  C -15.82854077  7.64053573  47.55986642
  H -59.85808547  62.65524455  42.95251730
  H  30.34967031  4.96688620 -23.67204164
  H -0.57545739  1.63502651 -6.91684848
  H -18.15725911 -53.99484171  23.82067543
  H  39.84457965 -2.65590339 -25.71419892
  H -18.35928584 -57.23577420  30.87481204
  H -41.05735334 -57.27962005 -21.24553313
