15
opt_min/./Product_7296_0_opt.xyz
  C -1.31343600 -1.26708000 -0.00628100
  C -1.57014389  0.20875902 -0.27662203
  C -0.33077710  1.05467225 -0.15059550
  O -0.47725084  2.39570681 -0.39367340
  H -1.37754662  2.57203231 -0.68628456
  C  0.84095833  0.56665541  0.20547429
  C  1.96645525  0.09015542  0.49348806
  C  3.14045193 -0.40649825  0.78653139
  H  4.01231344  0.22287100  0.85505288
  H  3.28045970 -1.46016080  0.96036354
  H -1.97373554  0.33268936 -1.29051979
  H -2.32331594  0.58572985  0.42646701
  H -0.56930283 -1.65372219 -0.69956072
  H -2.23326895 -1.83639928 -0.12065587
  H -0.93629363 -1.40541826  1.00463110
