12
opt_min/./Product_9543_0_opt.xyz
  C -1.73651900 -0.19259600 -0.06582000
  C -0.31588240 -0.70915286 -0.23541346
  H -0.27813963 -1.80401997 -0.31600415
  O  0.24039507 -0.19229790 -1.49261927
  C  1.26158226  0.52699234 -1.32760084
  C  1.52308371  0.53982041  0.14929571
  N  2.44860211  1.13990388  0.73039983
  H  2.46889184  1.02921053  1.74138251
  O  0.54379386 -0.24662569  0.73976399
  H -1.74165634  0.89060039 -0.17818366
  H -2.39218346 -0.64197937 -0.80247341
  H -2.07016980 -0.44453586  0.93826177
