13
opt_min/./Product_5187_1_opt.xyz
  C  1.81053500 -0.05418900  0.43768200
  C  0.83171775  1.04614607  0.10513901
  H  1.28648801  1.71704172 -0.62242289
  H  0.52657993  1.62473471  0.97394785
  C -0.19681264  0.04729881 -0.46373243
  C -1.54252687 -0.03860647  0.25549653
  H -2.36372838  0.17689002 -0.42593442
  H -1.71315355 -1.03638860  0.65489806
  H -1.60277030  0.66004234  1.08573231
  H -0.35219497  0.18035668 -1.53654408
  C  0.83182281 -1.05540648 -0.12917762
  H  0.53204353 -1.76622666  0.63785908
  H  1.22304564 -1.59547800 -0.98813011
