17
opt_min/./Product_7053_0_opt.xyz
  C -2.24249400  0.43008300  0.42467500
  C -0.98245234 -0.02405970 -0.31374818
  O -0.49889282  0.96935437 -1.18411782
  H -0.13649979  1.69800117 -0.66434120
  C  0.09175451 -0.47683829  0.68925361
  C  1.43146791 -0.74555148  0.01060118
  O  2.15924145  0.50285926 -0.09703806
  C  3.40921689  0.59812333 -0.15469015
  H  3.94400966 -0.38610067 -0.09374155
  H  2.04107125 -1.45785190  0.57837476
  H  1.28383413 -1.11743828 -1.00771813
  H -0.25752410 -1.37872004  1.19500375
  H  0.23997977  0.30914115  1.43487706
  H -1.23108992 -0.86406492 -0.97618077
  H -2.96705061  0.81297032 -0.29157932
  H -2.00925308  1.22429656  1.13445784
  H -2.68474846 -0.40335350  0.96572023
