17
opt_min/./Product_11919_0_opt.xyz
  C  2.30234900 -0.17307900 -0.52536700
  C  1.07327609 -0.70025488  0.19811067
  C -0.02146326  0.37855867  0.34663129
  H  0.46467934  1.26929108  0.76485678
  C -0.57177839  0.76574992 -0.98304108
  C -2.03681700  0.56082530 -0.86794254
  H -2.33177875 -0.14743487 -1.65083838
  H -2.55837148  1.48985581 -1.11541511
  C -2.31809206  0.05313411  0.51685048
  H -3.31089393 -0.17775917  0.86239448
  C -1.18654597 -0.05371852  1.19852432
  H -1.07253466 -0.39147401  2.21273391
  H  0.65200077 -1.54893478 -0.34355825
  H  1.34674571 -1.04564871  1.19907509
  H  3.01843755 -0.97763409 -0.67938075
  H  2.78494401  0.61278202  0.05069654
  H  2.01676922  0.23174795 -1.49262855
