10
opt_min/./Product_1791_0_opt.xyz
  O  2.22296800 -0.52712200  0.30813900
  C  0.89228164 -0.30563409  0.14188119
  C  0.23934089  0.94168897  0.01898457
  H  0.68202170  1.91381672 -0.00675388
  C -1.09230198  0.61293761 -0.06763623
  H -1.95899417  1.23157206 -0.17444743
  N -1.17076858 -0.72889404  0.01312684
  H -2.00173907 -1.29791272  0.00156940
  N  0.02470262 -1.30018927  0.14399439
  H  2.68431036 -0.41890941 -0.53042900
