13
opt_min/./Product_4729_0_opt.xyz
  C -0.89209800  1.19717300  0.26968000
  H -1.60162432  1.22514477  1.09329508
  H -0.62023666  2.19399842 -0.06225218
  C  0.14475209  0.12209889  0.20357387
  C  1.62750964  0.18292905  0.12594943
  H  2.01573222 -0.71460764 -0.35490692
  H  2.06295295  0.25271383  1.12365858
  H  1.94355181  1.05416867 -0.44729535
  C -0.81284611 -1.02408509  0.22382954
  H -1.51701938 -1.13001354  1.04488151
  H -0.47201481 -1.97934660 -0.16031447
  C -0.99323669  0.10439732 -0.74779758
  H -1.08605195  0.11557961 -1.81177794
