12
opt_min/./Product_10956_0_opt.xyz
  C  1.88014300 -0.64305500  0.00230000
  C  0.56857540 -0.42506480 -0.04049468
  C -0.17225895  0.85630656  0.14222207
  N  0.25067578  2.02677454  0.37765097
  H  1.26289233  2.10010416  0.45382722
  C -1.56123666  0.46432149 -0.01435237
  H -2.40267371  1.11985171  0.05030491
  C -1.57186553 -0.85469797 -0.25062244
  H -2.39718393 -1.52238474 -0.42131807
  O -0.34334904 -1.42652324 -0.27620696
  H  2.56117137  0.16757451  0.18953698
  H  2.29678594 -1.62241060 -0.14667195
