13
opt_min/./Product_10489_0_opt.xyz
  C  2.42738400  0.69189600 -0.10129300
  C  1.13350598  0.29816842 -0.03654275
  C  0.66765061 -0.93167772  0.55606700
  H  1.21942213 -1.62079453  1.16795518
  N -0.66414005 -0.89355265  0.52820672
  H -1.26897147 -1.65905541  0.79675727
  C -1.09993652  0.23955509 -0.16789136
  N -2.47793364  0.44065951 -0.30131430
  H -2.96872518 -0.35190684 -0.69843982
  H -2.65241852  1.26697377 -0.85417460
  C -0.03761753  0.97603412 -0.59510974
  H  2.67376898  1.67526078 -0.46026527
  H  3.22975348  0.05473236  0.23322926
