13
opt_min/./Product_1282_0_opt.xyz
  C -1.31634900  0.67518300 -0.05684400
  C -0.67335825 -0.60253708  0.47102310
  C  0.78947951 -0.76094262  0.10844907
  H  1.27615500 -1.58054618  0.63747314
  O  1.16615397 -0.65483849 -1.23487819
  C  1.65778052  0.32172625 -0.36285493
  H  2.72279729  0.27107952 -0.16441711
  H  1.25508971  1.31827733 -0.48894382
  H -0.75840019 -0.63945530  1.55847755
  H -1.19747224 -1.46618929  0.05417036
  H -0.87367438  1.54429213  0.42884282
  H -1.15935565  0.76047813 -1.12920524
  H -2.38152323  0.66731706  0.15075831
