11
opt_min/./Product_3653_0_opt.xyz
  O  4.29611888  6.34295129 -6.94281204
  C  4.24557750  5.48562296 -6.15970332
  C  4.63413989  4.66440828 -5.23955884
  C  4.14307113  4.50382635 -3.85273480
  H  3.69899462  5.39041793 -3.41434400
  C  3.60839431  3.17868335 -3.45380318
  H  3.60429609  2.38973247 -4.19779730
  H  2.80014381  3.12708333 -2.73901400
  N  4.86283753  3.66689022 -2.92237901
  H  5.68561724  3.22250289 -3.31863051
  H  5.32286917  3.90924888 -5.59648291
