15
opt_min/./Product_10335_0_opt.xyz
  C -1.72688400 -0.98369400 -0.17153900
  C -0.70654782  0.10481374  0.07413155
  O  0.51230252 -0.41882624  0.52361717
  C  1.62299498 -0.12152945 -0.20925184
  N  2.67226406 -0.66206823  0.37864652
  H  3.58317935 -0.52984572 -0.02644595
  H  2.60197611 -1.21446216  1.23278412
  C -0.72250734  1.38329972 -0.67067194
  H  0.23046692  1.84857742 -0.89138136
  H -1.50529723  1.55922020 -1.39594027
  N -1.18948556  1.30254303  0.70173192
  H -0.57845952  1.71585474  1.39700555
  H -2.57986984 -0.57605730 -0.70548229
  H -1.27551576 -1.78033903 -0.75936213
  H -2.06718470 -1.39230320  0.77787933
