13
opt_min/./Product_6415_0_opt.xyz
  O  1.00360700 -1.98671300  0.91683300
  C  1.33306540 -1.01398652  0.29201171
  C  0.52193302  0.21484963  0.12913929
  C  1.28799724  1.38437880 -0.30177453
  O  0.54394709  2.49104337 -0.27987851
  H  1.07284075  3.24862947 -0.57337214
  C -0.77379670  0.30640432  0.94196360
  H -0.91351216 -0.48715797  1.66043771
  H -1.05133140  1.29362712  1.27925560
  C -0.87940302 -0.01309148 -0.48308585
  H -1.10393897 -1.02543924 -0.78579216
  H -1.21661685  0.74795704 -1.17200262
  H  2.30819542 -0.95257883 -0.22611406
