12
opt_min/./Product_2640_0_opt.xyz
  C -1.79576172  0.47312049 -0.15199250
  C -1.10434835  0.49660089  1.16064465
  C  0.19271006  0.11317111  1.28175277
  C  0.90532013 -0.51277540  0.27872231
  C  2.14725232 -0.46177934 -0.18008434
  C  3.19272916 -0.63072248 -0.80604203
  H  4.14066695 -0.63979977 -1.25448055
  H  0.68779348  0.24643635  2.24324689
  H -1.62019183  0.94171171  1.99849453
  H -2.85677704  0.26244050 -0.02850153
  H -1.70604912  1.43173989 -0.66745926
  H -1.32386513 -0.28300784 -0.78317659
