17
opt_min/./Product_10759_0_opt.xyz
  O  3.78238900  0.35163100  1.12588600
  C  2.64801605  0.11705171  0.81855380
  C  1.99798312  0.53548060 -0.47062209
  C  0.65576304 -0.15827818 -0.69212433
  C -0.26864445 -0.04103399  0.45285521
  C -1.60696389 -0.60871903  0.19684993
  C -2.64503329  0.48352311  0.49529354
  H -2.57877700  0.78830409  1.53509122
  H -3.64543621  0.11039529  0.29086333
  H -2.46437466  1.35341942 -0.13228353
  H -1.77604775 -1.02940938 -0.80707907
  H -1.74662516 -1.40646747  0.93465652
  H  0.18800026  0.19903890 -1.61958912
  H  0.81353193 -1.23469922 -0.85149979
  H  2.68636815  0.34369807 -1.29820454
  H  1.85879259  1.61867777 -0.42129067
  H  1.95943304 -0.42183660  1.49774280
