7
opt_min/./Product_7912_0_opt.xyz
  C -0.85995500 -0.11643399 -0.17341996
  O  0.42363774 -0.72743096 -0.04873158
  C  1.44806712  0.02212060 -0.12190545
  N  2.38883700  0.67096827 -0.17987659
  H -1.27559112 -0.37363881 -1.14919918
  H -1.49409677 -0.52299877  0.61485238
  H -0.80069196  0.96783163 -0.07696056
