10
opt_min/./Product_2490_0_opt.xyz
  O  2.38514400  0.65061100 -0.14746500
  C  1.24227757  0.25311319 -0.01060902
  C  0.60984102 -1.00108317 -0.13385226
  H  1.03906724 -1.94298597 -0.39518811
  N -0.71517261 -0.85145659  0.14226565
  H -1.38743799 -1.60327082  0.12311098
  C -0.99050727  0.41205035  0.43674864
  H -1.95164184  0.80610492  0.69197061
  N  0.16111527  1.10507193  0.35511422
  H  0.25587390  2.09303968  0.52750308
