18
opt_min/./Product_6566_0_opt.xyz
  C  0.54392287  6.24698441  1.39884397
  C  0.77034099  4.83928666  0.85673295
  C -0.18803975  3.84571146  1.46069375
  C -0.90349566  3.02792428  0.74849829
  N -1.58304429  2.37873476 -0.02219969
  C -1.31845938  1.06167598 -0.54131702
  C -2.35263163  0.07505880 -0.00832880
  H -2.20068389 -0.90053378 -0.46329570
  H -2.25721027 -0.02221418  1.07086311
  H -3.35626327  0.42257323 -0.23774817
  H -0.30533061  0.71148606 -0.29803365
  H -1.41155973  1.13685732 -1.63029854
  H -0.22039477  3.78352383  2.53752040
  H  1.79609691  4.52737958  1.08508073
  H  0.65464288  4.83895815 -0.22869604
  H -0.46332901  6.58587530  1.16632072
  H  0.67236960  6.26620701  2.47927681
  H  1.25372499  6.94181264  0.95497243
