7
opt_min/./Product_3417_0_opt.xyz
  O  2.24457700 -0.52186600  0.08485500
  N  1.09105227 -0.79745703  0.37334682
  C  0.15114119  0.22641243  0.26477476
  H  0.47969488  1.24233968  0.03160719
  N -1.05359571  0.08468101  1.17285534
  C -1.24073277 -0.18780484 -0.01745098
  H -1.93426583 -0.52045707 -0.75250396
