12
opt_min/./Product_5356_0_opt.xyz
  O -2.05279600  0.42895100 -0.75457500
  C -0.98774093  0.71772281  0.09605291
  H -1.00675389  1.74000487  0.47797775
  C -0.42091583 -0.36415518  1.00685838
  H -0.88866086 -1.34015473  0.96368845
  H -0.08581996 -0.07781449  1.99568553
  C  0.31181330  0.10858158 -0.18164886
  C  1.38961798  0.00598771 -0.92261634
  O  2.43239822 -0.83235992 -0.68144272
  H  2.24882501 -1.34723706  0.11554616
  H  1.54608027  0.59332883 -1.81602372
  H -2.87669551  0.42113255 -0.25227358
