12
opt_min/./Product_8748_0_opt.xyz
  N  2.41814900  0.01773200  0.34806100
  C  1.32631571  0.07749756 -0.47627051
  O  1.41071774  0.19606059 -1.67519866
  N  0.12953537 -0.01748896  0.20141733
  C -1.09778710  0.02958785 -0.43297112
  C -2.26294961 -0.05644992  0.19100988
  H -2.33707122 -0.17223055  1.25915297
  H -3.18795933 -0.01367476 -0.35019494
  H -1.01693191  0.14460107 -1.50378079
  H  0.13870208 -0.12650910  1.20423860
  H  2.33688867  0.08521999  1.34581319
  H  3.31947037  0.18341819 -0.06204961
