14
opt_min/./Product_9402_0_opt.xyz
  O  2.75626200 -0.62203300  1.84463400
  C  2.75347814 -0.01408763  0.82008973
  C  1.55604370  0.26352440 -0.05884964
  O  0.40616585 -0.32256614  0.48089793
  C -0.75622199 -0.07206439 -0.26012199
  N -1.79771037 -0.87957849  0.28054635
  C -2.86708041 -0.35986493  0.66252534
  H -3.08566844  0.71711571  0.60458969
  H -3.64570230 -1.00465410  1.04009788
  H -0.61375424 -0.38907611 -1.30900816
  H -0.99254004  1.02240493 -0.25324816
  H  1.44292818  1.35826981 -0.15302934
  H  1.77089789 -0.12597174 -1.06804034
  H  3.67864839  0.45818144  0.42553231
