9
opt_min/./Product_3049_1_opt.xyz
  O  2.08555200 -0.04617000 -0.04282699
  C  0.81629588 -0.36510275  0.12163644
  C -0.14025072 -0.98951943  0.73779790
  H -0.47862239 -1.63805385  1.50362331
  C -0.55252048 -0.18198198 -0.49159750
  C -1.22253390  1.06296805 -0.32029857
  N -1.73099063  2.08145829 -0.18855435
  H -0.82026815 -0.69122441 -1.41696056
  H  2.20002668  0.57221619 -0.77790842
