11
opt_min/./Product_9460_0_opt.xyz
  O  2.44298900  0.94808700  0.28392900
  C  1.34471037  0.45883211  0.16330852
  N  0.13154264  1.11996524  0.07829476
  H  0.02332532  2.11816184  0.02938441
  C -0.89346619  0.21348553 -0.07237828
  O -2.15728369  0.67503210 -0.21436971
  H -2.78241737 -0.04150749 -0.05922496
  C -0.36441416 -1.02550595 -0.06204868
  H -0.81035709 -1.99431611 -0.12816101
  N  1.01141767 -0.86634776  0.09752868
  H  1.68614720 -1.61042169  0.12509474
