10
opt_min/./Product_2624_0_opt.xyz
  O  0.41175693  1.09753198 -0.18057329
  C -0.93780468  0.76312029  0.16839861
  H -1.63863693  1.08528773 -0.60365181
  H -1.22616570  1.19777720  1.12707019
  C -0.58727579 -0.73113443  0.18842018
  H -1.03872226 -1.32237047 -0.60381899
  H -0.68445040 -1.25039611  1.13482820
  C  0.78640573 -0.22888869 -0.15874349
  N  1.86849129 -0.80028147 -0.36472706
  H  2.65117466 -0.19834420 -0.59702901
