12
opt_min/./Product_4596_0_opt.xyz
  C -1.77794800 -0.46277300  0.14084600
  C -0.45067950  0.05937436 -0.19702859
  N  0.82186637 -0.03385149  0.03847463
  C  1.86182767 -0.55888569  0.60710737
  H  2.83738953 -0.18022683  0.37822515
  H  1.73789395 -1.42269219  1.23037513
  C  0.41948919  1.05461539 -0.83250969
  H  0.53199622  2.06488654 -0.43618485
  H  0.69107814  0.97697755 -1.88700040
  H -2.31413274 -0.82017542 -0.74341419
  H -2.39936723  0.30191394  0.61601367
  H -1.65930663 -1.29352359  0.83438785
