11
opt_min/./Product_4943_0_opt.xyz
  O -2.12584500  0.78057400  0.63208400
  C -1.31251264 -0.01085131 -0.20005922
  C  0.10718878  0.21806201  0.22017441
  O  1.04486210 -0.45980727 -0.33848399
  C  2.31648831 -0.41683718 -0.11126339
  H  2.74580477  0.24204730  0.62584121
  H  2.92285956 -1.06298976 -0.71342494
  H  0.31007858  0.93415402  1.00234619
  H -1.45380238  0.25818017 -1.26082903
  H -1.57712237 -1.07911668 -0.09586803
  H -3.03819541  0.73146198  0.32504980
