12
opt_min/./Product_1664_0_opt.xyz
  C -1.88068500 -0.10860400 -0.08507600
  H -2.19826517 -1.14580044  0.03345076
  H -2.76388844  0.49007444 -0.31670368
  O -1.14290542  0.38584388  1.03755292
  C -0.01784793  0.56663731  0.16812318
  C  1.19049631 -0.27070601  0.61338153
  O  2.27838646  0.00465444 -0.22662289
  H  3.09285183 -0.26341447  0.20650357
  H  1.39199840 -0.00680480  1.65764548
  H  0.91458499 -1.33142622  0.56544889
  H  0.29538770  1.61055106  0.07891548
  C -0.75623933  0.07676110 -1.05020303
