11
opt_min/./Product_2414_0_opt.xyz
  C -0.52399700  1.39367900  0.86881400
  C -0.09749652  0.51171582 -0.20920709
  H  0.02767322  0.96584819 -1.20025636
  C  1.06644425 -0.43132587  0.19280033
  H  1.90431618 -0.43843967 -0.50886919
  H  1.43606415 -0.25669030  1.20854201
  O  0.27088109 -1.59979040  0.08741032
  C -0.88633946 -0.82795059 -0.23026489
  H -1.64683400 -0.91550604  0.54878843
  H -1.30100368 -1.07442370 -1.20985769
  H -0.49107701  2.44627093  0.53380623
