12
opt_min/./Product_3499_0_opt.xyz
  O -1.81003600 -0.17634200  1.01724700
  C -0.97897197  0.22879991 -0.04159580
  H -1.52359628  0.92323041 -0.69600658
  C  0.39404469  0.77653041  0.44837568
  H  0.51840323  0.73928025  1.52663980
  H  0.64595263  1.76859055  0.07649929
  C  0.97863320 -0.36960621 -0.33815733
  O  2.25899029 -0.72025280 -0.55576558
  H  2.84534645 -0.13097885 -0.06671408
  C -0.19415617 -0.84629626 -0.76054767
  H -0.48591238 -1.66736794 -1.38260687
  H -2.35605707 -0.90951864  0.71505732
