10
opt_min/./Product_6124_0_opt.xyz
  C -0.11528400  0.83487100 -0.95161000
  H -0.40072616  1.47342841 -1.75345342
  C -0.85275923 -0.34619285 -0.37135199
  H -0.97388195 -1.19721068 -1.07368589
  H -1.87149937 -0.10788804  0.00563399
  N  0.07115115 -0.64962665  0.70624869
  H -0.06974773 -1.37604858  1.37942556
  C  1.12085033  0.25259154  0.72094089
  H  1.92610174  0.26754614  1.41750744
  O  0.98153227  1.09813094 -0.24121281
