13
opt_min/./Product_110_0_opt.xyz
  C  0.68891400 -0.89128700 -0.61656500
  H  0.98188992 -1.02485375 -1.66083321
  H  0.87419866 -1.82582032 -0.08480476
  C  1.43528506  0.22880991  0.05454406
  H  2.50837947  0.21985802  0.13083413
  C  0.62892762  1.16663726  0.53486558
  H  0.91973734  2.06366333  1.05167995
  C -0.78852146  0.81899169  0.27287710
  H -1.52491453  1.59565808  0.09896556
  C -0.76377812 -0.47084394 -0.47112550
  H -1.46837402 -0.69919380 -1.26133157
  N -1.18194277 -0.42940881  0.91069979
  H -2.18332943 -0.52159156  1.04970000
