9
opt_min/./Product_8115_0_opt.xyz
  C -1.25389900 -0.46261800 -0.00520800
  N  0.12385432 -0.11573365 -0.19937296
  C  1.11175713 -0.70220405  0.43910620
  O  2.28982087 -0.11945753  0.04388761
  H  3.01386963 -0.55306477  0.50724447
  H  0.32232831  0.64031774 -0.86109719
  H -1.79980950  0.35394406  0.47561482
  H -1.72761433 -0.67918473 -0.96504101
  H -1.29456473 -1.34394309  0.63098458
