13
opt_min/./Product_1562_0_opt.xyz
  N  2.34001300 -0.13842100 -0.22019800
  C  0.97490711 -0.07254580 -0.02579906
  C  0.10879270 -0.98982220  0.40029091
  H  0.34017752 -1.98062146  0.72997020
  C -1.28201929 -0.42273357  0.33544997
  H -1.76370968 -0.37301331  1.31512736
  H -1.93035352 -1.00783996 -0.32144693
  C -1.01104209  0.98407872 -0.23220419
  H -1.47893413  1.13499303 -1.21057444
  H -1.34833707  1.77846268  0.43999321
  O  0.39910667  1.11564995 -0.39740248
  H  2.74894402  0.77363436 -0.36805839
  H  2.83843448 -0.68716974  0.46475676
