17
opt_min/./Product_7030_0_opt.xyz
  C  1.07011500  1.30270000 -0.08984500
  C  0.27767426  0.06441278  0.32372068
  O  1.15170728 -0.84143876  1.03994190
  C  1.91627685 -1.59499335  0.30993292
  H  2.50336517 -2.18919096  1.04373311
  C -1.00767502  0.29601533  1.14082343
  H -1.00742548 -0.20277508  2.10472550
  H -1.24542479  1.34564225  1.28209737
  C -1.83735390 -0.39859860  0.04275317
  H -2.56731061  0.24201370 -0.43820652
  H -2.31699110 -1.31456301  0.36848100
  C -0.55221466 -0.62794897 -0.77645792
  H -0.51819880 -0.13971574 -1.74461236
  H -0.27719957 -1.67253755 -0.90456929
  H  0.92261107  1.53309218 -1.14070468
  H  0.77891925  2.16992974  0.49545225
  H  2.13260029  1.13568020  0.06502348
