15
opt_min/./Product_11882_0_opt.xyz
  C  1.91899000 -0.41420800  0.54606400
  C  1.09736287  0.03456916 -0.65986745
  N -0.29073191  0.19310469 -0.31214946
  C -0.87836357  1.31135911  0.24191822
  H -0.27723391  2.18849965  0.38928953
  C -2.21623319  1.08687421  0.50831566
  N -2.36192987 -0.22451449  0.08875536
  H -3.23657316 -0.72112056  0.13628439
  C -1.22615789 -0.74780883 -0.39213717
  H -1.08584030 -1.73456381 -0.79065633
  H  1.18099775 -0.69442242 -1.47246519
  H  1.46960094  0.99976343 -1.01998487
  H  1.59532117 -1.39828276  0.88099305
  H  2.97434055 -0.46129505  0.28822356
  H  1.79078758  0.28950825  1.36652029
