12
opt_min/./Product_7892_0_opt.xyz
  C  1.61323000 -0.98629100  0.21185800
  C  0.71095993  0.00506376  0.14828642
  N  1.07922730  1.19382066  0.78349850
  O  0.22475241  1.98127524  1.15235915
  C -0.56155518 -0.13900217 -0.61755563
  H -0.56090226 -0.98164360 -1.30699976
  C -1.85425925  0.31314972 -0.07836735
  H -2.75887905 -0.20660549 -0.37269821
  H -1.88120539  0.80829871  0.88488619
  O -1.19838911  1.00609249 -1.09682212
  H  1.43602709 -1.94249899 -0.24902576
  H  2.51715128 -0.86073641  0.77911751
