12
opt_min/./Product_1265_0_opt.xyz
  C -2.51165309  0.50081672  0.66738938
  N -1.15165778  0.52249767  0.40591003
  C  0.01333620  0.51954227  0.19745402
  C  1.30206319  0.55178223 -0.06699249
  N  1.99961082 -0.53433451 -0.64081141
  C  1.43292468 -1.66083360 -0.94002131
  H  2.18973912 -2.34534707 -1.38332554
  H  2.98947626 -0.28780885 -0.78108629
  H  1.88224613  1.42143385  0.19311821
  H -2.88440375 -0.50552486  0.46043116
  H -2.70576119  0.73518323  1.71981747
  H -3.04776982  1.21150858  0.02745059
