13
opt_min/./Product_7965_0_opt.xyz
  N  1.48352300  1.74256500 -0.26254800
  C  1.32325193  0.53929685 -0.03437866
  O  2.19132721 -0.46123218  0.49833717
  C  1.09749468 -1.33157325  0.38655882
  H  1.15161777 -2.36086317  0.68150042
  C  0.22881918 -0.45579044 -0.14304671
  C -1.19613361 -0.37481816 -0.56136577
  N -1.95711640  0.63646590  0.15342589
  H -1.92552569  0.46049870  1.15306675
  H -1.55228373  1.55235657 -0.01355462
  H -1.25366554 -0.13363761 -1.62839902
  H -1.67049347 -1.34868299 -0.40451316
  H  2.40514192  2.11683326 -0.05404377
