10
opt_min/./Product_3682_0_opt.xyz
  C  1.18714300  0.68012000 -0.05329200
  H  2.13448693  1.19702778 -0.09519044
  C  1.15099161 -0.68665655 -0.01891994
  H  2.04949722 -1.29143655 -0.03201753
  N -0.00525659 -1.37971885  0.03373160
  C -1.09277894 -0.67844925  0.05033076
  H -2.04004975 -1.20223682  0.09239640
  N -1.10569884  0.66807978  0.01796736
  H -2.00660273  1.13674964  0.03444795
  C -0.00697611  1.47065643 -0.03556696
