11
opt_min/./Product_2405_0_opt.xyz
  C  1.46106200  0.33816400 -0.04011000
  C  0.17363793 -0.35577187  0.38760934
  H  0.40598416 -1.14955078  1.10859315
  C -0.94070234  0.50868338  0.90475182
  C -1.71205346 -0.09329336 -0.21578047
  H -2.57825076 -0.69862996  0.07343913
  H -2.07020103  0.63059395 -0.95519015
  O -0.62422273 -0.88379817 -0.68898989
  H  1.24952978  1.01800933 -0.86043931
  H  2.18634972 -0.39848462 -0.37584813
  H  1.84750971  0.88640793  0.81348291
