13
opt_min/./Product_2907_0_opt.xyz
  C  2.15878700 -0.05569700 -0.49591100
  N  0.99606069  0.40046551 -0.51533633
  C  0.20278273  0.42331788  0.67739429
  C -1.02198241 -0.47994598  0.47896678
  C -1.76376830 -0.07784571 -0.76660655
  O -2.12903049 -0.82292492 -1.62840225
  H -1.94197464  1.01227486 -0.82593929
  H -1.68977849 -0.35340247  1.33550207
  H -0.72057136 -1.52664420  0.40398818
  H  0.76485270  0.09878805  1.57014563
  H -0.13305615  1.45725713  0.82165957
  H  2.73030825 -0.07401043 -1.41335090
  H  2.66117464 -0.44489409  0.39623876
