15
opt_min/./Product_10481_0_opt.xyz
  C -2.28798800  0.91526000 -0.15610200
  C -1.49124216 -0.30923757 -0.22699760
  C -1.17019927 -1.44240487 -0.78571822
  H -1.29088972 -2.17457755 -1.54545824
  C -0.37456900 -1.05112610  0.42770679
  N  0.96164653 -0.55691005  0.28369933
  C  1.23803150  0.74190245  0.24510218
  N  2.54413678  1.00368653  0.19042963
  H  3.27229757  0.28687125  0.26293808
  H  2.85543874  1.95758048  0.21150362
  H  1.70494501 -1.26224764  0.38150546
  H -0.53237421 -1.57608648  1.37199157
  H -1.63855615  1.76737634 -0.35571649
  H -3.09494635  0.89109344 -0.88654391
  H -2.70130819  1.03878408  0.84375236
