14
opt_min/./Product_11210_0_opt.xyz
  N  3.05213000  1.06116902 -1.31025899
  C  2.14302106  0.87989909 -0.63704518
  C  1.00806853  0.63260566  0.17257638
  H  1.20594431  0.62756234  1.23563857
  C -0.03108512 -0.35941028 -0.35668603
  C -0.62052122 -1.31876403  0.59895054
  C -1.32977249 -1.02160010  1.67527809
  H -1.57416840 -0.01224916  1.95750525
  H -1.70316270 -1.79417284  2.32397624
  H -0.41061460 -2.35640802  0.37616577
  H  0.19001216 -0.79124264 -1.32279289
  C -0.33346283  1.10603253 -0.31944172
  H -1.03582876  1.49053018  0.40072987
  H -0.35492411  1.62993188 -1.26189600
