11
opt_min/./Product_890_0_opt.xyz
  N  0.48346700  0.85539400  1.14612000
  C  0.59097348  0.10635694  0.14384514
  C  1.94711741 -0.31678768 -0.27547237
  C  2.34936618 -1.07794716 -1.23735386
  H  2.70898708  0.09629913  0.37961497
  O -0.35760749 -0.41722527 -0.65822048
  C -1.70852318 -0.10812925 -0.37234049
  H -2.29445963 -0.62502483 -1.12981609
  H -1.99106145 -0.46976722  0.62041641
  H -1.88562133  0.97011558 -0.44078955
  H -0.45510223  1.12931936  1.41938736
