12
opt_min/./Product_10307_0_opt.xyz
  C -1.77534769  0.15044583  0.24069182
  N -0.35468598  0.03497657  0.07488520
  C  0.54906641 -0.76174261  0.67393771
  H  0.45843824 -1.50565078  1.42604682
  C  1.62696525 -0.14698995 -0.18461243
  H  2.41028032  0.39659531  0.33306964
  H  2.07043470 -0.83162075 -0.90302804
  C  0.49315584  0.67756724 -0.74216423
  H  0.34282875  1.43751167 -1.47003431
  H -2.07547354  1.19379242  0.14077861
  H -2.30020294 -0.43547144 -0.51833905
  H -2.05939571 -0.21934143  1.22537709
