7
opt_min/./Product_3614_1_opt.xyz
  C -1.29638799 -0.03389539 -0.01845358
  C -0.00443595 -0.00433914 -0.01226308
  C  1.28880249  0.02997416  0.01382210
  H  1.82653178  0.70141718  0.66419028
  H  1.89767425 -0.62320818 -0.59075286
  H -1.85385963 -0.67618252  0.64462635
  H -1.88288874  0.57958471 -0.68255505
