19
opt_min/./Product_9422_0_opt.xyz
  C -2.64227100  0.68645800 -0.36573100
  C -1.57687485 -0.32592257  0.02275595
  O -0.31615398  0.22078272 -0.27468199
  C  0.79584615 -0.56825670  0.12737586
  C  1.02048157 -1.77370475 -0.80695509
  H  0.18380063 -2.46635703 -0.75957287
  H  1.93159437 -2.28954960 -0.51829015
  H  1.12105239 -1.41076717 -1.82680843
  C  2.07219608  0.14403986  0.30571991
  C  2.04025835  1.60331256  0.15856754
  H  2.14038484  1.96140216  1.18978971
  H  1.14628069  2.03698833 -0.29412805
  H  2.94668144  1.93561147 -0.34946692
  H  0.61436282 -0.96815321  1.14719357
  H -1.73630622 -1.26552987 -0.52933109
  H -1.64553427 -0.55173706  1.10120407
  H -3.62684253  0.31448510 -0.09356283
  H -2.61000761  0.86784525 -1.43762848
  H -2.45935433  1.62650065  0.14952481
