15
opt_min/./Product_7163_0_opt.xyz
  C -1.51096002  1.11820599  0.30621265
  C -36.66772205 -10.51606340  15.37660195
  H  6.75619304 -2.00399359 -63.69761864
  C  62.30676784 -16.45313230 -2.97649612
  H  4.79839620 -56.59660113  48.45717770
  H -23.13823637  1.33399984 -12.03611354
  N -38.83881749  2.31612949  6.89561475
  C -13.42235252 -10.53915438  27.80862301
  C -5.70359582  11.24227143  23.82152002
  N -27.09966880  13.51210685  0.98221748
  H  13.46648078 -15.43652408 -2.05679118
  H -0.89246679 -9.75378871  22.64385617
  H  10.38941232  5.01657944  1.41401317
  H  14.71259308  8.85182239  0.55222846
  H  20.99837830 -14.05971158 -3.31096365
