16
opt_min/./Product_8585_0_opt.xyz
  C -2.19566500  0.06543200 -0.94872000
  N -1.17506493 -0.30264707  0.02686611
  H -1.54509779 -1.00891721  0.66556979
  C -0.86349037  0.88506025  0.97483989
  C  0.48302431  0.99766061  0.85753605
  H  1.06979819  1.72856339  1.38517643
  C  1.07257986  0.04261462 -0.06200244
  C  2.52238562 -0.03741463 -0.38654579
  H  2.84787264  0.89596502 -0.84379773
  H  3.09497607 -0.18040964  0.52992188
  H  2.72951264 -0.86292799 -1.06435346
  C  0.08831307 -0.72534133 -0.55314234
  H  0.09112049 -1.53989327 -1.25343850
  H -3.08181873  0.41846871 -0.42214045
  H -2.45899793 -0.77827230 -1.58906862
  H -1.80487908  0.87629546 -1.56113525
