13
opt_min/./Product_3705_0_opt.xyz
  C  0.09076600  1.44351700 -0.02690600
  C  0.27698635 -0.03506052 -0.04896857
  N  1.40248358 -0.55611197  0.32658273
  O  1.71710288 -1.77099335  0.38071408
  H  2.13804911  0.11928010  0.60862390
  C -0.85166753 -0.92849607 -0.47290942
  O -2.01977939 -0.75290240  0.30494487
  H -1.77179280 -0.73073894  1.23600371
  H -0.50590035 -1.97073599 -0.42618509
  H -1.15595335 -0.69322391 -1.49718736
  H -0.63929415  1.72287309  0.73508330
  H  1.02695148  1.95567426  0.18932168
  H -0.29398947  1.78899512 -0.98429475
