12
opt_min/./Product_9506_0_opt.xyz
  C -1.67548900  1.20723000 -0.07030300
  C -0.62221193  0.40673069 -0.03447370
  C -0.54156639 -1.06445602 -0.43203026
  H -1.16841763 -1.69813622  0.20285461
  H -0.79562863 -1.23938217 -1.47973171
  O  0.82709199 -1.39204000 -0.21589980
  C  1.38576942 -0.26707994  0.26160598
  O  2.67353943 -0.33834531  0.53406864
  H  2.97630924  0.50501651  0.89512552
  N  0.65504312  0.77091749  0.38324622
  H -2.63116166  0.85134861 -0.40868774
  H -1.59866944  2.23074583  0.24108695
