11
opt_min/./Product_9447_0_opt.xyz
  O  2.20515900  0.56293300 -0.13664800
  C  0.89141876  0.27897795 -0.10123310
  N -0.13172872  1.11541203  0.08870184
  H -0.08954802  2.11315188  0.21108458
  C -1.39147778  0.37235082  0.05403425
  O -2.46066643  0.93620737  0.19760330
  C -0.96381063 -0.93241124 -0.15759767
  H -1.53089043 -1.82858991 -0.26028652
  N  0.42497915 -0.94764377 -0.24431390
  H  0.98739727 -1.76545956 -0.40503767
  H  2.36730166  1.49492119  0.04907411
