14
opt_min/./Product_10006_0_opt.xyz
  C -1.87962100  1.04488300  0.43472700
  O -0.73668344  0.36886472  0.89069600
  C -0.29226235 -0.62952556  0.00824499
  C  0.99178446 -1.24193972  0.56804351
  N  2.06611409 -0.32035189  0.59764170
  C  2.57746966  0.60768448  0.06163047
  O  3.21798679  1.49651839 -0.31908723
  H  0.82945687 -1.55277862  1.60387964
  H  1.26986931 -2.11242659 -0.03645770
  H -1.05469466 -1.41800721 -0.10392807
  H -0.10060903 -0.20118146 -0.99056565
  H -2.72458372  0.35576151  0.30687255
  H -1.68880575  1.54966207 -0.52013408
  H -2.12110929  1.78350502  1.19693131
