15
opt_min/./Product_10450_0_opt.xyz
  O  3.47365500  0.13473400  0.17594700
  C  2.12735568  0.50197218  0.03265648
  C  1.22244463 -0.50483375 -0.47816972
  C -0.19527668 -0.01723665 -0.57915794
  O -0.83249727 -0.61588989  0.54317376
  C -2.20912453 -0.53857727  0.51699117
  O -2.62819907  0.80536719  0.58851473
  H -3.57274126  0.85905531  0.41160818
  H -2.53526193 -1.09964268  1.40607752
  H -2.62620255 -1.01361494 -0.39204979
  H -0.63238104 -0.41406653 -1.50896864
  H -0.32710890  1.07691171 -0.54552915
  H  1.75191224  0.83831574  1.01679206
  H  2.08294842  1.40632216 -0.60513907
  H  3.54913297 -0.79483194 -0.08375301
