13
opt_min/./Product_11825_0_opt.xyz
  C  0.46227100  1.05668200 -0.57013700
  C -0.25234980 -0.21142015 -0.09647915
  O -0.56563906 -1.00814609 -1.22206510
  H -1.16389351 -1.71121340 -0.93657720
  C -1.50792250  0.18474398  0.65495007
  O -2.60907324 -0.19694284  0.38052105
  H -1.31550705  0.86547714  1.50748074
  C  0.57101013 -1.18127248  0.76939728
  O  1.81864702 -0.78332875  0.83879861
  H  2.37426041 -1.43871323  1.29708851
  H -0.26218241  1.79864099 -0.89492736
  H  1.07045072  1.46819923  0.23048109
  H  1.09656946  0.79501472 -1.41230005
