16
opt_min/./Product_11776_0_opt.xyz
  C -0.90325600 -1.28988300  0.18913000
  C -0.34807925  0.11800735  0.08525902
  C  1.17423656  0.19653313  0.24098708
  N  1.78651150 -0.67309306 -0.74865213
  H  2.63236771 -1.10127718 -0.40024780
  H  2.01433973 -0.16292239 -1.59036897
  H  1.43918473 -0.13086275  1.24661277
  H  1.46533543  1.25161440  0.13657107
  C -1.19258287  1.29886745  0.61199772
  H -2.16370672  1.10238398  1.03244031
  H -0.68004531  2.12110110  1.08606427
  C -0.99454630  1.06622537 -0.82349827
  O -1.22714692  1.42997363 -1.93519575
  H -1.96190342 -1.27609286  0.42867444
  H -0.37790010 -1.83566350  0.96457083
  H -0.77771359 -1.81399876 -0.75212721
