14
opt_min/./Product_6373_0_opt.xyz
  C  2.59667200  0.05728600 -0.06820700
  N  1.27861287 -0.30766778 -0.46530086
  C  0.28522663 -0.03603617  0.25038399
  C -1.08228256 -0.40751566 -0.16449830
  C -2.18068824  0.60536469  0.08000643
  H -2.84282790  0.26862469  0.87702047
  H -2.77081487  0.74037970 -0.82432182
  H -1.74794023  1.56140196  0.35815024
  N -1.26462067 -1.38422404 -1.21790654
  N -1.43653733 -1.81525249 -0.09241815
  H  0.34769844  0.46393780  1.23179442
  H  3.23882851 -0.81340564 -0.19799803
  H  2.66561117  0.42954255  0.96208359
  H  2.94758383  0.83158272 -0.75244078
