14
opt_min/./Product_7952_0_opt.xyz
  C -3.24135244 -2.50334503 -6.78716709
  C -2.76653123 -2.77362817 -5.36517041
  C -1.26835162 -2.74355242 -5.25468734
  C -0.59588506 -2.23625654 -4.25802266
  N  0.19916133 -2.18494219 -3.34750579
  N  0.70478750 -1.61654846 -2.37221658
  N  1.94163852 -1.63276105 -2.12760094
  H  2.11513082 -1.12792242 -1.25692671
  H -0.71687160 -3.16658371 -6.08606451
  H -3.21344970 -2.06199434 -4.66920212
  H -3.09654589 -3.77738229 -5.06886763
  H -4.30707835 -2.70334113 -6.87294217
  H -2.71564564 -3.14381243 -7.49232500
  H -3.06411416 -1.46718790 -7.06720469
