13
opt_min/./Product_3279_0_opt.xyz
  C -1.15274800  1.06864400 -0.07203000
  C -0.47905033 -0.24299814  0.14640974
  N  0.85620214 -0.35046465  0.22911738
  C  1.80886275  0.52934869  0.13877823
  H  2.82996753  0.21372204  0.23348612
  H  1.58662951  1.56534046 -0.03465420
  H  1.08881081 -1.34614025  0.37538621
  C -1.13550802 -1.48859621  0.27811460
  O -0.51694581 -2.54291694  0.43917450
  H -2.23348161 -1.47625451  0.23779723
  H -0.81262050  1.80749702  0.65389522
  H -0.93885526  1.45335271 -1.07156759
  H -2.22733027  0.95645368  0.03012232
