14
opt_min/./Product_9200_0_opt.xyz
  O  2.69013792 -0.04347533  1.20093327
  C  2.26226385  0.38448276 -0.07863471
  C  0.84444678  0.10400002 -0.22680630
  C -0.32408775 -0.14738628 -0.32034110
  C -1.73695293 -0.46204922 -0.39587398
  N -2.34605006 -0.44128967  0.94544508
  C -2.88993763  0.54258642  1.57792881
  H -3.05495607  1.39974297  0.89177621
  H -2.03110089 -1.20922836  1.53318115
  H -1.86305958 -1.45864002 -0.83502817
  H -2.25365084  0.27309573 -1.02213076
  H  2.80910690 -0.14323323 -0.87557784
  H  2.42658215  1.46811327 -0.20054697
  H  3.65196012 -0.03651524  1.22587583
