13
opt_min/./Product_6849_0_opt.xyz
  N -1.69490000  1.30020500  0.32911000
  C -0.48397854  0.70919068  0.15837704
  C  0.74156548  1.35093383  0.12130227
  C  1.61713530  0.26615518  0.00447432
  O  2.94409262  0.35450254 -0.10567917
  H  3.35676062 -0.51840082 -0.12647006
  N  1.03505723 -0.97971868  0.03293047
  H  1.46808407 -1.84065039 -0.26433836
  C -0.39121588 -0.81034257  0.09074002
  H -0.88837597 -1.23692933 -0.78657416
  H -0.80968402 -1.26317827  0.99476947
  H -1.70774000  2.30273967  0.25663059
  H -2.53228790  0.80859071  0.06364228
