11
opt_min/./Product_9197_0_opt.xyz
  C  2.34109040  0.39396396  0.12831757
  C  17.98712128 -19.64256134 -5.60928966
  C  3.03497902 -6.99480844 -11.27972383
  C -9.38777307  2.29124669 -1.45239528
  H -0.68752872  5.50230200 -11.40938356
  C -14.09799202  8.16115595  6.14853660
  H -13.45240935  16.20279044  2.76800306
  N -2.79517633  0.52809715 -6.86508423
  H  1.46154876  9.68690879 -0.87510983
  H -11.69872097  30.21904406  11.62736662
  H -4.36342443 -4.41498899 -12.95312593
