13
opt_min/./Product_1826_0_opt.xyz
  C -0.99674300 -1.10415500  0.17135900
  C -0.30120774  0.10007086 -0.44829543
  H -0.59141708  0.23430400 -1.48952189
  C -0.27210146  1.42947507  0.36446112
  H -0.56656341  2.32353253 -0.17869033
  H -0.75404238  1.39609316  1.33802056
  N  1.20337423  1.30425677  0.46460973
  C  1.17554348  0.20858477 -0.20094667
  O  2.15187543 -0.60818542 -0.56353790
  H  3.00416155 -0.26368307 -0.26654232
  H -0.90839235 -1.07096031  1.25257600
  H -0.53581214 -2.02067377 -0.18742855
  H -2.04853805 -1.11542216 -0.09680130
