15
opt_min/./Product_11901_0_opt.xyz
  O  1.39534000  1.63224000  0.64761500
  C  0.75721405  0.70184926 -0.15618358
  H  0.21993645  1.26920730 -0.91337304
  C  1.60019344 -0.48447438 -0.67154647
  H  1.58022366 -0.65766217 -1.74949619
  H  2.63648402 -0.49585804 -0.32744648
  O  0.78638877 -1.42023385  0.03987738
  C -0.09500587 -0.39319359  0.53101452
  C -1.52764580 -0.55556666  0.02282791
  C -2.31372548  0.66967533  0.04898600
  H -3.36483593  0.42056432 -0.18660302
  H -2.01350727 -1.40231733  0.52164632
  H -1.48125013 -0.82482986 -1.04048890
  H -0.08859816 -0.35147017  1.62443649
  H  1.82135059  1.17572242  1.38223329
