11
opt_min/./Product_5696_0_opt.xyz
  C -1.80560699 -0.12339731  0.02977103
  C -0.43462117 -0.51522923  0.34387865
  C  0.56759285  0.01816683 -0.58008578
  O  1.89899958 -0.46652705 -0.35398586
  C  2.44527324 -0.23975329  0.77393430
  N  3.00150270 -0.02421352  1.74976502
  H  0.38503901 -0.21626028 -1.63920441
  H  0.56639769  1.12005994 -0.48792025
  H -1.98141179  0.43755250 -0.90025487
  H -2.45598947 -0.99631187  0.08696759
  H -2.11119171  0.50173684  0.87863684
