11
opt_min/./Product_4863_0_opt.xyz
  C  1.26208000 -0.14957700  0.34656400
  C -0.14993862  0.07069406 -0.10085180
  C -0.53620273  1.08876343 -0.86981405
  H  0.16521748  1.82112115 -1.23133723
  H -1.56663024  1.21188119 -1.15858184
  C -1.14752236 -0.90916987  0.35880296
  O -0.91213711 -1.88096403  1.02898660
  H -2.18233977 -0.68351205  0.02942554
  H  1.47597088  0.47134754  1.21611957
  H  1.39456310 -1.18955368  0.63422178
  H  1.96739221  0.10881367 -0.43905935
