11
opt_min/./Product_5884_0_opt.xyz
  C -1.54794983  0.14252650 -0.45639401
  N  39.36198587 -32.28338652 -21.61198885
  C  11.69126397 -12.97322971 -5.47203007
  C -39.51527797 -18.06306394 -45.83386872
  N -6.56039630 -1.69878983 -3.59034219
  H  15.55078983 -5.75838208  19.69371865
  H -54.28518372  19.33291977 -4.76915195
  N -3.48981581 -12.67903457  11.85643609
  H -13.58396259 -22.42344120 -6.47608584
  H  11.08260073  0.42729891 -6.99790953
  H  11.09737150  4.29317400  6.55401376
