14
opt_min/./Product_4597_0_opt.xyz
  C  1.41694500 -0.85007800 -0.16273000
  C  0.81789564  0.50221712  0.14104420
  H  1.33744037  0.97253712  0.99013552
  C  0.04138278  1.26136079 -0.86183461
  H  0.11194119  2.34946848 -0.69517768
  N -0.64705023  0.63299277  0.31205269
  C -1.58322717 -0.44794037  0.06587935
  H -1.58665789 -1.17046757  0.88573095
  H -2.58566793 -0.03722418 -0.05662705
  H -1.30227321 -0.93954646 -0.86225650
  H -0.92441357  1.18070683  1.12921501
  H  2.35325808 -0.69198038 -0.69266775
  H  0.77224073 -1.44281591 -0.80356889
  H  1.62439017 -1.40977381  0.74986633
