10
opt_min/./Product_144_0_opt.xyz
  O  1.89595998 -0.79077697 -0.55040849
  C  0.73620435 -0.34107588 -0.06674588
  C  0.25215346  0.14361404  1.07915853
  H  0.64882234  0.39158111  2.04087134
  C -1.12665158  0.37438627  0.44839358
  H -2.10566103  0.28791617  0.88174814
  O -0.94280434  1.18925707 -0.68229515
  C -0.59821481 -0.16553980 -0.80551622
  H -1.04234014 -0.76958302 -1.57387142
  H  2.58586288 -0.73880127  0.12351564
