10
opt_min/./Product_3842_1_opt.xyz
  N  3.06697100 -1.00149700 -0.12871900
  C  2.19383610 -0.26143493 -0.03134947
  C  1.13585158  0.64956869  0.08524174
  C -0.13021286  0.24668534  0.03225832
  C -1.17826056 -0.77936877 -0.10687094
  H -1.38524295 -1.21309731 -1.08009077
  H -1.38777219 -1.44800034  0.72200402
  N -1.40254967  0.62959946  0.07700277
  H -2.08024515  1.35146540  0.16400603
  H  1.39184400  1.68941918  0.22176284
