14
opt_min/./Product_9154_0_opt.xyz
  C  2.05120800 -0.13084300 -0.07362600
  N  0.61824828 -0.00882758 -0.03155135
  C -0.08669527  1.18307434 -0.05637502
  H  0.44372234  2.11521044 -0.11955544
  C -1.40197463  0.97158824  0.00071944
  H -2.17812594  1.70764493 -0.00967777
  C -1.63949211 -0.50437446  0.08171535
  H -2.13298822 -0.80010627  1.00786563
  H -2.23978078 -0.89528793 -0.73826248
  C -0.22845506 -1.08069326  0.04451004
  O  0.11373956 -2.24113282  0.06339998
  H  2.29902780 -1.11616851 -0.46641938
  H  2.48388220 -0.04142431  0.92523555
  H  2.47100082  0.63694553 -0.72134049
