13
opt_min/./Product_9071_0_opt.xyz
  C  2.36453000 -0.54149800  0.04944000
  N  1.02383485 -0.06259810  0.18240466
  C  0.63663703  0.90402791  1.08097743
  C -0.66429217  1.16158473  0.77296553
  H -1.32147632  1.86822279  1.23590422
  C -1.04303515  0.17399545 -0.22277992
  C -2.30262263 -0.16574916 -0.58060978
  H -3.12565101  0.50060733 -0.39051237
  H -2.52462206 -1.14438859 -0.96814365
  N  0.05934548 -0.60949929 -0.49234097
  H  2.52880240 -1.40646668  0.69731006
  H  3.04996148  0.25374011  0.34201874
  H  2.53864399 -0.84294858 -0.98332824
