12
opt_min/./Product_656_1_opt.xyz
  O  2.17984000 -1.36129700 -0.03040600
  C  0.99387239 -1.25402560  0.15577724
  C  0.14083750 -0.19244531 -0.33004627
  C  0.17856201  1.29670075 -0.31563771
  H -0.11559262  1.83166281 -1.21358618
  H  0.98938568  1.77089624  0.22491602
  C -0.89415334  0.58909175  0.45521902
  H -1.07800981  0.54621030  1.50507576
  C -1.33875347 -0.31720064 -0.62797475
  H -1.68149530  0.11868657 -1.55874746
  H -1.85377377 -1.23673925 -0.36514528
  H  0.43351005 -2.02242855  0.72951661
