10
opt_min/./Product_4307_0_opt.xyz
  O  2.38035973 -1.17453330  0.64504907
  C -116.43783715 -3.01678716 -105.75215883
  N  43.18125690 -35.14603365  76.59914808
  C -18.94460932  9.72403464 -74.40801366
  C  84.25754817  29.55697172  144.12778200
  H  44.07382587 -15.60869349  86.54221493
  H -11.45292445  9.94752329 -59.50905513
  N  67.31428366 -11.91634052  34.67755126
  H -5.36173952  2.54137259  24.66734143
  H  43.63825982  68.34378662  24.56720141
