12
opt_min/./Product_9604_0_opt.xyz
  O -1.61737100  1.17326500 -0.61018500
  C -0.83140483  0.46983227  0.28751716
  H -1.11817941  0.81433648  1.28591607
  C -0.75392940 -1.08707846  0.15985894
  H -1.22821469 -1.48264753 -0.73826024
  H -1.05266769 -1.65824351  1.03753740
  C  0.74161167 -0.89200187  0.01493475
  C  0.67867839  0.46984260  0.07306771
  C  2.02843576 -0.14999660 -0.05842725
  H  2.54071542 -0.08475456 -1.01711186
  H  2.69895203 -0.16335673  0.80068764
  H -1.36384433  0.93851740 -1.51099042
