17
opt_min/./Product_7587_0_opt.xyz
  C  3.09118300  0.12278600  0.26058000
  C  1.98186892 -0.84068921  0.24806712
  C  0.67829710 -0.20978871 -0.01132723
  O -0.39379248 -1.06810784  0.29990554
  C -1.62788281 -0.73792321 -0.27884446
  C -2.29777504  0.49511694  0.35268867
  O -3.63572265  0.64313732 -0.05427390
  H -3.67283204  0.66605779 -1.01725449
  H -2.31727937  0.37419955  1.43943102
  H -1.72987502  1.40590260  0.10891892
  H -2.27251604 -1.60882781 -0.11625009
  H -1.52070849 -0.57863613 -1.36770779
  H  0.54826271  0.77685774  0.47785251
  H  0.69689368 -0.00699320 -1.10234110
  H  2.86091152  1.15864010 -0.03581645
  H  3.42650352  0.13526701  1.30339131
  H  3.93120272 -0.26776605 -0.31221774
