10
opt_min/./Product_9361_0_opt.xyz
  C  0.93154772  1.52189432  2.05037212
  C  5.59095957  4.01862212 -0.58876159
  C -7.88646221 -18.60223366  12.90516302
  C -5.41865712  9.06949915 -0.18588434
  O  8.62351337  1.17122809 -2.91555052
  H -1.18834105 -1.00490911  5.57049694
  C  27.15215180  15.32373832  15.19189422
  N -15.46076308  9.60688772  2.53072370
  H -13.30354896  1.15869413  3.29284402
  H -27.86320236 -25.05376557 -9.04358476
