10
opt_min/./Product_3858_1_opt.xyz
  O  2.38286000  0.28108500 -0.17086500
  C  1.19523663  0.20167455 -0.08503503
  C  0.22334586 -0.93697360  0.21312309
  H  0.33143235 -1.30821960  1.22947244
  H  0.28860586 -1.77249273 -0.47674496
  C -0.96094182  0.03330023  0.01617893
  H -1.61697412  0.17447148  0.87141816
  H -1.58925012 -0.16006459 -0.85252639
  C  0.01620323  1.17320757 -0.23709145
  O -0.09296873  2.33834348 -0.47039725
