8
opt_min/./Product_3219_1_opt.xyz
  C  1.00046200 -0.50015700  0.26353700
  H  1.95427126 -0.91785195  0.52229964
  C  0.41124372  0.69517181  0.18813116
  H  0.67629362  1.71326156  0.35724817
  C -0.83003510 -0.03303374 -0.25544840
  H -1.16604926  0.12210004 -1.27830358
  H -1.67118465 -0.02075826  0.43574027
  O -0.07519175 -1.26029355 -0.12741583
