12
opt_min/./Product_3627_0_opt.xyz
  C  0.04349525 -0.96526566  0.31976464
  C  1.18326858 -0.35456304  0.20703188
  C  2.30143436  0.27418738  0.03669278
  H  2.55785869  1.12078036  0.65381998
  H  3.02924607 -0.06507212 -0.68362337
  C -1.20043354 -0.54300861 -0.43149810
  C -1.66219903  0.72915886  0.22820304
  O -2.37014597  0.78652242  1.19379461
  H -1.23586321  1.64956177 -0.22212625
  H -0.96627565 -0.37275098 -1.48113888
  H -1.97156362 -1.30590931 -0.33518682
  H -0.05235023 -1.77204507  1.03482809
