13
opt_min/./Product_5504_0_opt.xyz
  C -1.09709500 -0.47268400 -0.00729300
  H -1.75292599 -0.62429786 -0.87054626
  H -1.65966688 -0.72630076  0.89826302
  C -0.59010070  0.97500818  0.07005636
  H -1.27295497  1.64133854 -0.46554311
  H -0.54869503  1.29520440  1.12584850
  O  0.65300809  1.15806096 -0.54431967
  C  1.64354525  0.27112974 -0.03676242
  H  1.87877006  0.51936123  1.01150443
  H  2.54569725  0.45874996 -0.62521594
  C  1.30216613 -1.19116618 -0.09104944
  N  0.02665708 -1.41434209 -0.09835572
  H -0.27560130 -2.38258604 -0.15027011
