12
opt_min/./Product_4364_0_opt.xyz
  O  0.62797400 -1.30435800 -0.27361000
  C  1.82829937 -1.66909625 -0.37469824
  H  2.55167543 -0.90169987  0.00373176
  C  0.21178025 -0.02810098  0.22619523
  H  1.02213157  0.43454641  0.79793315
  C -1.16868066 -0.01694462  0.89439935
  H -1.68346066 -0.97978364  0.88991426
  H -1.19867581  0.41103736  1.89858893
  O -1.67704161  0.88098468 -0.09290585
  C -0.45007829  0.88186139 -0.82185117
  H -0.55439035  0.43140142 -1.81129793
  H -0.02140507  1.88181011 -0.91246436
