14
opt_min/./Product_7711_0_opt.xyz
  C  2.58584300 -0.03747000  0.77428200
  N  1.48383382  0.66182803  0.21468371
  C  0.35969451  0.09870495  0.07771210
  C -0.73202904  0.84834674 -0.49836622
  C -1.98368252  0.41517540 -0.72313572
  C -2.50552497 -0.91537011 -0.42848394
  O -3.64052656 -1.25738178 -0.65260726
  H -1.78664937 -1.62276963  0.02308405
  H -2.70868477  1.08695621 -1.16538280
  H -0.46476354  1.86367684 -0.76304057
  H  0.18029887 -0.93931291  0.38588296
  H  2.95123707  0.53492685  1.62807466
  H  2.35287437 -1.06575321  1.08444784
  H  3.38570156 -0.05442445  0.03097709
