12
opt_min/./Product_1948_0_opt.xyz
  C  1.65251000  0.37942100  0.05117200
  C  0.36101439 -0.28986216 -0.42380212
  H  0.60691858 -0.94768909 -1.26849059
  N -0.25651417 -1.10837976  0.58596523
  C -1.45036645 -0.67197275  0.71027085
  H -2.15482551 -1.10845595  1.39606595
  C -1.67498264  0.43682899 -0.20750508
  H -2.58009393  0.99977815 -0.33928409
  N -0.60799467  0.66974526 -0.87186092
  H  2.39259526 -0.36349228  0.31468229
  H  2.00458122  1.03055012 -0.74024804
  H  1.42322357  0.98547868  0.92471808
