13
opt_min/./Product_8022_0_opt.xyz
  O -2.09204491 -0.68112515 -0.27784028
  C -1.22701307 -0.58404040  0.83787738
  C  0.11262743 -0.03677618  0.42193809
  C  1.23729064 -0.89551495  0.39702136
  C  2.00740494 -0.71076840 -0.67185070
  H  2.27482817  0.23652180 -1.10632234
  H  1.17732902 -1.83390596  0.92464808
  C  0.08486687  1.21157467 -0.20082989
  C  0.00613421  2.29463736 -0.72399154
  H -0.07400926  3.22338008 -1.20373684
  H -1.64194382  0.11656756  1.58208336
  H -1.10079011 -1.56732386  1.31210178
  H -2.95732103 -0.98504492  0.00972898
