10
opt_min/./Product_9366_0_opt.xyz
  C  1.25149747  1.54138802  2.02433430
  C  0.36881625  0.96917341  1.44604799
  C -0.67885984  0.30677100  0.76850953
  C -0.48880803 -0.45072846 -0.27090506
  C -0.29491133 -1.18778380 -1.33855261
  N -0.38398513 -0.62009574 -2.60951371
  O -0.18905653 -1.36537519 -3.55791878
  H -0.08001926 -2.25313363 -1.25862431
  H -1.67375663  0.44610147  1.17555132
  H  2.02114717  2.03671631  2.53716923
