11
opt_min/./Product_8489_1_opt.xyz
  C  1.45439700 -0.27389400 -0.25201400
  O  1.57515609 -1.38793079 -0.66250591
  C  0.34475721  0.23080105  0.63976397
  C -0.97745490  0.37972876 -0.12646346
  O -1.43085393 -0.87027768 -0.57667575
  H -2.38873765 -0.92217488 -0.52823004
  H -0.81753276  1.04974454 -0.98465185
  H -1.70203387  0.84956400  0.54835190
  H  0.19749712 -0.49369968  1.43920185
  H  0.60733538  1.19779035  1.06248170
  H  2.20755942  0.50977417 -0.50148712
