17
opt_min/./Product_11160_0_opt.xyz
  C -1.55526300  0.71042900  0.36556700
  H -1.07207762  1.04943096  1.26809544
  H -2.60515027  0.96863154  0.31873488
  C -1.09559969 -0.49010975 -0.33836119
  H -1.83749082 -1.07202960 -0.87479895
  C -0.79553330  0.89564870 -0.96320896
  H -1.43678335  1.20646872 -1.78392585
  C  0.54921301  1.35424379 -1.04983608
  C  1.54608928  0.73522677 -0.14899486
  H  2.32377656  0.36754544 -0.83295913
  H  2.02223043  1.56160687  0.39129075
  C  1.13344728 -0.38936846  0.81237013
  H  0.72577532  0.03067926  1.73602347
  H  2.00712916 -0.98414748  1.09008424
  C  0.08727343 -1.28690998  0.15397623
  H  0.54711226 -1.80140858 -0.69978017
  H -0.25076259 -2.05903137  0.85089371
