15
opt_min/./Product_8846_0_opt.xyz
  C  2.17810300 -0.28760900 -0.39245400
  C  0.75420871  0.19339963 -0.27729159
  C -0.13713723 -0.66564554  0.59552073
  C -1.47152067 -0.09722989  0.74603433
  N -2.36469812  0.33486628  1.51249270
  C -2.67478746  0.33462412  0.05080366
  H -3.38779697 -0.39367641 -0.30829693
  H -2.69307263  1.28224921 -0.46179051
  H -0.22288820 -1.65098845  0.12738472
  H  0.33725526 -0.79960237  1.57250318
  N  0.26849505  1.22460891 -0.80101364
  H  0.91150089  1.76642188 -1.37366748
  H  2.26117138 -1.36055921 -0.24780554
  H  2.59042614 -0.02403879 -1.36311721
  H  2.78023070  0.20285293  0.37001150
