13
opt_min/./Product_473_0_opt.xyz
  O  2.84113700  0.30659600 -0.61052600
  C  1.66584927 -0.21147758 -0.60372806
  C  0.96349455 -0.17358607  0.66816866
  H  1.48533639  0.23700159  1.54726876
  C -0.53402827  0.00356067  0.63996347
  C -1.30918541  0.18085840 -0.64058645
  H -1.59687322  1.22036017 -0.77013396
  H -2.21435483 -0.42158734 -0.60116693
  H -0.71447690 -0.12872323 -1.49531495
  H -0.93003170  0.54409272  1.49421500
  N  0.03466980 -1.25286355  0.99603258
  H -0.01665898 -1.93024828  0.23991254
  H  3.16409296  0.69930989  0.24178903
