12
opt_min/./Product_8364_1_opt.xyz
  O  1.80997300  0.35760700 -0.47788500
  C  0.80390732 -0.28517925  0.31857241
  H  1.26313279 -0.63802295  1.24753644
  C -0.35288761  0.70261553  0.50673281
  H -0.14874619  1.64808039  0.00689185
  H -0.69033197  0.88599820  1.52430084
  N -1.29003896 -0.13945381 -0.27396979
  H -2.11566821 -0.44777246  0.23742353
  H -1.60385568  0.28629507 -1.14791170
  C -0.18492845 -1.27408587 -0.31257392
  H  0.06197430 -1.40269427 -1.37918822
  H  2.60479710 -0.18145335 -0.47023085
