11
opt_min/./Product_1677_0_opt.xyz
  O  2.35702100  1.48730200  0.40104100
  C  2.07852224  0.34095126  0.20611384
  C  0.68495865 -0.19283304  0.02160982
  O -0.25028220  0.76700605  0.09968469
  C -1.60612621  0.39641142 -0.05160761
  H -2.18109862  1.31326286  0.06416949
  H -1.79362327 -0.03006386 -1.04162906
  H -1.90734012 -0.32250188  0.71741567
  N  0.57005152 -1.43060718 -0.17576627
  H -0.37282631 -1.78917792 -0.30037909
  H  2.83543764 -0.46003735  0.13870475
