19
opt_min/./Product_10901_0_opt.xyz
  C  2.40414000  0.63368100 -0.20825300
  C  2.01134953 -0.80308318 -0.33621859
  C  0.76687472 -1.24627810 -0.22547032
  O -0.29449418 -0.42561609  0.02008530
  C -1.56898505 -1.01941892 -0.10157349
  C -2.62493698 -0.00366752  0.32438039
  C -2.64172550  1.20473658 -0.60352589
  H -2.88101052  0.89777150 -1.61997194
  H -3.38055085  1.93021861 -0.27407574
  H -1.66221672  1.67544440 -0.61012038
  H -3.59885677 -0.49620593  0.32143962
  H -2.40396637  0.31853886  1.34289178
  H -1.74363595 -1.32667060 -1.14340871
  H -1.62704859 -1.91418701  0.53490866
  H  0.53099920 -2.30195273 -0.31918174
  H  2.79968051 -1.51922765 -0.50588830
  H  1.54111111  1.27061471 -0.38363824
  H  3.19370529  0.88179541 -0.91435309
  H  2.77872781  0.83686046  0.79634306
