13
opt_min/./Product_6509_0_opt.xyz
  C  1.90035183  0.76194278  1.49048132
  C  0.95255391  0.54558827  0.78781692
  C -0.15528214  0.36014356 -0.09385801
  C -0.26896848  0.93843658 -1.40891506
  H  0.74352412  1.20613543 -1.75954495
  C -0.20626995 -0.95423040 -0.99872504
  H -0.23124979 -0.86615601 -2.10008394
  H  0.61355363 -1.62084260 -0.70281218
  O -1.44862436 -1.29836865 -0.44707582
  C -1.45848903 -0.21240369  0.48449289
  H -1.35873264 -0.56938582  1.51544869
  H -2.34922190  0.40808165  0.37128778
  H  2.73507942  0.95193823  2.09863597
