8
opt_min/./Product_8641_0_opt.xyz
  C -1.19623300 -0.04285800  0.12848100
  N  0.06654166 -0.44495900 -0.43015895
  C  1.15770948 -0.11917861 -0.00818694
  O  1.92109543  0.54338869  0.87442424
  O  2.44631416 -0.26291390 -0.21952577
  H -1.09876526  0.59778642  1.00660409
  H -1.74300963  0.47605393 -0.65772176
  H -1.73610524 -0.95411170  0.38147232
