13
opt_min/./Product_4990_0_opt.xyz
  C -0.13925999 -0.12031901  0.83740900
  C  1.25668929  0.35844146  0.43188210
  O  1.28181380  1.15188925 -0.72388681
  H  0.68095497  1.89615630 -0.61789426
  H  1.70564423  0.88900377  1.28446347
  H  1.88923030 -0.49972564  0.19196504
  C -0.81895465 -0.97225678 -0.23832332
  N -1.19002492 -0.20832463 -1.35053302
  C -1.50628109  0.41758373 -2.27693644
  H -1.72278135 -1.42995444  0.17342867
  H -0.14121901 -1.76316520 -0.57270372
  H -0.04392719 -0.72300007  1.73949530
  H -0.77157591  0.74091495  1.06551506
