14
opt_min/./Product_10566_0_opt.xyz
  C -0.58496400  0.22813000 -1.58579500
  O -0.65627606  1.14114077 -0.51878993
  C -0.26214912  0.68417604  0.71594349
  C  0.31500431 -0.48305483  0.91572336
  C  0.91195128 -1.75349655  0.60669608
  H  1.90340871 -1.79685778  0.16481153
  H  0.28999208 -2.62446937  0.42555258
  O  0.86301287 -1.23697937  1.93241124
  N -0.62247800  1.57418163  1.73117190
  H -0.71391227  2.51652938  1.37445848
  H -0.03123201  1.51668610  2.54911846
  H -1.03546494  0.73237154 -2.43982023
  H  0.45289514 -0.03401060 -1.81265308
  H -1.14453657 -0.68476174 -1.36199761
