14
opt_min/./Product_2104_0_opt.xyz
  C -2.40509500  0.14930700  0.24178900
  O -1.96056299  1.38906409 -0.24645100
  C -0.60775626  1.58061901 -0.21260027
  C  0.29495115  0.76606670  0.25158484
  C  1.18330676 -0.08065844  0.67977277
  C  1.85288999 -1.11341040 -0.17892528
  H  2.86249164 -0.78433275 -0.43391403
  H  1.93123406 -2.05850182  0.35899128
  H  1.29625701 -1.26509108 -1.10061564
  H  1.51616107 -0.03921996  1.71185022
  H -0.34390390  2.55250566 -0.61376164
  H -3.49356041  0.15765372  0.17333756
  H -2.09957622  0.00507490  1.28502885
  H -2.00253022 -0.67886259 -0.35459159
