16
opt_min/./Product_8591_0_opt.xyz
  C -1.86739200 -1.10006000 -0.05272300
  C -0.99904292  0.06208847  0.44318549
  H -1.56596531  0.59936476  1.22184137
  C  0.36186214 -0.30705708  0.92006975
  H  0.54584301 -0.91528375  1.78048722
  C  1.34864257  0.33093397  0.13506896
  C  2.72553535  0.27833503  0.21623137
  H  3.20697866 -0.31641874  0.96663556
  H  3.33777866  0.83838747 -0.46391794
  C  0.62004332  1.06301434 -0.83592625
  H  1.02781041  1.66493012 -1.62897766
  N -0.70270768  1.00061756 -0.63274075
  H -1.35509803  1.12049882 -1.39285402
  H -2.82289622 -0.74219389 -0.42965118
  H -2.04992464 -1.78656290  0.76774510
  H -1.34937660 -1.63729625 -0.84435570
