16
opt_min/./Product_2999_0_opt.xyz
  C -1.46670500  1.06118900 -0.74385300
  C -0.37980511  0.00234896 -0.58821458
  C -0.88685087 -1.17218603  0.24992162
  H -1.68771815 -1.68865482 -0.27164768
  H -1.26227582 -0.80442170  1.20468132
  H -0.08952772 -1.88491398  0.45331407
  C  0.85668998  0.59047664  0.08369257
  C  2.11367830 -0.24291714 -0.06466923
  H  1.94467259 -1.14534619 -0.64206357
  H  2.48188652 -0.50615719  0.92695878
  H  2.87276218  0.37244439 -0.54570446
  O  0.84239526  1.62738134  0.69217830
  H -0.07535479 -0.36280881 -1.57599281
  H -1.69978814  1.49414520  0.22752468
  H -1.13666969  1.85611942 -1.40762475
  H -2.37449329  0.61469121 -1.14647366
