17
opt_min/./Product_10194_0_opt.xyz
  C -1.10975900  1.35365500  0.46140700
  C -0.44362986  0.70082580 -0.74733145
  C  0.02766472 -0.68905823 -0.42898856
  C -0.56006432 -1.76839238 -0.91518762
  H -1.41031836 -1.70249536 -1.57265506
  H -0.22747925 -2.76345430 -0.67114988
  C  1.21440653 -0.76362409  0.49262543
  C  0.92327779 -0.28966800  1.88135600
  O  1.86523209  0.37518924  2.43828771
  H  2.67737989  0.58671606  1.90070973
  H  2.08114444 -0.23948225  0.04475514
  H  1.48846359 -1.81738825  0.62227582
  H  0.40891477  1.30833281 -1.06775539
  H -1.15616299  0.66218859 -1.57363093
  H -1.55306536  2.30785167  0.18385233
  H -1.88946860  0.70352785  0.85000445
  H -0.39372093  1.52676527  1.26175688
