13
opt_min/./Product_4328_0_opt.xyz
  C  2.32590621 -0.18619272 -0.11803820
  N  1.14439391  0.30436428 -0.77246841
  C  0.02640918  0.32802253 -0.27819267
  C -1.21155439  0.39871459  0.12719965
  C -2.20558552 -0.70362877 -0.09614397
  H -2.31994405 -1.29921216  0.81020415
  H -3.16843071 -0.25929915 -0.33900286
  H -1.88492332 -1.35082784 -0.90764457
  O -1.74154661  1.51027043  0.76924045
  H -1.05547075  2.17184355  0.89678220
  H  2.41991506 -1.25766704 -0.30702920
  H  3.18347440  0.32084306 -0.56119230
  H  2.31844857 -0.02575350  0.96647965
