17
opt_min/./Product_11265_0_opt.xyz
  C  1.80283900 -0.90652600  0.33107200
  C  1.02203625  0.02361269 -0.19081461
  O  1.58154116  1.10083301 -0.84096768
  H  0.92990635  1.81098168 -0.89849878
  C -0.50245531  0.03052742 -0.21406296
  C -1.00224465  1.33104539  0.46783995
  H -0.26576327  1.72345133  1.16457796
  H -1.91154707  1.13125913  1.02531748
  H -1.23579996  2.08450205 -0.28258531
  C -1.11281483 -1.19155973  0.46471384
  H -0.86263628 -1.20215009  1.52106682
  H -0.74843460 -2.09798198 -0.00672669
  H -2.19115792 -1.15300634  0.34961043
  O -0.92879633 -0.01196818 -1.57241664
  H -0.27479521  0.42585418 -2.13117497
  H  2.87145910 -0.80669857  0.27283847
  H  1.41310567 -1.78402470  0.80422137
