13
opt_min/./Product_6418_0_opt.xyz
  O  3.08221311  0.21277451  0.51095612
  C  2.07057741 -0.29186966  0.09584669
  C  0.71123718  0.22192837  0.19945191
  C -0.41748125 -0.59177240 -0.40751909
  C -1.78162779  0.05560966 -0.20378517
  H -1.81600516  1.03606889 -0.67198829
  H -1.99496309  0.17493916  0.85579177
  H -2.55881642 -0.56294890 -0.64346756
  H -0.22319130 -0.71233703 -1.47583632
  H -0.40937941 -1.58520451  0.04507548
  C  0.48325610  1.35698559  0.81555873
  O  0.31398964  2.36015167  1.36273774
  H  2.09053556 -1.26817911 -0.42676215
