12
opt_min/./Product_8316_0_opt.xyz
  C -1.32189500 -0.83194900  0.24045100
  C -0.25768450  0.16390093 -0.07781585
  C  1.25276703  0.03479510 -0.30458982
  O  1.96124734 -0.95710096 -0.77893021
  H  2.90075381 -0.71577358 -0.79034251
  N  1.58676540  1.17611608  0.17290554
  C  0.14206677  1.46682008  0.47424287
  H -0.14505632  2.04322832  1.33144998
  O -0.55405478  1.39644210 -0.72115601
  H -1.24369970 -1.15250862  1.27886896
  H -2.29860135 -0.37362835  0.08641372
  H -1.22342524 -1.70182545 -0.40562785
