8
opt_min/./Product_10676_1_opt.xyz
  O  2.29675754  0.12967328 -0.66894525
  N  104.75605716 -52.84647469 -2.72046482
  C  33.45887403 -46.19772054  34.67322002
  C -31.58348570  78.94604485 -47.75868971
  O  38.20560700 -67.95299685  45.63541462
  H -31.77802723  76.75428180 -45.77186877
  H  4.13797165  1.87618613  33.63891768
  H  106.29282509  12.11307030 -35.31044372
