11
opt_min/./Product_636_0_opt.xyz
  O  2.13691400  0.83313100  0.18106000
  C  0.97707009  0.81390397 -0.11346966
  C  0.12301864 -0.41710525 -0.17587110
  C  0.65137949 -1.74068435 -0.11470855
  H  1.72114050 -1.69317400  0.14765592
  N -1.19223115 -0.26537092 -0.84113766
  H -1.30490554  0.64588706 -1.27927068
  C -1.22394351 -0.27678659  0.55620262
  H -1.59810950 -1.18129930  1.01537882
  H -1.35474885  0.63475447  1.13584863
  H  0.42409032  1.74802275 -0.38739724
