9
opt_min/./Product_8985_0_opt.xyz
  N -0.28255854  0.09116512  0.69827309
  C -0.07471298 -0.43188652 -0.37072865
  C  0.32580118 -1.02372686 -1.47258222
  N  0.89284870 -0.42947454 -2.57898359
  C  1.35525181  0.74612342 -2.57901780
  H  1.75281315  1.12128182 -3.50971949
  H  0.14727411 -2.08587679 -1.58084728
  H -1.15707053  0.52834743  0.95555050
  H  1.38705111  1.41717337 -1.71559239
