13
opt_min/./Product_9826_0_opt.xyz
  C -1.37901600  0.60516100 -0.35031800
  H -2.37504791  0.23849643 -0.60457286
  H -1.28623126  1.66183942 -0.59782560
  O -1.12633586  0.38117401  1.04317026
  C -0.09167449 -0.54375201  0.96792907
  H  0.19430849 -0.96519393  1.92560285
  O -0.43757564 -1.43942610 -0.04661423
  C -0.25670316 -0.29956361 -0.89852028
  H -0.17664419 -0.50494902 -1.96057182
  C  0.94286385  0.16955482 -0.01540145
  C  2.10751420 -0.66101901 -0.09284059
  H  2.96565860 -0.16605292  0.38914638
  H  1.03167898  1.24856762  0.15668378
