12
opt_min/./Product_5833_0_opt.xyz
  N -1.29252100 -0.83903000 -0.10329400
  C -0.54203190  0.35654018  0.19793948
  C  0.93104876  0.09227457  0.60131677
  O  1.51877428 -0.68903754 -0.40678879
  H  2.45487489 -0.81451026 -0.21723180
  H  0.93938821 -0.44052022  1.56631628
  H  1.44627565  1.05471587  0.72407524
  N -0.54992264  1.18740312 -0.93591369
  C -0.53634072  1.84805325 -1.89127922
  H -1.03730042  0.89911176  1.01655844
  H -1.42755890 -1.39850821  0.73240777
  H -0.77709785 -1.38972850 -0.78508747
