12
opt_min/./Product_6077_0_opt.xyz
  O  0.41042886  0.11872591  0.81765645
  C  1.72799620  0.09209862  0.51168249
  C  2.34276472  0.54236969 -0.57059020
  H  1.83700961  1.01317764 -1.39562192
  H  3.40926458  0.45098715 -0.65186051
  H  2.27936701 -0.35419651  1.33234601
  C -0.50695943  0.24617735 -0.19661038
  C -1.77517100  0.44790537  0.01798517
  C -3.04253047  0.66913036  0.15970251
  H -3.44354120  1.67114597  0.17750201
  H -3.75099343 -0.13595101  0.28324268
  H -0.13209241  0.12463157 -1.20756035
