9
opt_min/./Product_4148_0_opt.xyz
  N -0.39970700  1.11477800  0.04830600
  C  0.83202046  0.78294556 -0.02170594
  H  1.62278251  1.50854840 -0.04238354
  C  0.95113337 -0.67048632 -0.06225618
  H  1.85828894 -1.24235906 -0.12083925
  N -0.20898711 -1.20305232 -0.02075252
  C -1.13592038 -0.11609244  0.05187920
  H -1.82627438 -0.14309585 -0.79221209
  H -1.74340835 -0.18876413  0.95397935
