16
opt_min/./Product_6970_0_opt.xyz
  C -1.13042695  0.23438804  1.72104503
  C  0.12513430  0.27470096  0.86092232
  C -0.20027660  0.04746543 -0.61861853
  O -0.90764140  1.16939814 -1.08689324
  H -1.20061759  1.01700881 -1.99329834
  C  1.09321512 -0.15843450 -1.44095678
  N  1.71084888 -1.36593320 -1.11322740
  C  2.19319312 -2.38150974 -0.81834719
  H  0.84531917 -0.16857444 -2.51143361
  H  1.78604972  0.66726609 -1.24234405
  H -0.81766046 -0.86169433 -0.71373870
  H  0.82791774 -0.49809520  1.18547758
  H  0.60574686  1.25099213  0.95834010
  H -1.85279651  0.96238959  1.35705633
  H -1.58344576 -0.75578516  1.69207265
  H -0.88827015  0.47703829  2.75664691
