13
opt_min/./Product_11287_0_opt.xyz
  C -1.60248700 -0.85876900 -0.12144400
  C -0.21819016 -0.35060321 -0.00688831
  N  0.81559368 -1.07934657  0.13249140
  C  1.95046121 -0.22982879  0.18898454
  H  2.63985663 -0.46573665 -0.63104546
  H  2.48723527 -0.36366267  1.13583247
  O  1.51083000  1.11944655  0.07564390
  C  0.17598668  1.10255384 -0.05438428
  N -0.49641491  2.15907287 -0.18252739
  H -1.49420890  2.01776825 -0.27311216
  H -1.79771698 -1.15167175 -1.15024106
  H -1.72909253 -1.72880621  0.51238214
  H -2.31805359 -0.09191286  0.16520829
