13
opt_min/./Product_3710_0_opt.xyz
  C  0.12418200 -1.58541500  0.37614300
  C -0.11712485 -0.31866552  0.06370857
  N  0.87302571  0.63856891 -0.19481438
  O  2.19072655  0.14336102 -0.36141685
  H  2.57046924  0.11080590  0.52773906
  H  0.67737560  1.22575050 -1.00002132
  C -1.49795353  0.29518100  0.06268216
  O -1.63904233  1.33545746  0.99923021
  H -0.98063414  2.01528561  0.81734907
  H -1.73763410  0.65220500 -0.95361458
  H -2.23406512 -0.46023276  0.34142620
  H  1.11703419 -1.99754371  0.34616183
  H -0.67308059 -2.24254968  0.66642672
