11
opt_min/./Product_3994_0_opt.xyz
  N -0.68829100  1.05752300 -0.01443200
  C -1.27065714 -0.05853657  0.01288691
  C -0.45933340 -1.25864898  0.24923568
  N  0.79865212 -1.27116830  0.22840910
  C  1.64837033 -0.23956067  0.01846766
  N  2.20212538  0.01757428 -1.08442406
  H  2.90926272  0.74742930 -1.03800017
  H  1.90204341  0.23537018  0.98334983
  H -0.97640742 -2.18816637  0.47188671
  H -2.34844989 -0.23104434 -0.10210501
  H -1.27498108  1.87430780 -0.17436699
