12
opt_min/./Product_3350_1_opt.xyz
  O  2.23061600  0.21796500 -0.19455800
  C  1.06372505 -0.24455274  0.42840589
  C -0.14366459 -0.21561527 -0.50386945
  H  0.09636913 -0.54583098 -1.50451479
  C -1.53215011 -0.58349510  0.05596161
  H -2.21503406 -1.16310319 -0.53953193
  H -1.59468273 -0.80666605  1.10822551
  C -1.20362136  0.78550272 -0.32996202
  O -1.52465506  1.92763761 -0.41953561
  H  1.28218303 -1.27372243  0.72339234
  H  0.84240495  0.33527543  1.33468348
  H  2.11657065  1.14345442 -0.43062561
