11
opt_min/./Product_9448_0_opt.xyz
  O  2.33516223 -0.85105667 -0.87111092
  C  44.87733637  4.15457409 -48.82486072
  N -17.26597280 -15.87333620  76.36411429
  C -28.19721336  5.97116123  22.39599050
  O  34.88528539  5.55731469  12.37141788
  H  0.87493337  11.87479271 -0.75672245
  C -15.95128232 -39.54566541 -14.11564168
  N -11.80548473 -10.51200781 -5.57551446
  H -3.75740037 -8.44771470 -12.36401848
  H -3.89917156  5.89809207  11.64676175
  H  4.03951272 -0.06673624  32.38855318
