14
opt_min/./Product_1440_0_opt.xyz
  C -1.51578000 -0.04643000 -0.79152800
  C -0.55787562  0.29468874  0.36563303
  O -0.92539905 -0.50846896  1.45793370
  H -0.31399636 -0.35308781  2.18777808
  C  0.88582342  0.09254154 -0.05787944
  O  1.35091064  1.00458768 -0.96703407
  H  0.63006363  1.58299856 -1.24596934
  C  1.67061888 -0.86537043  0.40915404
  H  2.68537228 -0.95828196  0.07222090
  H  1.30014964 -1.58707299  1.11148474
  H -0.67177813  1.36180935  0.64089636
  H -2.00268137 -0.98430780 -0.53603267
  H -0.97778875 -0.18387713 -1.72808935
  H -2.27417169  0.72129412 -0.92768468
