16
opt_min/./Product_6978_0_opt.xyz
  C -2.14633426 -0.61573055 -0.36829698
  C -1.15665026  0.49644851 -0.04011802
  C  0.11644559 -0.06240789  0.56894788
  H -0.11230162 -0.63103021  1.47383647
  O  0.84701311 -0.90372563 -0.35712137
  C  1.95491126 -0.09678571 -0.28386328
  N  3.07048694 -0.15533422 -0.82764209
  H  3.20377150 -0.94683526 -1.44954682
  C  1.33253564  0.87651807  0.68257582
  H  1.18665328  1.87407589  0.28142178
  H  1.81573772  0.93761652  1.65062405
  H -1.59422235  1.19879163  0.67098869
  H -0.90337602  1.04359809 -0.95082054
  H -2.32847301 -1.23162803  0.50939978
  H -3.09091046 -0.19898379 -0.70483954
  H -1.74607375 -1.25634273 -1.14765376
