16
opt_min/./Product_10303_0_opt.xyz
  C  1.81447400 -0.53276500  0.21582700
  N  0.66205228  0.31356160  0.10616664
  C -0.54046485 -0.05063002 -0.62214546
  C -1.26699499 -1.25678191 -0.02574957
  H -0.66608583 -2.16270573 -0.10905236
  H -2.20199634 -1.41493283 -0.55557035
  H -1.48754679 -1.07195787  1.02435830
  H -0.26648015 -0.27242775 -1.66108734
  C -1.37125033  1.19242608 -0.41213916
  H -2.38744760  1.23062188 -0.76234517
  C -0.72458778  2.17053328  0.30140328
  C  0.54926537  1.57080329  0.51960599
  H  1.39090340  2.03251084  1.01901373
  H  2.39062850 -0.25469280  1.09816958
  H  1.50791167 -1.57509398  0.31079722
  H  2.46131989 -0.44176540 -0.66459106
