15
opt_min/./Product_9044_0_opt.xyz
  N  1.83626900 -0.80587000  0.06569500
  C  0.93761238  0.26702347  0.48674599
  H  1.36842669  0.80627770  1.34052941
  C  0.71116627  1.28030732 -0.63433161
  N -0.57814335  1.34033949 -0.81021936
  H -0.99832741  1.92892516 -1.51692284
  C -1.41125152  0.47785844 -0.00427014
  H -2.38090689  0.85606103  0.28401135
  C -0.45233757 -0.26647100  0.86320298
  H -0.64869595 -0.50522989  1.89586477
  C -1.17257451 -0.98918336 -0.23790823
  H -0.59808804 -1.28183328 -1.10328864
  H -1.96176941 -1.67620317  0.02695136
  H  1.98655104 -0.75500416 -0.93627235
  H  2.74157203 -0.72400760  0.50991913
