14
opt_min/./Product_5169_0_opt.xyz
  C -0.36478069  1.42792911 -0.47235266
  C -0.05859893  0.00818954 -0.04261457
  C -1.26929348 -0.71740119  0.52096275
  H -1.80308862 -1.20157825 -0.29456041
  H -1.94026335 -0.01717593  1.01142688
  H -0.97118345 -1.48611664  1.23116492
  C  1.27436807 -0.21123426  0.64903885
  H  1.68021664  0.06713045  1.59461394
  C  1.66190514 -0.87365595 -0.43794491
  H  2.52793983 -1.39553600 -0.80714340
  O  0.51553786 -0.75301577 -1.17136880
  H -0.59416819  2.04090085  0.39529090
  H  0.49287705  1.85120576 -0.99320544
  H -1.20614480  1.43404473 -1.16238847
