16
opt_min/./Product_927_0_opt.xyz
  C  0.74434400  1.11651500 -0.69992700
  C  0.02205112 -0.01901919  0.02466260
  C  1.03751629 -0.96531345  0.65820869
  H  1.67923033 -1.38078905 -0.11789467
  H  1.66799375 -0.44160024  1.36998038
  H  0.53676482 -1.79166420  1.15391808
  C -1.06785409 -0.71733852 -0.81696583
  H -1.00672186 -1.80284386 -0.84479134
  H -1.20053188 -0.35844793 -1.83549261
  C -2.16694552 -0.22058717  0.09221550
  C -1.11753789  0.44117401  0.95455018
  H -1.12644408  0.03014068  1.96229375
  H -1.28071809  1.51382953  1.02396268
  H  0.03126539  1.85828045 -1.04808023
  H  1.42204330  1.61460499 -0.00949143
  H  1.30501821  0.73555580 -1.54517595
