10
opt_min/./Product_1228_0_opt.xyz
  N  2.00353700  0.13757200 -0.24106000
  C  0.66893871 -0.02800531 -0.12358918
  C -0.23279795  0.93303811  0.47448627
  C -1.50115428  0.20999525  0.32660163
  H -2.23999727  0.76588677 -0.25202502
  H -1.93047631  0.00621103  1.31141316
  O -1.23863561 -1.05153288 -0.32830141
  N  0.07714803 -1.12238695 -0.56494926
  H  2.43461567  0.97732370  0.09620640
  H  2.56711845 -0.56832538 -0.67632670
