17
opt_min/./Product_11653_0_opt.xyz
  O  3.02124900  0.98922400  0.76610400
  C  1.81895988  0.42846932  0.47792392
  C  1.61357781 -0.54285487 -0.39864417
  C  0.30033516 -1.18710848 -0.72634980
  C -0.88876227 -0.69819001  0.09253482
  O -1.14387866  0.65618842 -0.20204898
  C -2.22483909  1.18702152  0.51389039
  H -2.32049803  2.22566616  0.20554646
  H -3.15715894  0.65227768  0.28757217
  H -2.05403071  1.14200634  1.59713030
  H -1.77486493 -1.30485198 -0.15803566
  H -0.69010944 -0.82475349  1.16911764
  H  0.08200094 -1.02362464 -1.78485259
  H  0.38974002 -2.26767376 -0.57409189
  H  2.45907280 -0.93655359 -0.95344730
  H  1.02442686  0.88047767  1.04866729
  H  3.70301428  0.59040886  0.20970662
