11
opt_min/./Product_10714_0_opt.xyz
  C  2.02504924 -0.12370963 -0.13716935
  O  1.10128337  0.74616613  0.02383032
  C -0.17026664  0.54743336  0.11880737
  C -1.33912947  1.38434506  0.31170291
  O -1.60178738  2.53677747  0.45978397
  O -2.18646870  0.28266787  0.29459971
  C -1.09973853 -0.63983736  0.10602573
  H -1.02641770 -1.35087357  0.93214154
  H -1.19689798 -1.17214435 -0.84479314
  H  3.02818033  0.25487069 -0.19064663
  H  1.82041116 -1.18134953 -0.20117645
