14
opt_min/./Product_9198_0_opt.xyz
  O  3.32212900 -0.49456900  0.10718600
  C  2.13833898  0.23981409 -0.07980951
  C  1.05389829 -0.11684292  0.91181943
  C -0.22147132 -0.04607366  0.66493886
  C -1.47169231  0.08602810  0.40319316
  C -2.77543647 -0.46959776 -0.05686163
  H -2.93808641 -0.61972263 -1.12121321
  H -3.30141711 -1.17994880  0.57596042
  N -2.58279606  0.85485930  0.42704472
  H -2.99275579  1.73339474  0.64239660
  H  1.41794197 -0.46363184  1.87517459
  H  2.33852436  1.32308714 -0.01354773
  H  1.80824430  0.02063461 -1.09886617
  H  3.61180613 -0.38274898  1.02116047
