10
opt_min/./Product_11789_1_opt.xyz
  C  1.13376669 -0.00054628  0.23476099
  N  10.50841898 -9.92322442  3.65524260
  H -34.64965449 -22.23630431  4.76148243
  C -15.06288913 -0.63697617  4.53120586
  O -2.10861238  13.20281717 -13.42317856
  H -3.94191823 -2.30952738 -10.49320059
  C  1.12470718 -9.75638036  1.07001723
  H -0.03338299  2.40241267  2.76886953
  H -5.55070387  0.74127245  0.35800130
  H  0.85831973 -3.54260090  3.48410984
