14
opt_min/./Product_4871_0_opt.xyz
  C -1.54127900  0.75075400  0.16376400
  C -1.00362974 -0.57422287  0.65306803
  H -1.74787856 -1.37000231  0.68168141
  C  0.38874074 -1.02690385  0.52283041
  C  1.55402823 -0.24462895 -0.06797884
  O  1.25832093  1.11481616 -0.28799754
  H  2.05884793  1.63495052 -0.19137402
  H  2.39178239 -0.36390857  0.62822330
  H  1.83768208 -0.72167454 -1.02049309
  H  0.56091273 -2.09976497  0.45910564
  O -0.13300976 -0.61108345  1.75155342
  H -2.58375757  0.64312036 -0.11611760
  H -0.98305068  1.11618495 -0.68975010
  H -1.47098276  1.48410644  0.95941449
