15
opt_min/./Product_3269_0_opt.xyz
  C -1.65469200  0.68315000 -0.28865900
  C -0.81149881 -0.57264462 -0.48167920
  C  0.25731919 -0.75277153  0.59914841
  C  1.30599961  0.31105158  0.55039828
  C  2.57180349  0.09094972  0.24900603
  H  2.93866986 -0.89763354  0.02734714
  H  3.29889299  0.88422991  0.21967608
  H  0.97571707  1.31735022  0.76879294
  H -0.22865065 -0.73628211  1.57781087
  H  0.72994103 -1.72770299  0.47123636
  H -0.32145823 -0.53690840 -1.45530977
  H -1.46407702 -1.44762686 -0.46849659
  H -1.07834305  1.57670661 -0.50618010
  H -2.51049278  0.66566068 -0.95563426
  H -2.01884434  0.74404899  0.73136457
