13
opt_min/./Product_1294_0_opt.xyz
  N  1.77266600  0.20190600  0.26324100
  C  0.45835705 -0.17045048 -0.15857517
  O  0.51595631 -0.70822784 -1.43879498
  H -0.15684095 -1.38840139 -1.52954176
  C -0.50986116 -0.70257160  0.85379402
  H -1.15589757 -1.50858944  0.54357143
  H -0.24022348 -0.75198347  1.89401100
  C -0.77857411  0.64115779  0.20973966
  O -1.85315990  0.70076754 -0.67516145
  H -1.59153153  1.19769433 -1.45860169
  H -0.64826025  1.53337713  0.81902502
  H  1.73113760  0.79942163  1.07878883
  H  2.24479464  0.69291572 -0.48615109
