15
opt_min/./Product_9602_0_opt.xyz
  O  3.15702100 -0.01146100  0.44982800
  C  1.95065584 -0.36722450 -0.05232431
  C  0.91537468  0.43654134 -0.23726912
  C -0.40403620 -0.02353232 -0.78353262
  C -1.50115540  0.14588917  0.23831583
  C -2.12900609 -0.86620289  0.81576238
  H -1.88056519 -1.88331656  0.58089073
  H -2.90233085 -0.69266723  1.54194264
  O -1.82987884  1.43533252  0.56088810
  H -1.29205584  2.04022540  0.03721616
  H -0.66110510  0.55934284 -1.67700899
  H -0.33585353 -1.07398950 -1.06357892
  H  1.00026643  1.48353873  0.03617251
  H  1.92248512 -1.41679981 -0.30707955
  H  3.15034043  0.92558364  0.68642349
