9
opt_min/./Product_10785_0_opt.xyz
  C  0.01302700  0.43649600  0.42751000
  C -0.97890587 -0.03385767 -0.58712611
  H -0.47182696 -0.34659698 -1.49592219
  H -1.49192720 -0.90565002 -0.17990324
  H -1.71337361  0.74057921 -0.78968650
  O -0.15349278  1.34244425  1.20317471
  C  1.32822555 -0.34944464  0.43818063
  O  1.59915448 -1.21607170 -0.34307129
  H  2.01789899 -0.03502018  1.24296526
