12
opt_min/./Product_11178_0_opt.xyz
  N -1.95087000  0.22503300  0.04657800
  C -0.59567595  0.05884566  0.01293416
  N  0.31441259  1.02991824  0.13149522
  H  0.11843844  2.00876061  0.26084358
  C  1.66016504  0.47517651  0.04728417
  O  2.64479133  1.19032933  0.13182252
  C  1.41614755 -0.87861813 -0.12706019
  H  2.11383610 -1.67679511 -0.23728300
  N  0.03899453 -1.09397708 -0.14296994
  H -0.40046904 -1.99216571 -0.25618991
  H -2.56133864 -0.56276614 -0.05077969
  H -2.34154145  1.13815580  0.16904742
