12
opt_min/./Product_2577_0_opt.xyz
  N  1.33838600 -0.72413700 -0.51361000
  H  2.31313365 -0.68267828 -0.79556719
  C  1.06550154  0.06267309  0.68384422
  H  1.90105547  0.52548087  1.19831354
  C  0.61358243  0.50703240 -0.67225869
  H  1.01557347  1.36845088 -1.18844157
  C -0.87915769  0.25020952 -0.70549085
  H -1.47219266  1.14587525 -0.90472338
  H -1.12796970 -0.52539760 -1.43583429
  N -1.11690495 -0.25897470  0.65480875
  H -2.04990119 -0.57891681  0.88024213
  C -0.11415121 -0.39015831  1.46987427
