11
opt_min/./Product_189_0_opt.xyz
  C  1.83113400  0.05588500  0.29843600
  C  0.35616933 -0.01141753  0.30603700
  N -0.47335341  0.71023750 -0.30356495
  C -1.78082680  0.20855765  0.03859900
  H -2.38446646  0.98456481  0.51144567
  H -2.32224820 -0.10987387 -0.85429103
  C -1.54269371 -0.95154528  0.97284620
  O -0.25243826 -1.02070968  1.08476817
  H  2.22539163 -0.62888894 -0.45120834
  H  2.22454504 -0.23365981  1.26913062
  H  2.14046041  1.06509151  0.04366043
