14
opt_min/./Product_7890_0_opt.xyz
  C  2.07287300 -0.37642600  0.08952900
  C  0.72508462  0.28062985 -0.00763932
  N  0.83022665  1.61357320 -0.35267438
  O  0.03003088  2.46212399 -0.00260047
  C -0.42264099 -0.42120945 -0.09172188
  C -1.80827800  0.12827138 -0.25453917
  O -2.66137137 -0.26660930  0.79502911
  H -2.64035230 -1.22718297  0.87732153
  H -1.81341950  1.21918279 -0.23369620
  H -2.21708293 -0.20826242 -1.22285775
  H -0.35836061 -1.50471379 -0.10527456
  H  2.49595633 -0.50815613 -0.90412316
  H  1.98569598 -1.34597151  0.57017845
  H  2.75310682  0.24747475  0.66272953
