13
opt_min/./Product_1313_0_opt.xyz
  C  1.94255600 -0.78322800  0.19446300
  O  0.55794381 -0.59260016  0.07079037
  C  0.11737963  0.66020135 -0.22546974
  C -1.24029136  1.00641135 -0.25176000
  H -1.47624002  2.00663803 -0.58580834
  N -2.25365863 -0.01021631 -0.60839311
  H -1.95605241 -0.94454654 -0.89628285
  C -2.18165937  0.34045389  0.71354452
  H -1.89635930 -0.41566258  1.44281363
  H  0.85611482  1.45157287 -0.29756804
  H  2.12061885 -1.42593881  1.05718340
  H  2.47268565  0.15988121  0.33935522
  H  2.33310159 -1.27586441 -0.70129427
