11
opt_min/./Product_2530_0_opt.xyz
  C -0.21262620 -1.08462762  1.33002331
  N  0.26513158 -0.80736902  0.00864955
  C  0.17292563  0.32316618 -0.54714756
  N  0.55053696  0.50309431 -1.84793242
  H  0.80891818  1.43185925 -2.13427416
  H  1.08004398 -0.25571368 -2.23900028
  N -0.37427894  1.44854282  0.03342911
  C -0.92554588  2.31695020  0.58879343
  H -1.04818659 -1.77934083  1.24925562
  H  0.59080652 -1.58108802  1.87078048
  H -0.53613381 -0.19904147  1.88714576
