15
opt_min/./Product_8138_0_opt.xyz
  C -0.95970000  0.86234500 -0.57350300
  H -1.56145742  0.90268332 -1.48416789
  H -1.34938744  1.58412995  0.15473944
  O  0.37850861  1.17832607 -0.89175637
  C  1.26577554  0.24718245 -0.29507718
  O  2.30733211  0.90021812  0.34327486
  H  3.04443942  1.05510719 -0.25922721
  H  1.63691936 -0.43036374 -1.08419598
  C  0.41720972 -0.52117118  0.72665984
  H  0.35155847  0.07255802  1.63824941
  H  0.82065963 -1.50299752  0.96043703
  C -0.95288037 -0.56674719  0.03138241
  C -2.01535969 -0.66948840  1.02540815
  H -2.72333995 -1.47788309  0.76910222
  H -0.92727063 -1.30108459 -0.78769972
