9
opt_min/./Product_1626_1_opt.xyz
  N  2.42296100 -0.20573000 -0.76767900
  C  1.31964689  0.03094369 -0.25659604
  C -0.04880778 -0.37858926  0.02740701
  H -0.18800034 -0.77268356  1.03329543
  C -1.18248679  0.24825958 -0.65883576
  H -2.14325363  0.29926340 -0.16393494
  H -0.98855576  1.01904434 -1.39572782
  O -0.73945187 -1.03837987 -0.98908376
  O  2.05571171  1.08545830  0.06752124
