11
opt_min/./Product_1466_0_opt.xyz
  C -1.01663999 -0.74584994  0.52872809
  C  0.00923486  0.26121694 -0.04089957
  O  0.86513692 -0.45073298 -0.96518423
  C  2.11276094 -0.43389549 -0.75142164
  N  3.24235682 -0.44441381 -0.56815725
  C -0.84238830  1.19798428 -0.75278662
  H -1.42540349  1.78305935 -0.02680027
  H  0.61457577  0.67926724  0.77955630
  H -1.64490886 -1.11896430 -0.27380797
  H -0.47202906 -1.56574341  0.98500202
  H -1.63906900 -0.27293082  1.28223417
