11
opt_min/./Product_3056_0_opt.xyz
  O -1.31725725 -1.30010173 -0.64051304
  C -0.72992529 -0.04261745 -0.35073626
  C  0.21219101 -0.07658972  0.82712777
  C  1.32410769  0.62670444  0.93226233
  H  1.93318307  0.56158734  1.81468427
  H  1.65866641  1.28270525  0.14971827
  H -0.09902130 -0.73169786  1.63134071
  C -0.05095897  0.42304678 -1.55073906
  N  0.47050607  0.79679605 -2.49487162
  H -1.53779852  0.68934495 -0.14311658
  H -1.36684918 -1.81735886  0.16913193
