10
opt_min/./Product_11221_0_opt.xyz
  C  0.56727700  0.91496600  0.02879300
  H  1.24937039  1.74411800  0.03147600
  C -0.75048077  0.80168393  0.16276425
  H -1.54942126  1.50109571  0.32417383
  C -0.75307635 -0.69468820  0.00556250
  H -1.09064256 -1.26472461  0.86812703
  H -1.26218926 -1.05917816 -0.88397707
  C  0.78943532 -0.56494376 -0.13891977
  H  1.35983494 -1.03678863  0.65760232
  H  1.19021191 -0.87553541 -1.10117378
