13
opt_min/./Product_9923_1_opt.xyz
  N  0.68657505 -1.53152091  1.59789706
  C -0.08948471 -0.68568830  1.11690494
  C  0.23169227  0.54593353  0.27068461
  C -0.85172526  0.77829260 -0.80217719
  O -0.90772139 -0.36620818 -1.61909441
  H -1.39278525 -0.17044778 -2.42444625
  H -0.60237405  1.67557261 -1.38303513
  H -1.81856752  0.93939949 -0.29894033
  C  1.52137433  0.40955610 -0.36252242
  N  2.53786138  0.28336909 -0.86810222
  H  0.25526235  1.41988402  0.93089536
  H -1.14445556 -0.81581015  1.33751031
  H  1.67494443 -1.41933759  1.37748668
