8
opt_min/./Product_707_0_opt.xyz
  C -1.01512000 -0.02159800  0.01779000
  N  0.29396814 -0.44651718 -0.36173890
  C  1.29429317 -0.06415613  0.28147526
  H  1.24282575  0.59358121  1.16210832
  H  2.26621434 -0.40643150 -0.03345448
  H -1.03762014  0.60624209  0.91811910
  H -1.44679486  0.53338810 -0.81395414
  H -1.62753185 -0.90652040  0.17268108
