12
opt_min/./Product_10313_1_opt.xyz
  C  0.26806200 -1.01391000 -0.14021700
  H  0.54193233 -2.04019340 -0.27444101
  C -0.66764149 -0.13555810 -0.92775628
  O -0.30729340  1.10646005 -1.42855172
  H -0.16825216  1.71624082 -0.69261294
  H -1.29835176 -0.63337999 -1.65596642
  C -0.94067893 -0.37595606  0.51662817
  H -1.79646748 -0.80270700  0.99761712
  C  0.44242653 -0.12463021  1.04100359
  O  1.06768334  1.12264758  0.94976006
  H  1.59545772  1.15605794  0.14491544
  H  0.68372836 -0.58607887  1.99379873
