10
opt_min/./Product_7766_0_opt.xyz
  O -2.05893700  1.17941300 -0.05555100
  C -1.80152014  0.04224624  0.19077335
  N -0.45575047 -0.50464972  0.19779745
  C  0.57106476  0.41409175 -0.28601000
  H  0.22300484  1.42897788 -0.41939691
  N  1.58817832 -0.14318098 -1.22393417
  C  1.96073986  0.05339911 -0.04713951
  H  2.76633889 -0.04038100  0.63977010
  N -0.22456279 -1.61812207  0.61337107
  H -2.50934001 -0.73913340  0.50797107
