11
opt_min/./Product_1378_0_opt.xyz
  N  0.95654700  1.05903500  0.81430700
  C  1.35557974 -0.12545891  0.72775244
  O  0.67119074 -1.14601864  0.20784783
  C -0.65195409 -1.05466520 -0.20800988
  H -0.86206452 -1.93321570 -0.81698454
  O -1.63118874 -0.69200130  0.68902071
  C -1.43029409  0.16864985 -0.40827382
  H -0.98345811  1.12438415 -0.17203978
  H -2.21885615  0.16172132 -1.15363810
  H  2.33145837 -0.51997183  1.04578177
  H  1.61653541  1.69935222  1.23927174
