14
opt_min/./Product_3748_0_opt.xyz
  C  1.33808100 -0.69487900 -0.35802400
  C  0.75182562  0.62144510  0.11992809
  H  1.40063613  1.04615548  0.89415701
  O  0.51706887  1.57843259 -0.91597212
  C -0.76089334  1.74953589 -0.67574478
  C -0.75730920  0.70908175  0.46157814
  C -1.63664852 -0.49497839  0.16359872
  H -1.48782106 -1.27909117  0.90086387
  H -2.67560301 -0.17872684  0.20085567
  H -1.43896672 -0.88532631 -0.82882311
  H -0.97730037  1.09909719  1.45189906
  H  1.20180607 -1.44592878  0.41449118
  H  0.85046629 -1.02179276 -1.27089681
  H  2.40130313 -0.58144642 -0.54589357
