11
opt_min/./Product_895_0_opt.xyz
  N  2.47834800  0.35503900  0.29449100
  C  1.23354899  0.21231825  0.16381841
  C  0.28404883  1.32665115  0.26863941
  C -1.01411569  0.69509635  0.02150499
  H -1.41170939  1.19227288 -0.86754204
  H -1.67887988  0.94214978  0.84924385
  C -0.78065436 -0.81725647 -0.17228181
  H -1.26442956 -1.41792564  0.60374848
  H -1.12364466 -1.18518835 -1.14321888
  O  0.61895158 -0.99183830 -0.08935656
  H  3.01683683 -0.50005542  0.20033604
