13
opt_min/./Product_7684_0_opt.xyz
  C  2.05148900  0.73336200 -0.11559000
  C  0.76879865  0.64624760 -0.41333778
  C -0.12627083 -0.43990422  0.11838932
  C -1.48288167  0.14494680  0.48472240
  H -1.47268759  1.03439563  1.10190889
  C -2.67309217 -0.21679797 -0.31473480
  O -2.50399428 -0.80321511  0.80840691
  O -0.26666371 -1.41631596 -0.89938726
  H -0.73089090 -2.18555612 -0.55066037
  H  0.32979216 -0.89069406  1.01536043
  H  0.30670888  1.33248869 -1.10634792
  H  2.67084201  1.50176777 -0.54264045
  H  2.52326529  0.04469400  0.56409308
