11
opt_min/./Product_5450_0_opt.xyz
  O -2.04446800 -0.30689400  0.00843500
  C -0.76712080  0.04931374  0.28166624
  N  0.30955536 -0.90867960  0.56990490
  H  0.23788016 -1.70268075 -0.06191518
  C  1.29301333  0.08651334  0.06308769
  H  1.89828425 -0.25304794 -0.77363548
  H  1.91836227  0.43422242  0.88602065
  C  0.15114700  1.05924154 -0.27327915
  H  0.03889252  1.74335102 -1.09077321
  O -0.53688469  1.21966212  0.96003746
  H -2.07623437 -1.22122504 -0.29669185
