12
opt_min/./Product_4362_0_opt.xyz
  O -1.14270300  2.20855400  0.20563000
  C -0.21660765  1.49472029 -0.03974288
  C -0.11982126  0.04276200  0.38310005
  C -1.10387640 -0.78886300 -0.44024542
  H -0.85688240 -0.72436732 -1.49661011
  H -2.11057835 -0.41340160 -0.28488081
  H -1.05659813 -1.82957040 -0.12955335
  O  1.21330985 -0.42365183  0.13941850
  C  1.89777090 -0.75991507  1.18787290
  H  2.88930019 -1.07833208  0.80640433
  H -0.34074589 -0.04836120  1.45788963
  H  0.66014152  1.84479362 -0.61605657
