15
opt_min/./Product_248_0_opt.xyz
  C -2.07663039 -0.81619700  0.35001449
  C -2.73451940  9.89382710  12.44143911
  C -11.04251671  18.02909595  10.51833238
  N  0.97418547  0.19041544  7.30730396
  C -12.94049486  17.19303245  24.05544149
  C -6.08767521  21.12031129  17.00114429
  H  3.47559992 -38.51895957  7.32755736
  H  13.42980157  23.58897532 -4.69719176
  H -3.22667353  13.01885350  6.54257731
  H -14.89195829 -0.24296493  7.03360048
  H  12.45216924  8.12274838  4.81400746
  H -4.89792646  5.16983712  11.81618955
  H  0.38320438  0.98849738 -3.40442088
  H -21.45954472  20.08174940  13.87603936
  H -9.59273876 -2.56133450 -0.49145058
