14
opt_min/./Product_10163_0_opt.xyz
  N  2.39972800  0.71886600 -0.31355600
  C  1.46733108 -0.18761138  0.07375711
  O  1.73276347 -1.15895693  0.73852474
  C  0.04999853  0.18803349 -0.36355733
  C -0.94684701 -0.87002241  0.07243049
  O -2.30054983 -0.47139604 -0.28835986
  C -2.95641123  0.40950356  0.31896412
  H -2.42249146  0.84836327  1.19980605
  H -0.89707988 -1.02907663  1.15320666
  H -0.76250836 -1.81493525 -0.44075996
  H  0.02224422  0.30926249 -1.44878374
  H -0.18663365  1.15552142  0.09088165
  H  2.19260034  1.46459867 -0.95426525
  H  3.37065193  0.49358791 -0.16158405
