15
opt_min/./Product_9571_0_opt.xyz
  C  1.71777000  0.76689500  0.74607600
  H  1.19347733  1.68349195  0.99220730
  H  2.38943651  0.43453086  1.53024082
  C  2.02605881  0.44388556 -0.69137032
  H  2.65542472  0.68510080 -1.51042157
  C  1.06530497 -0.24499904 -0.15314361
  C  0.02769034 -1.28204913 -0.23234912
  C -1.36473903 -0.72959572  0.06244089
  H -2.09574439 -1.51649532  0.23142490
  C -1.80972368  0.58260435 -0.50704134
  H -2.11132141  1.11073337 -1.37711012
  C -1.54719089  0.58081446  0.76742642
  H -1.47918353  1.09861887  1.69215331
  H  0.04720629 -1.72302255 -1.23463286
  H  0.24902261 -2.07471861  0.48883066
