15
opt_min/./Product_11744_0_opt.xyz
  C -2.72634200  0.46516700  0.07156600
  C -1.69698430 -0.24311988 -0.35066685
  C -0.26353843  0.13382805 -0.13659103
  O  0.40315926 -0.99347701  0.41863457
  C  1.75465129 -0.94073639  0.49852349
  C  2.61396185  0.05012341  0.27582296
  O  2.29737061  1.34011846 -0.11788546
  H  3.11454955  1.81701803 -0.29063808
  H  3.66581742 -0.15175596  0.41223327
  H  2.14644756 -1.89021573  0.83293151
  H  0.20209574  0.38424680 -1.09862387
  H -0.18227578  1.00275186  0.52226526
  H -1.84276584 -1.17179505 -0.88343702
  H -2.59596078  1.38993472  0.61070081
  H -3.74212671  0.15878881 -0.11462169
