10
opt_min/./Product_7763_0_opt.xyz
  O -2.31057020  1.93309827 -0.67811890
  C -1.10622847  1.93386381 -0.76359761
  N -0.31054861  0.96694910 -1.23979723
  N  0.53775474  0.18375346 -0.79977138
  C  0.67982420 -0.01321102  0.52324695
  N  1.56627091 -0.85466625  0.94383745
  C  2.35403002 -1.64622535  1.28155826
  H  3.15944472 -2.23437019  1.60549319
  H  0.07474874  0.48595825  1.27512147
  H -0.52702664  2.88324190 -0.63355489
