12
opt_min/./Product_7082_0_opt.xyz
  O -0.40100000  2.31395200  0.22489700
  C -0.11355936  1.15092594  0.16679760
  N  1.12625041  0.62396707  0.00722678
  H  1.95261533  1.19348142  0.09003522
  C  1.14867933 -0.81579045  0.17171650
  H  1.61491770 -1.32408391 -0.68142016
  H  1.71314133 -1.11995407  1.06339721
  C -0.24158903 -1.28359635  0.36144325
  C -1.05376024 -0.07965417  0.13757904
  O -2.27050233  0.09767751  0.76697941
  H -2.73433881 -0.74767454  0.80222002
  H -1.18659095 -0.19809471 -0.97474651
