12
opt_min/./Product_1267_0_opt.xyz
  C  2.08656100 -0.03622000 -0.06509800
  C  0.59816417 -0.07548040  0.03402776
  C -0.16070565 -0.92569614  0.78903808
  N -1.56873038 -0.46886936  0.43348285
  H -2.07601320 -1.25298163  0.02007585
  H -2.06986754 -0.18122039  1.27532299
  C -1.35753051  0.66573753 -0.54046269
  H -2.18366349  1.19767071 -0.96243258
  N -0.12683077  0.84442132 -0.72898177
  H  2.44217823 -0.76354375 -0.79496945
  H  2.40667580  0.95335269 -0.38085486
  H  2.53319509 -0.27509868  0.89685161
