12
opt_min/./Product_3622_0_opt.xyz
  C  2.66998700 -1.79748800 -0.37618300
  C  1.80693593 -0.98946497 -0.16187775
  C  0.79686702 -0.03970074  0.08214852
  C -0.45458007 -0.36530434  0.39485648
  C -1.53989700  0.63506089  0.66120393
  O -1.08494355  1.97159958  0.56383738
  H -1.55773673  2.42043032 -0.14120241
  H -2.37302742  0.43677365 -0.02279999
  H -1.91921169  0.48307552  1.68387093
  H -0.76066525 -1.39851046  0.48382719
  H  1.08668434  1.00048427  0.00911134
  H  3.42960770 -2.49765701 -0.55548386
