13
opt_min/./Product_7872_0_opt.xyz
  N  0.08629796  1.50730181 -0.37019926
  C -0.13241269  0.21018233  0.23074341
  O -0.55924372  0.34242863  1.54258889
  H -1.34908728  0.89899084  1.56750960
  C -0.93412059 -0.75391058 -0.67521421
  H -1.21824612 -0.34757675 -1.64991363
  H -1.78067900 -1.24992254 -0.19306830
  O  0.19867139 -1.62342581 -0.76858229
  C  0.96289262 -0.86213665  0.05073948
  N  2.14295837 -1.08818786  0.38153737
  H  2.55983148 -0.41283021  1.01268635
  H  0.59103827  2.11139029  0.27104615
  H  0.61316008  1.43681308 -1.23312130
