16
opt_min/./Product_3019_0_opt.xyz
  C  2.59734900  0.25329500 -0.51471400
  C  1.50461402 -0.26728477 -1.34794587
  C  0.35423494 -0.80484589 -0.60653706
  C -0.48050881  0.49025269 -0.34778646
  C -1.75462101  0.14153172  0.40474133
  H -2.40168612  1.01512256  0.46339204
  H -2.28217236 -0.65978928 -0.10953440
  H -1.52349268 -0.19127748  1.41538371
  H -0.72421562  0.93993980 -1.31384809
  H  0.11927097  1.19906931  0.22535871
  O -0.39557873 -1.74529214 -1.33377209
  H -0.32959260 -1.50602641 -2.26834282
  H  0.56696862 -1.26928827  0.36490583
  H  3.44506038 -0.39965441 -0.74596167
  H  2.44112460  0.26015418  0.57185269
  H  2.89031252  1.24316945 -0.87079429
