15
opt_min/./Product_10502_0_opt.xyz
  C -1.41531600 -1.44613900 -0.64790800
  C -0.50589903 -0.23741871 -0.81647449
  C -0.53222992  0.64320123  0.45402010
  C  0.30029815  1.81996699  0.10977184
  O  1.56775990  1.83186380  0.46636891
  C  2.34072952  0.84143494  0.98396965
  O  2.16007826 -0.33236381  0.92454670
  H  3.24202563  1.32036331  1.40799141
  H -0.19822804  0.05225869  1.31131205
  H -1.55899525  0.98339794  0.60937051
  H  0.51635870 -0.56777849 -1.01080313
  H -0.83588888  0.36685133 -1.66439300
  H -1.20366902 -1.95826832  0.28869799
  H -1.25163340 -2.14954965 -1.46223001
  H -2.46120829 -1.14557853 -0.65140220
