14
opt_min/./Product_6644_0_opt.xyz
  C  1.34325900 -0.89051000  0.02053500
  H  2.35231683 -0.92404422 -0.37588645
  H  0.76148695 -1.79708665 -0.08538981
  N  1.00252578 -0.06802727  1.10068413
  H  1.76576506  0.52314830  1.41929237
  C  0.50176639  0.36372936 -0.23442709
  C  1.26299061  1.41270473 -0.80411911
  H  0.66844597  1.98712271 -1.53520818
  C -0.97241767  0.15429399 -0.46975056
  H -1.37572149  0.77058583 -1.27204052
  C -1.87791021 -0.25061361  0.60934878
  H -1.46203170 -0.45406774  1.58799640
  H -2.91215237  0.07289589  0.58773985
  O -1.49724294 -1.13855131 -0.40198438
