11
opt_min/./Product_9445_0_opt.xyz
  N  3.03068096  1.15347721  0.55468070
  C  7.36280082 -16.65930864  3.96031712
  C  3.19457880 -11.66621854  4.39409218
  O  30.90524998 -5.28061604  7.40643291
  C -1.91858539  9.36750998  7.22619376
  C  14.32330261 -0.11220793  7.43768489
  N -4.40150837 -5.51830025  6.84996004
  H -5.77773161 -12.27685621 -14.72937856
  H  4.60295821  0.96538224  9.71854038
  H  10.62583728 -2.34384793  0.41105005
  H -7.06393596 -4.21273480 -2.48190245
