14
opt_min/./Product_7716_0_opt.xyz
  C -2.87774194  0.00905926  0.43059472
  N -1.65605313 -0.39209495  0.79957574
  C -0.49898280 -0.21779494  0.20913625
  O -0.23905350  0.58504080 -0.91358688
  C  1.11835249  0.15645635 -0.89312458
  H  1.60017987 -0.02301993 -1.83655573
  C  1.78487101  0.50815434  0.39900067
  H  1.44170870  1.37406015  0.94492218
  H  2.84600033  0.32668101  0.46344031
  C  0.88630054 -0.72090661  0.31491594
  H  1.22185337 -1.70452677  0.59076100
  H -1.61254282 -1.01693732  1.60050626
  H -2.93496918  0.74497395 -0.34780251
  H -3.64216611 -0.00439535  1.18361309
