15
opt_min/./Product_8777_0_opt.xyz
  O -0.31580901  1.54300938 -0.63293415
  C  6.98357718  1.72685182 -5.70978235
  C  4.18205053  7.50387754 -9.49649495
  H -0.27763495  2.03098736  5.21649691
  C  10.03405063 -0.74627143 -10.60787911
  H -30.03196581  3.16765073  14.61759855
  C  14.99467107  8.46084462 -3.59300380
  H -23.70017685  7.48043621  3.49304323
  H  19.45981287 -0.91023348 -1.80078465
  C  4.95993997  5.71675775  6.28157112
  H  4.71117200  5.32576356 -4.95465155
  H  4.59879808 -6.08329987 -17.63974665
  C  17.00476920  11.27835809  8.58224004
  H -0.97096988 -26.67825422  16.85604926
  H -8.20442071  13.51183423 -17.94884308
