14
opt_min/./Product_6935_0_opt.xyz
  N  2.99485700 -0.42107300  1.04197500
  C  2.18856889  0.45196907  0.42789173
  N  1.09049203 -0.10324249 -0.06025203
  C  0.19240767  0.58646431 -0.90707459
  C -1.13267292  0.54716443 -0.73679174
  C -2.45953131  0.71868195 -0.85542641
  H -3.37927883  1.05213728 -1.24013981
  N -2.02505275 -0.12742773  0.25930561
  H -2.13313521 -1.14504611  0.22600799
  H -2.03987128  0.22055487  1.22173279
  H  0.60523574  1.20492014 -1.68700768
  H  0.91065884 -1.11530373  0.06430560
  H  3.81391888 -0.08301415  1.51582516
  H  2.75426095 -1.40905272  1.20063126
