12
opt_min/./Product_7502_0_opt.xyz
  O  0.17679600  1.47855900  1.84945200
  C -0.09136086  0.67027289  1.02176982
  C  0.70938525  0.16868773 -0.24438763
  C  1.07590296  1.30147698 -1.04552717
  H  2.00399862  1.76152704 -0.66777876
  H  1.52212268 -0.48565401  0.10409991
  C -0.58632929 -0.58113546 -0.62006704
  H -0.98048712 -0.65781032 -1.61675255
  C -1.28047296 -0.13145777  0.63371564
  H -2.30883353  0.11105633  0.84032810
  N -0.94305728 -1.51584076  0.38887988
  H -0.18858643 -1.91249239  0.94271881
