10
opt_min/./Product_1758_0_opt.xyz
  C -1.65774700  0.06517600  0.38396500
  N -0.25520324 -0.08460188  0.13217284
  N  0.23191783 -0.96259580 -0.70475942
  C  1.56997452 -0.83058247 -0.70410707
  N  1.76972901  0.18380710  0.19290213
  H  2.65767845  0.57470299  0.46997496
  N  0.63658799  0.65212304  0.71397840
  H -1.84087789  0.07238811  1.45905894
  H -2.01701549  1.00361124 -0.04368986
  H -2.17010220 -0.77243339 -0.08507708
