13
opt_min/./Product_2440_0_opt.xyz
  C  2.62332309  0.38287525  0.14210410
  N  12.65349279 -4.42732053  0.24107347
  C  6.56671248 -1.37961230  19.69131520
  O -20.88203276  8.64868937 -2.66105726
  C -0.42221784 -6.38673098  13.59122324
  C  12.04114597 -1.35113255  14.74622918
  H -7.40458312  9.33329247  18.86484324
  H  7.28253830 -43.61721278 -27.66698231
  H -6.92249968  10.32755656 -4.02761052
  H -30.35735534  3.24569868 -3.97353483
  H  23.69329161  21.17819259  31.78553177
  H  8.24567078 -27.77673794  11.42560054
  H  1.39842709  0.83412701 -3.89202483
