15
opt_min/./Product_7165_0_opt.xyz
  C  2.37305563  0.87180194  0.97150261
  C -91.20273216 -1.39547746  80.62293908
  H -0.29926003 -62.14170889  16.54621220
  C  24.73342375 -83.11915146 -62.40961615
  H -44.40107758  34.88737462  23.02327596
  H -20.17742894  13.61689395  13.61584206
  N  6.80589092  46.42345559 -37.24005923
  C -45.67436153 -22.98424832  161.08188345
  H  93.21346503  14.74772568 -39.44317017
  H  5.71375096  38.24547948 -82.14909988
  C  5.74829338  42.88258319 -30.43213107
  N -23.22785403 -99.81513488  68.38892601
  H -27.86046067  57.67189261  8.10847525
  H -25.30052117  102.83861711  82.87268331
  H -77.00900444  14.44544509  50.44148820
