13
opt_min/./Product_3388_0_opt.xyz
  C -0.77172000  1.37323400 -0.13318700
  C  0.13284205  0.16497749 -0.08000320
  C  1.45556289 -0.09937326  0.53850604
  O  2.48208012  0.30339801 -0.34757978
  H  3.29437935  0.45203329  0.14610529
  H  1.51484630  0.46002309  1.48365754
  H  1.54016994 -1.17556399  0.74965621
  C -1.26571216  0.01723284  0.28596769
  H -1.84248493 -0.40731932  1.07703717
  N -0.71953770 -0.74888501 -0.83204586
  H -0.98305232 -0.38933615 -1.75450907
  H -0.65566701  2.13904819  0.62597639
  H -1.07708489  1.75738727 -1.10256020
