9
opt_min/./Product_4146_0_opt.xyz
  N  0.67164200  0.70566400  0.03208100
  H  1.23930703  1.53763549  0.06852294
  C  1.11011462 -0.59528348 -0.01673480
  H  2.15944627 -0.81828780 -0.01910269
  C  0.04382211 -1.47951927 -0.05832216
  N -1.02684831 -0.59537293 -0.02989592
  H -1.98753980 -0.89968415 -0.04786102
  C -0.66254979  0.68996304  0.02324521
  H -1.30022362  1.54905482  0.05334010
