18
opt_min/./Product_767_0_opt.xyz
  C -2.39528900  0.51286000 -0.73934100
  C -1.86370786 -0.67345191  0.06669677
  C -0.54046876 -0.33907781  0.78027277
  C  0.52146185  0.07413039 -0.14488431
  C  1.87345412 -0.33763247  0.25306366
  C  3.01060458  0.48606900 -0.34879978
  H  3.05161364  0.37680694 -1.42919984
  H  2.86743075  1.53980082 -0.12476582
  H  3.96528509  0.16645573  0.06496748
  H  2.02446574 -0.46587597  1.33706522
  H  1.91217005 -1.35212345 -0.17300153
  H -0.28716175 -1.13459921  1.50235477
  H -0.70899091  0.57012340  1.37190154
  H -1.68817567 -1.53036486 -0.58353894
  H -2.60144697 -0.97531358  0.81339792
  H -1.54887285  1.11472426 -1.06455139
  H -3.06105224  1.13314065 -0.14888728
  H -2.92269066  0.16738912 -1.62389462
