15
opt_min/./Product_10969_0_opt.xyz
  C  1.97732829 -0.04206272  0.36616086
  C  0.62326872  0.26101956 -0.22472457
  H  0.66997028  0.85144627 -1.13871587
  C -0.43773359 -0.83647295 -0.07340744
  H -0.13717340 -1.78524364  0.33866740
  C -1.84740147 -0.58691833 -0.60161044
  H -2.56874461 -1.31441438 -0.23139738
  H -1.95403224 -0.48101676 -1.68036582
  C -1.86829431  0.77409323  0.11550259
  H -2.28414308  1.69097282 -0.26670789
  O -1.55380715  0.74416063  1.50231391
  C -0.51394283  0.52466285  0.64735593
  H  2.57980935 -0.58712432 -0.35498641
  H  2.49202064  0.88202073  0.62064194
  H  1.87781726 -0.64143914  1.26755807
