16
opt_min/./Product_11771_0_opt.xyz
  C  2.45419600 -0.41885400 -0.32782700
  O  1.53200079 -0.51075590  0.74633074
  C  0.34292928  0.09602345  0.50879894
  C -0.87547522 -0.23770622  0.03374405
  C -1.56090380 -1.43775246 -0.49619343
  H -1.79774104 -1.32822235 -1.55699890
  H -0.92008893 -2.30783750 -0.37391389
  H -2.49507212 -1.61570732  0.03760986
  C -1.33133325  1.19305009  0.30652125
  H -1.61253167  1.78714086 -0.56261082
  H -2.07484545  1.30661725  1.09448659
  N  0.03473718  1.42884278  0.75573897
  H  0.50460047  2.19717884  1.18983190
  H  3.33974523 -0.96884650 -0.01395548
  H  2.04727964 -0.86509231 -1.23920711
  H  2.72004333  0.62334749 -0.53120842
