12
opt_min/./Product_3846_0_opt.xyz
  N  3.27371300 -0.61956103 -0.63043899
  C  2.49900666  0.09783302 -0.18930587
  C  1.48871161  0.94530333  0.41008801
  C  0.58082593  0.11714195  1.26400739
  N -0.40348214 -0.60227016  0.73966869
  C -0.83728137 -0.70778442 -0.50191726
  H -1.70915622 -1.29655403 -0.70064461
  H -0.31909140 -0.23063642 -1.30957741
  H -0.93128108 -1.14125843  1.42018697
  H  0.83798350 -0.05629141  2.29211122
  H  0.92520914  1.44334174 -0.38696124
  H  1.98588226  1.70652132  1.01672458
