16
opt_min/./Product_2554_0_opt.xyz
  C -2.07464700 -0.45198600 -0.63439200
  C -0.95905393  0.32887116  0.03242665
  H -1.11248347  0.53633043  1.07966435
  C  0.47560176  0.12903747 -0.37424027
  O  1.48331374  0.19804748  0.60177321
  C  2.50648010 -0.74829634  0.44872812
  H  3.02673533 -0.63500052 -0.50809564
  H  3.22198159 -0.56379818  1.24941790
  H  2.12497772 -1.77090032  0.54658359
  H  0.66735732 -0.60124492 -1.15459558
  C -0.23191067  1.38471933 -0.76095505
  H  0.04806568  2.30744810 -0.28150510
  H -0.51417900  1.49632002 -1.79749432
  H -2.56094544 -1.10135937  0.08481711
  H -2.81569870  0.22919143 -1.04530366
  H -1.68601476 -1.05734858 -1.44792068
