10
opt_min/./Product_10790_0_opt.xyz
  C -1.59335900  0.19320700  0.49069800
  O -0.25554897  0.62464511  0.56078618
  C  0.65723291 -0.18048689 -0.04694732
  C  1.92843059  0.15624933 -0.18108504
  H  2.29518038  1.10088788  0.17543346
  H  2.63032648 -0.51153544 -0.64155053
  H  0.27250868 -1.13131517 -0.40670622
  H -2.17411917  0.88905874  1.09406491
  H -1.70766801 -0.82147258  0.88496645
  H -1.96550076  0.21773226 -0.53940808
