14
opt_min/./Product_9311_0_opt.xyz
  C -0.72915493 -1.62605803 -1.11061601
  C -0.07385574 -0.31054905 -0.86341978
  C  0.28397867  0.15343423  0.34057823
  C  0.92405228  1.50652658  0.56008435
  O  0.16708655  2.34554571  1.40144934
  H -0.70701419  2.47651888  1.02109499
  H  1.88350625  1.38976744  1.06783911
  H  1.09783275  1.98302193 -0.41460212
  C  0.05941688 -0.61303463  1.50421946
  N -0.11432302 -1.23137979  2.45459253
  H  0.11447854  0.30640752 -1.73490546
  H -0.35581032 -2.06403828 -2.03110849
  H -1.80186463 -1.48352137 -1.21669243
  H -0.55348926 -2.30875549 -0.28561513
