14
opt_min/./Product_7548_0_opt.xyz
  C  1.09418200  0.83928300 -0.24665600
  H  1.18482125  1.06290936 -1.30477343
  H  1.82699946  1.41207271  0.30941625
  C  1.05473219 -0.66401241  0.10701162
  H  1.15002677 -1.33700027 -0.74141162
  H  1.76362421 -0.95763010  0.87413880
  C -0.38302404 -0.50222641  0.63240195
  H -0.62232790 -0.90150699  1.61278654
  C -0.34076377  0.99790135  0.29481421
  H -0.53751922  1.80494993  0.99726592
  O -1.35793278  0.84773086 -0.69618819
  C -1.46316665 -0.56287556 -0.45375934
  H -2.45950091 -0.82675237 -0.09373207
  H -1.22464654 -1.15475355 -1.33899193
