10
opt_min/./Product_5046_0_opt.xyz
  C -1.22356200  0.43806400  0.27928100
  C -0.50952457 -0.88779083  0.41369349
  N  0.78890931 -0.88939290 -0.01506394
  C  1.79410550 -0.24657712 -0.17389717
  N  2.94676777  0.07732559 -0.23979598
  H  3.40255096  0.87074052 -0.63177102
  O -1.03390041 -1.89195375  0.80986604
  H -1.99847238  0.50232278  1.03820142
  H -0.53687323  1.27532582  0.36864240
  H -1.70259668  0.47232284 -0.69823348
