17
opt_min/./Product_10098_0_opt.xyz
  C -1.70028600  0.53095300  0.95248000
  C -1.04634872 -0.73848654  0.44742342
  H -1.22601914 -1.60107201  1.07741440
  C -0.90724060 -1.00886058 -1.01750298
  H -1.01795228 -2.02212256 -1.37276068
  H -1.27161810 -0.25853608 -1.70203898
  C  0.31983693 -0.67792889 -0.21345688
  C  0.99851636  0.62015244 -0.40986337
  C  2.16194719  0.96114193  0.13597642
  O  2.92955281  0.20976892  0.96655199
  H  2.46880585 -0.61831314  1.15206882
  H  2.62218736  1.91798585 -0.06090655
  H  0.49389943  1.34170863 -1.03287966
  H  0.99119717 -1.50404523 -0.00082186
  H -2.34083670  0.97508223  0.19364310
  H -0.94902078  1.26749051  1.23383979
  H -2.30769310  0.32073316  1.82854813
