14
opt_min/./Product_5231_0_opt.xyz
  C -0.07230957  1.26257762 -0.26016393
  N -0.32469113 -0.05262025  0.33942666
  C  0.94047313 -0.85737893  0.36166786
  C  2.06030961 -0.13411954  0.71793197
  N  3.04543413  0.47096695  0.82629084
  H  0.78893816 -1.77665187  0.92339987
  C -1.34105069 -0.79777930 -0.41518625
  H -1.60924496 -1.70460117  0.12375189
  H -0.90701470 -1.08625265 -1.37170386
  H -2.23676305 -0.19683222 -0.57500331
  H -0.68782148  0.09427640  1.29382853
  H  0.51134547  1.87654797  0.42251092
  H -1.00986614  1.76686053 -0.49565307
  H  0.51410023  1.12179775 -1.16678838
