15
opt_min/./Product_5820_0_opt.xyz
  C  2.03377500 -0.63632400  0.50846500
  O  1.44814947  0.39680162 -0.27064409
  C  0.18993333  0.10350847 -0.74796538
  N -0.88987425  0.46679321 -0.06497752
  C -0.90709101  1.05295310  1.11955713
  H -1.83512372  1.21858580  1.62515020
  H  0.02082656  1.30054104  1.59325232
  C -2.16046065  0.15535035 -0.69669270
  H -2.98096976  0.50663423 -0.07443113
  H -2.22518334  0.63690967 -1.67367426
  H -2.25168252 -0.92270542 -0.83431623
  H  0.08801599 -0.26922789 -1.75435828
  H  2.95632474 -0.23021025  0.92073240
  H  2.26722728 -1.50764689 -0.11632547
  H  1.37473249 -0.94994333  1.32358256
