10
opt_min/./Product_6121_0_opt.xyz
  C -0.99180900 -0.45598700  0.34750500
  H -1.46548762 -0.43344300  1.33722027
  H -1.68222966 -0.94817143 -0.35849090
  C -0.48661358  0.90556533 -0.10189829
  H -1.05261354  1.50399674 -0.79294983
  N  0.83147135  0.68985282 -0.35540386
  H  1.44506607  1.41547308 -0.70044287
  C  1.24498433 -0.50999549 -0.01850076
  H  2.24552049 -0.86326147  0.09318969
  O  0.20120763 -1.26890463  0.44544004
