12
opt_min/./Product_2013_0_opt.xyz
  C  2.60700700  0.11088000 -0.07822900
  C  1.32276074 -0.07430338 -0.03207756
  C  0.05713642 -0.21789957  0.04739926
  C -1.18813052 -0.85515216 -0.45222725
  H -1.36016359 -1.89551476 -0.21525197
  H -1.52746022 -0.56675749 -1.43971234
  C -1.23765999  0.16314389  0.65450157
  O -1.79258427  1.42455600  0.48553787
  H -1.58951597  1.74656191 -0.39993544
  H -1.45063881 -0.17351291  1.66407382
  H  3.05206222  0.84873612 -0.72588792
  H  3.28789221 -0.47347538  0.51884241
