15
opt_min/./Product_8212_0_opt.xyz
  C -0.93820800  0.85277100 -0.45207000
  H -1.88849594  1.34663096 -0.66389458
  H -0.30970585  0.85133356 -1.35014056
  O -0.28312952  1.63779354  0.56343047
  C  0.97659961  1.55218513  0.74376440
  C  1.74448675  0.57227501  0.01290494
  H  2.72772502  0.88295564 -0.31773634
  C  1.40291793 -0.72478938 -0.01191626
  H  2.11115982 -1.46711433 -0.35372150
  C  0.11765987 -1.23819389  0.58007117
  H  0.05446161 -2.31813722  0.43668001
  H  0.14798125 -1.05583134  1.66135120
  C -1.16104376 -0.58413883  0.01863979
  H -1.54555429 -1.15248554 -0.83197156
  H -1.92580478 -0.59074006  0.79738173
