10
opt_min/./Product_4100_0_opt.xyz
  C -1.39896000 -0.09650600  0.16661200
  C -0.11221749  0.26380423 -0.52780790
  C  1.11225243 -0.11471679  0.23202692
  H  0.99689231 -0.55591443  1.21341672
  N  2.33345301  0.63800803 -0.02917412
  N  2.30595988 -0.46189234 -0.52223108
  O -0.05359897  0.82651793 -1.59207613
  H -2.20664719 -0.13950681 -0.55910143
  H -1.31604815 -1.04001359  0.69783576
  H -1.62958857  0.68906938  0.88575235
