14
opt_min/./Product_3922_0_opt.xyz
  C -1.32971200 -0.10146400 -0.77207800
  C -0.54160673  0.58946804  0.33887415
  O -1.33779989  0.73277687  1.48320892
  H -0.82705395  0.37533511  2.23263448
  C  0.74260298 -0.14987652  0.69906758
  C  1.69903017 -0.43106036 -0.42131223
  H  1.63533996  0.32580114 -1.19649644
  H  1.44082552 -1.40254584 -0.84510193
  H  2.71365473 -0.49587176 -0.03065331
  O  0.94147582 -0.46887783  1.84728340
  H -0.22037737  1.59162388 -0.00291644
  H -1.58112467 -1.11802670 -0.46971650
  H -0.77042482 -0.12602757 -1.70500714
  H -2.25460702  0.44847608 -0.93321875
