15
opt_min/./Product_6680_0_opt.xyz
  C -1.92282000  0.34620700  0.00095900
  C -0.41961419  0.42290885 -0.28020633
  O  0.19768157  1.44721761  0.46459102
  H  0.14017186  1.22583256  1.40153132
  C  0.23965438 -0.93625064 -0.02052767
  C  1.74440916 -0.86442242 -0.14316448
  C  2.43089367  0.22576878 -0.27554902
  O  3.07384356  1.19484143 -0.32296288
  H  2.26116237 -1.80562474 -0.23814910
  H -0.01913183 -1.28039855  0.98922260
  H -0.15892995 -1.67068473 -0.71912159
  H -0.24523583  0.71617375 -1.31872295
  H -2.10034035  0.11135207  1.04866190
  H -2.37869279 -0.42833889 -0.60536893
  H -2.39460896  1.29463866 -0.22896941
