13
opt_min/./Product_10709_0_opt.xyz
  C  2.17525100  0.63263900  0.30646900
  O  1.34143079  0.03138361  1.32292954
  C  0.31895052 -0.64738105  1.07559425
  C -0.12876549 -1.11615799 -0.23190340
  O -1.35355214 -0.71043648 -0.63822740
  C -1.91663919  0.38222267  0.05559223
  H -2.99066980  0.33790033 -0.11118184
  H -1.69298762  0.30697330  1.12733999
  H -1.52873842  1.32979801 -0.33219247
  O  0.46575915 -2.01311566 -0.78701158
  H  2.16710938  1.70844785  0.47942700
  H  3.18228672  0.24590643  0.44939421
  H  1.81617603  0.39361257 -0.69309549
