14
opt_min/./Product_11121_0_opt.xyz
  C -1.85125200  0.28836400  0.24693400
  C -0.87052343 -0.82382697  0.00609096
  H -1.32252498 -1.81361361  0.02147839
  N  0.43534958 -0.77712763  0.59328527
  C  1.13172996  0.37088281  0.94506089
  H  1.35525577  0.55112080  1.97945989
  C  1.35129151  1.18333524 -0.14851227
  C  0.80257735  0.57660323 -1.25874797
  H  0.70845529  0.97872626 -2.25096662
  C  0.35177784 -0.76693863 -0.88633402
  H  0.61609584 -1.68654720 -1.39481597
  H -1.40079218  1.25481276  0.03386767
  H -2.16590493  0.27602220  1.28983219
  H -2.72648526  0.14871748 -0.38242024
