8
opt_min/./Product_5130_0_opt.xyz
  O  2.31137000 -0.23172300 -0.56953700
  C  1.23346807  0.13002853 -0.23642544
  C -0.03289146 -0.68795341 -0.17573178
  C -0.10858640 -1.94637981 -0.49351687
  C -1.17049175  0.16399819  0.30041110
  O -1.05532828  1.31866762  0.58276957
  H -2.11781191 -0.37877096  0.36498538
  H  0.98945638  1.16017529  0.09047936
