15
opt_min/./Product_7676_0_opt.xyz
  C  1.07281200 -1.23320900  0.27839300
  C  0.38748915  0.02609697 -0.29666671
  C -1.11061162 -0.17384992 -0.41056706
  H -1.41085936 -0.80645550 -1.24279394
  O -1.85760959 -0.35340479  0.74581581
  C -2.04814915  0.84675978  0.06115244
  H -3.00991487  0.97173721 -0.42296906
  H -1.64440123  1.72392648  0.55161738
  C  0.75227308  1.09968452  0.68133958
  O  1.59618692  1.95847392  0.27211590
  H  1.89067893  1.91133289 -0.67847398
  H  0.77233350  0.23517627 -1.31439023
  H  1.91774061 -0.95194187  0.90516667
  H  1.42952305 -1.87935309 -0.51791402
  H  0.36352240 -1.77182554  0.89748130
