10
opt_min/./Product_9990_0_opt.xyz
  C  0.29942100  0.25640900 -0.34699700
  C  1.40598899 -0.46986099  0.30602217
  O  2.53955908 -0.07929827  0.36838213
  H  1.09195057 -1.42588394  0.76332274
  H  0.61029410  1.11241598 -0.94165710
  C -1.02357227  0.34660303  0.34708237
  H -1.13660764 -0.13333579  1.30946686
  H -1.59070431  1.26512891  0.23477770
  N -0.83777479 -0.54172273 -0.75429353
  H -1.26701331 -0.27741541 -1.63375219
