16
opt_min/./Product_7563_0_opt.xyz
  C -0.89322200  1.40511400 -0.06678700
  C  0.05590951  0.25892445 -0.20669085
  C  1.31546866  0.27048780  0.23661446
  C  2.18479331 -0.87351878  0.07208636
  C  1.75185335 -1.89536359 -0.68629176
  H  2.37300530 -2.75280301 -0.90455161
  H  3.16358889 -0.86280029  0.51481634
  H  1.71575144  1.14523374  0.72816567
  C -0.52471944 -0.98434948 -0.83718263
  H -1.14117591 -0.70426457 -1.70500294
  H -1.20909260 -1.48821115 -0.11763643
  N  0.52442576 -1.87806492 -1.27893482
  H  0.23255941 -2.66911134 -1.82633194
  H -1.75718074  1.10933725  0.53172898
  H -0.41148653  2.25283341  0.41342157
  H -1.26163948  1.71651999 -1.04533955
