10
opt_min/./Product_375_0_opt.xyz
  N  1.90880000 -1.02152000 -0.01533100
  C  0.78403265 -0.47299347  0.00730625
  O -0.34664561 -1.09128564  0.29043183
  C -1.41981532 -0.12977716  0.21067365
  H -2.13374659 -0.45416932 -0.55089070
  H -1.93245658 -0.08716526  1.17427857
  C -0.82472268  1.18615088 -0.15369338
  N  0.45487617  0.90527516 -0.25575632
  H  1.14753817  1.59764303 -0.49877469
  H  2.68556633 -0.41808672 -0.24828399
