11
opt_min/./Product_8643_0_opt.xyz
  C -1.04949500  1.04490500  0.38951800
  N -0.50158070  0.01917091 -0.21341368
  N  0.73067116 -0.10721662 -0.62993886
  C  1.74882246  0.48377267  0.01929473
  O  2.85001011  0.67585480 -0.41785019
  H  1.50347464  0.70128928  1.10191329
  C -1.32342469 -1.11073917 -0.57067939
  O -2.48597090 -1.16094124 -0.35418428
  H -0.71392724 -1.86406302 -1.08319419
  H -0.45992715  1.91100711  0.62629811
  H -2.09863698  1.00326769  0.61180054
