13
opt_min/./Product_10434_0_opt.xyz
  O  1.62476100 -0.37614800  0.79406800
  C  1.28493450  0.07528776 -0.49094245
  C -0.22460887  0.23729634 -0.68809174
  H -0.42581218  0.66913432 -1.66850354
  C -1.09620287 -0.94684675 -0.31724105
  H -1.17773444 -1.93943603 -0.71646171
  C -1.73023802 -0.33374168  0.69562408
  H -2.49223905 -0.62285817  1.39262989
  C -0.98165376  0.92372238  0.48882400
  O -0.93832036  2.00711880  0.99156635
  H  1.77811481  1.02730354 -0.72379993
  H  1.66333530 -0.69186647 -1.17313799
  H  1.40221456  0.30532585  1.43949917
