15
opt_min/./Product_11950_0_opt.xyz
  C  0.27403600 -0.73878600 -0.50630600
  H  0.32688290 -1.74981536 -0.10436210
  H  0.47124152 -0.76233653 -1.57891045
  C -1.07537351 -0.07980064 -0.18048544
  O -1.91244477 -0.87105395  0.63202607
  H -2.12266347 -1.68666438  0.16395249
  H -1.61380715  0.19525581 -1.10078227
  C -0.68281782  1.17443235  0.61851857
  H -0.88620818  0.97161266  1.68122756
  H -1.22063700  2.06979050  0.30729598
  O  0.69198897  1.40227531  0.41647489
  C  1.32716110  0.17256318  0.14323672
  O  2.38807782  0.36871587 -0.72548320
  H  2.93223288  1.09491261 -0.40001204
  H  1.69132785 -0.25621279  1.10385910
