8
opt_min/./Product_5736_0_opt.xyz
  C -0.85928300 -0.01534100 -0.01104300
  C  0.62128803  0.24399027  0.10111865
  H  0.95076746  1.27363403  0.17594830
  C  1.55850443 -0.82207267  0.50720516
  O  1.48016795 -0.54795193 -0.73639842
  H -1.24890370 -0.41638863  0.92338521
  H -1.05116377 -0.74041777 -0.80041514
  H -1.38909121  0.90385363 -0.24555610
