18
opt_min/./Product_8238_0_opt.xyz
  C -2.99328800  0.19372700 -0.26553600
  C -1.62178121 -0.28807662 -0.72695844
  C -0.50538270  0.23832576  0.17682762
  C  0.85833832 -0.28128703 -0.24912544
  N  1.86681549  0.16951070  0.53585322
  C  3.24074099 -0.21729498  0.31897658
  H  3.51107479 -1.08258725  0.92930085
  H  3.34649564 -0.49482384 -0.72710912
  H  3.90187458  0.61266952  0.54807594
  H  1.64871594  0.77049327  1.31103151
  O  1.04121870 -1.01226000 -1.19732470
  H -0.68936727 -0.06609381  1.20834752
  H -0.49620450  1.33001562  0.15290081
  H -1.43348102  0.04928982 -1.74375646
  H -1.58411162 -1.37567109 -0.72633679
  H -3.00853243  1.27731728 -0.19430151
  H -3.24331885 -0.22200233  0.70480375
  H -3.75441372 -0.10351332 -0.97875406
