15
opt_min/./Product_11142_0_opt.xyz
  C  1.99663400  0.26965300 -0.21757300
  C  0.97821789 -0.01077221  0.90255011
  C -0.35732891 -0.34791904  0.35186038
  C -1.00625403 -1.57693155  0.37376643
  C -2.19129071 -1.25225489 -0.29722644
  H -3.01894491 -1.91054911 -0.53013259
  O -2.37748857  0.01011089 -0.67408085
  C -1.19460620  0.70554192 -0.32777712
  H -1.42375575  1.49971363  0.39056036
  H -0.79135609  1.16772452 -1.23171455
  H  0.89496289  0.87465321  1.54107647
  H  1.31541807 -0.84845265  1.51573146
  H  2.07088756  1.33512601 -0.42078906
  H  2.98091457 -0.09635933  0.06846539
  H  1.70503835 -0.24109674 -1.13524877
