15
opt_min/./Product_9691_0_opt.xyz
  O  3.45042600  0.25273500 -0.04930800
  C  2.17622119 -0.29771865  0.15230339
  C  1.09068364  0.33146674 -0.59519230
  C -0.22934228 -0.30479371 -0.40800671
  C -1.20944160  0.60592117  0.34109296
  C -2.61295980  0.05166288  0.35949229
  H -2.62068680 -0.95266559  0.78106715
  H -3.00116839 -0.00597125 -0.65676090
  H -3.25085853  0.70171924  0.95484742
  O -0.90070564  1.62520679  0.89045576
  H -0.65271084 -0.44670683 -1.40885216
  H -0.22887409 -1.27853405  0.11169582
  H  1.93830623 -0.25039076  1.23227073
  H  2.22259646 -1.37395184 -0.09530398
  H  3.34441539  1.03204878 -0.61126698
