11
opt_min/./Product_5398_0_opt.xyz
  N  2.21133900  0.08234600 -0.12273100
  C  1.09373698  0.69054328  0.42937196
  C -0.03862979  0.10972380  0.72014923
  C -1.16222155 -0.57927281  0.76931717
  N -2.04088447 -0.71572709 -0.27462971
  N -2.22790211  0.22674714 -1.07750975
  H -2.84807275 -0.10727491 -1.83129859
  H -1.42215405 -1.20868307  1.61489376
  H  1.25059596  1.71240503  0.75148908
  H  2.03764098 -0.78406247 -0.60903237
  H  2.81789068  0.70349430 -0.63559330
