14
opt_min/./Product_11110_0_opt.xyz
  C  1.49212500  0.20231300 -0.34414800
  H  2.44218134  0.44396644 -0.78975683
  C  1.16355084 -0.97628056  0.16340713
  H  1.78535891 -1.85135077  0.18152199
  C -0.23035360 -0.97569796  0.68884427
  H -0.35317811 -1.42525458  1.67364202
  C -0.75099185  0.47268159  0.41987132
  H -1.22306719  1.00542997  1.24014531
  C  0.40196139  1.23413169 -0.24867764
  H  0.71766161  2.10172341  0.33112388
  H  0.12373897  1.58549899 -1.24576927
  C -1.65730690 -0.28012931 -0.50184948
  H -2.43405134  0.03919082 -1.18090642
  N -1.24966096 -1.46670888 -0.28394953
