17
opt_min/./Product_8493_0_opt.xyz
  C  1.93669500 -0.62607000 -0.02926600
  C  0.56018996 -0.19326357  0.47106685
  H  0.60952474 -0.08692141  1.56476334
  C  0.14142521  1.14081624 -0.14954283
  H  0.73391534  1.96628914  0.24926696
  H  0.29107371  1.09867738 -1.23140101
  C -1.33759571  1.38697590  0.13590483
  H -1.50546738  1.40460765  1.22233738
  H -1.67591299  2.33501045 -0.28792148
  O -2.15930771  0.38736411 -0.43535937
  C -1.68854331 -0.88353263 -0.31550903
  H -2.43983151 -1.59572725 -0.62665541
  C -0.48180116 -1.21827405  0.11760829
  H -0.20757630 -2.25864365  0.19638001
  H  2.22415345 -1.57306798  0.42413267
  H  1.92849929 -0.75143363 -1.11085200
  H  2.68593570  0.12231904  0.22621151
