10
opt_min/./Product_10940_0_opt.xyz
  N  2.09249800 -0.06798000  0.05057300
  C  0.76195077 -0.09171138  0.00643294
  N  0.00789252 -1.14949691  0.01771595
  N -1.29025884 -0.67760935 -0.01871438
  N -2.30675102 -1.32114198 -0.01688433
  C -1.17574231  0.76983289 -0.05059156
  H -2.04376576  1.39576871 -0.08251237
  N  0.04675534  1.12479059 -0.03441325
  H  2.56180249  0.81503186 -0.04072997
  H  2.60167171 -0.93313652  0.04565044
