16
opt_min/./Product_9_0_opt.xyz
  C  1.92108000  0.65724800 -1.53402800
  C  1.43187008 -0.38414569 -0.88513357
  C  0.84238237 -0.33195915  0.48884832
  C -0.61550271 -0.81927340  0.51234041
  C -1.50077435  0.06496824 -0.31070113
  C -2.55274323  0.71138469  0.15474060
  H -3.15706378  1.34039242 -0.47638602
  H -2.85909647  0.63585274  1.18408317
  H -1.21474994  0.16589171 -1.34928992
  H -0.97512732 -0.84051727  1.53940049
  H -0.65491542 -1.83850155  0.11543781
  H  1.43165448 -0.97091574  1.15065814
  H  0.88858711  0.68792010  0.87209067
  H  1.43946777 -1.35511825 -1.35778355
  H  2.33889629  0.56481405 -2.52258273
  H  1.92720846  1.64318780 -1.10019170
