9
opt_min/./Product_2409_0_opt.xyz
  C  0.96886100 -0.00627000  0.19425900
  H  1.22283308 -0.06305320  1.24399954
  H  1.81525525 -0.01486099 -0.47838913
  C -0.27238638 -0.72307818 -0.31764463
  H -0.25550135 -1.39957087 -1.15092800
  C -1.30871133 -0.59604918  0.78748311
  O -1.16877482  0.71490378  0.84799025
  C -0.21942671  0.77613600 -0.22862565
  H -0.28538918  1.55837529 -0.96266100
