13
opt_min/./Product_4564_0_opt.xyz
  C -0.59871700 -1.29136800 -0.12773700
  C  0.15045939 -0.13032159  0.52979543
  C  1.34563079  0.30969439 -0.31665772
  H  1.88807029  1.11469545  0.17267383
  H  2.01349421 -0.53745659 -0.46438008
  H  0.99855160  0.65756737 -1.28817846
  N -0.73315511  0.96131201  0.75641655
  C -1.40885407  1.81498428  0.28567488
  O -2.13521774  2.67158205 -0.00681364
  H  0.49860433 -0.43495296  1.52526554
  H  0.01551281 -2.18816061 -0.09418171
  H -0.82160328 -1.05044626 -1.16523190
  H -1.53261601 -1.47499489  0.39955079
