9
opt_min/./Product_8490_1_opt.xyz
  C  1.58199400 -0.11533400 -0.17049400
  O  2.60176149  0.20444373 -0.62677572
  C  0.44672435 -0.42326885  0.36979803
  C -0.88574706 -0.16608911 -0.31368153
  O -1.33524678  1.15815513 -0.20498351
  H -1.38238024  1.41287602  0.72262403
  H -0.82298569 -0.36326458 -1.38239266
  H -1.62296507 -0.85713361  0.12162141
  H  0.43981500 -0.96090643  1.29990077
