15
opt_min/./Product_9897_0_opt.xyz
  C -1.01059072  1.97103987  0.06245981
  C  0.30947016  4.24911256  6.64841320
  C -8.33153717  14.24867302  22.12401206
  C -5.94815730 -3.55245463 -10.80065846
  N -30.59373215 -2.24357219  14.79691932
  H -5.00677473  10.86018264 -1.81193011
  H -13.60890894 -3.28858435  5.27294592
  N  1.25113264  19.80160301  13.81883104
  C -13.59771356  3.09239052  19.63474386
  H -2.60509280  3.21090935 -2.45570366
  H -31.78892566 -28.20596642  56.59814244
  H  0.00402344  1.93061528  0.53463307
  H -14.69714148  14.05840798  2.68482852
  H  11.30566018  3.81326583  33.43904510
  H -23.42975940  25.90393278 -23.25671774
