10
opt_min/./Product_5431_0_opt.xyz
  N -2.05194700  0.19718600  0.05926500
  C -1.38464669 -0.39476123  1.01857111
  O -0.04082029 -0.45072581  0.88168809
  C  0.66481803 -0.16901889 -0.25471939
  O  0.21624605 -0.16406265 -1.37522972
  N  1.95722683  0.07707993  0.05018842
  H  2.29140427 -0.09780484  0.98341226
  H  2.62033297  0.17488149 -0.70151258
  H -1.62090913  0.61678605 -0.76397594
  H -3.05703624  0.22499059  0.11859959
