15
opt_min/./Product_7059_0_opt.xyz
  C  1.73761600 -0.72115100  0.06092900
  C  0.64969883  0.35259169 -0.03729979
  O  0.45912658  0.71289731 -1.39302596
  H  0.51758783  1.66352390 -1.50640831
  C -0.66164943 -0.18100400  0.56172532
  H -0.50981335 -0.37573896  1.62801353
  C -1.98186160  0.53197653  0.20690830
  H -1.90149895  1.35865381 -0.48821174
  H -2.60188151  0.81508352  1.05042411
  C -2.32259098 -0.81269343 -0.44392760
  O -1.17089217 -1.33681504 -0.10589319
  H  0.93328203  1.23015096  0.55911019
  H  1.31874133 -1.69387364 -0.17466051
  H  2.51893786 -0.50726973 -0.66136730
  H  2.17139510 -0.73936649  1.05515715
