15
opt_min/./Product_2511_0_opt.xyz
  C -0.63956700 -1.67041200 -0.80619100
  C -0.61783628 -0.65631898  0.32254313
  H -1.37618471 -0.85404447  1.08635965
  C  0.53766750  0.19679393  0.59731729
  C  1.84519520  0.43510655  1.21758163
  H  1.76365129  0.79575899  2.25030212
  H  2.42053684 -0.49131342  1.23898265
  H  2.40374768  1.17628170  0.64456929
  N -0.46216084  0.75280548 -0.02232143
  C -1.06826035  1.75224755 -0.58291352
  H -2.02848532  1.59917018 -1.03389719
  H -0.56205532  2.69429553 -0.66936442
  H  0.29519606 -1.64531748 -1.36321759
  H -1.45792601 -1.45528564 -1.49426129
  H -0.79032519 -2.67015080 -0.40616231
