13
opt_min/./Product_6690_0_opt.xyz
  C -2.06892600  1.10206800  0.08561000
  C -0.96560769  0.38334250 -0.01812269
  C -0.76300908 -1.01308943 -0.58736013
  H -1.02626396 -1.06217761 -1.64786043
  H -1.34785523 -1.76117039 -0.04880871
  N  0.65308353 -1.25260754 -0.41299595
  C  1.13281816 -0.21040475  0.13130271
  N  2.41951748 -0.00877743  0.47030991
  H  3.07859742 -0.73495422  0.27326253
  H  2.70204469  0.85327828  0.89271139
  O  0.26891628  0.81992838  0.40916691
  H -2.04246996  2.08570674  0.51927740
  H -3.01017172  0.72477167 -0.25938214
