21
opt_min/./Product_10821_0_opt.xyz
  C  1.95137000  1.23123000 -0.54174600
  C  1.34660467  0.29313686  0.49524168
  C -0.03127711 -0.29504785  0.11814582
  C  0.04684581 -1.04222088 -1.23143046
  H  0.85263153 -1.77062244 -1.18666490
  H -0.88443716 -1.56892432 -1.43131749
  H  0.22943743 -0.35616533 -2.05301406
  C -0.45683211 -1.27903587  1.21901907
  H -1.38598439 -1.78525702  0.96934610
  H -0.58018924 -0.76121795  2.16595081
  H  0.30719086 -2.04456822  1.33996355
  C -0.95133519  0.80361557 -0.26770377
  C -2.37555974  0.65237903  0.05181130
  H -2.99232823  1.16245712 -0.68906391
  H -2.76620447 -0.35037812  0.24596434
  H -2.46641243  1.23185956  0.97517816
  H  2.03956390 -0.53150907  0.68630864
  H  1.22774623  0.83608519  1.43585279
  H  2.85275425  1.68828070 -0.14244116
  H  1.24210435  2.01141809 -0.79474174
  H  2.22191217  0.69388905 -1.44596002
