15
opt_min/./Product_11585_0_opt.xyz
  C -1.73634200 -0.55398400  0.32487800
  C -0.53765837 -0.00775285 -0.42561597
  H -0.62443067 -0.22077062 -1.49570806
  N -0.26501841  1.40930526 -0.11525955
  H -0.32168986  2.03482356 -0.90854315
  C  1.08860929  1.09718022  0.32401608
  H  1.25904806  1.36252261  1.36773562
  H  1.90167071  1.49524872 -0.28944337
  C  0.84139057 -0.42694143  0.12890501
  N  1.75397170 -0.89728812 -0.86060721
  O  2.58339053 -1.71172876 -0.49703569
  H  0.85149841 -1.01869841  1.04977007
  H -1.67325831 -0.28555264  1.37493246
  H -1.77886442 -1.63570555  0.22984703
  H -2.65005662 -0.13133126 -0.08366907
