13
opt_min/./Product_2256_0_opt.xyz
  C  1.27817900  0.29574600  0.36025300
  H  2.23686762  0.70089282  0.03386291
  H  1.34248697  0.11624286  1.44111712
  C  0.14391148  1.23423202  0.07095879
  H  0.36703803  2.28783829 -0.00082518
  C -1.07501128  0.75230711 -0.10794284
  H -1.92077181  1.37737039 -0.34826974
  C -1.31074752 -0.72881837 -0.06831101
  H -2.15066163 -1.01357841 -0.71026987
  H -1.55648454 -1.04391709  0.95451195
  N -0.16406433 -1.49559081 -0.49664325
  C  0.98190635 -1.02413716 -0.30205868
  H  1.81980414 -1.61841846 -0.64739589
