11
opt_min/./Product_2846_0_opt.xyz
  C -1.47781700 -0.11455200  0.98390900
  N -0.38240533  0.54499654  0.30506202
  C  0.46792224 -0.12834137 -0.44907413
  N  0.75486600 -1.23047256 -1.00737897
  C  1.67679031 -0.06698918 -1.24092615
  H  1.66226297  0.40644039 -2.21596575
  H  2.64657207 -0.09175956 -0.75712404
  H -0.16936566  1.49773508  0.56292040
  H -1.67876627 -1.04615011  0.45813100
  H -1.21664681 -0.34243645  2.02189295
  H -2.36030311  0.52258116  0.96600839
