16
opt_min/./Product_11773_0_opt.xyz
  C  1.95820800 -0.02803700 -0.19930200
  C  0.79605309 -0.53047359  0.66372862
  C -0.53790026 -0.08133965  0.08816608
  C -1.18593806 -1.08129011 -0.84867176
  H -0.50254354 -1.29367477 -1.67042405
  H -1.38969299 -2.01930071 -0.32717471
  H -2.11700490 -0.69239373 -1.25439778
  N -1.42950318  0.70951198  0.93738985
  H -2.04232217  0.65871437  1.72775764
  C -0.84955760  1.36940462 -0.04553437
  O -0.73283431  2.42101302 -0.58934613
  H  0.90640991 -0.12301104  1.67267952
  H  0.82071302 -1.62136233  0.72049581
  H  1.98997505  1.05846817 -0.16958863
  H  1.81293706 -0.34513884 -1.22934697
  H  2.89429272 -0.44001308  0.17132804
