13
opt_min/./Product_7905_0_opt.xyz
  C  2.39631900 -0.34028100  0.52394100
  O  1.26191539 -0.73473363 -0.22004783
  C  0.17827460  0.07959484 -0.18027096
  N -0.00540440  1.15261332  0.42412037
  H  0.74954905  1.48535007  1.01135331
  O -0.74155192 -0.45215917 -1.02979476
  C -2.05837175 -0.21578727 -0.88508197
  N -2.58568988  0.25890461  0.14209523
  H -3.59764950  0.33756366  0.11210059
  H -2.55294765 -0.58524945 -1.79777372
  H  3.13605853 -1.12111423  0.35528545
  H  2.78753494  0.61834045  0.17134835
  H  2.16930348 -0.27742306  1.59199220
