13
opt_min/./Product_6301_0_opt.xyz
  C -1.87670471 -0.16443934 -0.52740847
  C  6.71778986 -48.41586837 -11.41916600
  C  2.06750286  23.04263289 -77.76398727
  C -61.15560385 -35.68685316  2.08443030
  N -17.92271761 -47.94119050  15.99339626
  H  20.61896391  37.96089670  11.19525665
  H -1.94407979  3.55470487 -8.31187426
  O -3.22132213 -43.56940833  51.66872853
  H  85.26192965 -47.77695508  70.55864476
  H  99.08843701  45.94753866 -18.02945334
  H  25.78710249 -1.06616116 -13.64299183
  H -19.27186787  12.62441377  11.28747954
  H -10.84672930  1.85865697 -5.61081424
