11
opt_min/./Product_1092_0_opt.xyz
  C  1.92523300  0.01449800 -0.10886500
  C  0.45117100  0.15788246 -0.04887122
  C -0.34789170  1.28813576 -0.17661560
  C -1.61227956  0.71525982  0.01313246
  H -2.57642571  1.19168975  0.00592724
  N -1.54638207 -0.61152238  0.23688838
  H -2.24534920 -1.33793179  0.31778413
  O -0.24674194 -1.00162350  0.19686148
  H  2.32881121  0.73345736 -0.81976285
  H  2.36024590  0.22855317  0.86882732
  H  2.20239770 -0.99852436 -0.39423216
