15
opt_min/./Product_8704_0_opt.xyz
  C  0.22403000 -1.47505100 -0.73393400
  C -0.18843199 -0.16168161 -0.10272737
  C -1.47866107  0.43433076 -0.61568002
  H -1.48504682  0.39610764 -1.70375925
  H -2.33521075 -0.12448913 -0.24418702
  H -1.58626620  1.47169755 -0.30528206
  C  0.80687938  0.68295302  0.48921121
  C  1.78929455  1.54748543  0.50501066
  H  2.22353754  1.88363452  1.43206813
  H  2.19414535  1.95022795 -0.40885684
  C -0.01020041 -0.07969177  1.44432516
  C -0.35157470 -0.44492365  2.60184692
  H  0.85499785 -1.28761593 -1.60093108
  H -0.65399085 -2.03671525 -1.04184231
  H  0.79144854 -2.08290275 -0.03181528
