13
opt_min/./Product_8512_0_opt.xyz
  O  3.72446800  0.57717900  0.05648200
  C  2.58521047  0.43776193  0.26675504
  C  1.32099815  0.28329856  0.47179938
  C  0.25794318  0.99655607 -0.36239646
  C -0.50575792  0.02810695 -1.19988237
  O -1.40382369 -0.77717493 -0.73792476
  C -1.87925875 -0.87368330  0.45825398
  H -1.56046284 -0.25345546  1.27736005
  H -2.67828321 -1.57855668  0.58342589
  H -0.21685408 -0.17319560 -2.21791098
  H -0.42109461  1.51741444  0.32189305
  H  0.73654648  1.73337464 -1.00548805
  H  0.96945651 -0.39375399  1.23032375
