15
opt_min/./Product_8199_0_opt.xyz
  O  2.59010598 -0.52506496 -0.24993065
  C  1.18141195 -0.60098688 -0.28714535
  C  0.63203087  0.78392289  0.02987764
  C -0.87348611  0.83774149  0.02949798
  O -1.44058998  2.07041030  0.27737749
  H -0.75885277  2.67193829  0.60167775
  C -1.62541263 -0.20627612 -0.18889698
  C -2.36347460 -1.23776514 -0.44961418
  H -2.71556859 -1.91231500  0.31870563
  H -2.67653388 -1.49489884 -1.45272171
  H  1.01970153  1.48993913 -0.71154158
  H  1.01076524  1.08997637  1.01108749
  H  0.80976749 -1.32301046  0.45386251
  H  0.83163482 -0.91942978 -1.27854400
  H  2.96021393 -1.38915904 -0.45739148
