10
opt_min/./Product_4517_1_opt.xyz
  O  1.50995000 -0.04288500 -0.92054900
  C  0.68357761  0.30933541  0.09982468
  H  1.21475515  0.89369729  0.84303864
  C -0.78475591  0.78775301 -0.07350778
  H -1.09607191  1.75667560  0.27181578
  C -1.42496117 -0.10695451 -1.09612159
  O -1.03351199 -1.20892462 -0.46491204
  C -0.44117278 -0.50044621  0.63201675
  H -0.59347350 -0.88717228  1.62529018
  H  1.09423403 -0.73168973 -1.46082679
