18
opt_min/./Product_6810_0_opt.xyz
  C -2.27683900 -0.18664200 -0.51798800
  C -1.29897570  0.97191610 -0.34837912
  C -0.23407282  0.69133878  0.72004855
  C  0.62428038 -0.51727403  0.39553828
  H  0.19588413 -1.46492211  0.69231023
  C  1.47820892 -0.53455624 -0.87376005
  H  1.49238727  0.35033862 -1.48750386
  H  1.57156033 -1.45763740 -1.42142419
  C  2.07410446 -0.44329655  0.47303425
  N  3.06367631 -0.34941987  1.21722245
  H  3.96603137 -0.32687438  0.74254682
  H  0.40363195  1.56919893  0.82663476
  H -0.72702009  0.52673257  1.67725032
  H -0.81286358  1.18008550 -1.30159784
  H -1.84932537  1.86818879 -0.06232375
  H -2.86308829 -0.32482548  0.38632943
  H -1.74950956 -1.11074283 -0.72891635
  H -2.96168173  0.01216123 -1.33683650
