14
opt_min/./Product_11781_0_opt.xyz
  C -1.30362751 -0.66931777 -0.42016804
  C -0.00470166  0.04665451 -0.08584308
  C -0.24058386  1.40801777  0.55110553
  H -0.85072975  2.02386511 -0.10424417
  H -0.74528697  1.29126253  1.50767745
  H  0.70587607  1.92129192  0.71700878
  C  1.05980803  0.04156445 -1.21634935
  N  1.86413444 -0.70964530 -0.44617402
  H  2.78801325 -1.07482196 -0.64499763
  C  1.00658272 -0.81947705  0.66506718
  O  1.13286507 -1.39260505  1.69820475
  H -1.85891458 -0.87925028  0.49215138
  H -1.10677930 -1.61108718 -0.92975784
  H -1.91368608 -0.04745113 -1.07055294
