12
opt_min/./Product_5301_0_opt.xyz
  O -0.68841400  2.03437000  0.60093900
  C -0.69098332  0.90578274  0.21581900
  C  0.23104245  0.02203732 -0.60595518
  C  1.63374790 -0.18721241 -0.05042930
  H  2.11928337  0.77931160  0.04190604
  H  2.20942762 -0.82480399 -0.71332673
  H  1.57754416 -0.65772813  0.92685684
  H  0.28889742  0.31507021 -1.66095719
  O -0.67517544 -1.07894511 -0.41249075
  C -1.59938716 -0.29671205  0.34731864
  H -1.75637349 -0.66949045  1.36190633
  H -2.56870815 -0.19396976 -0.14900643
