13
opt_min/./Product_6485_0_opt.xyz
  C -1.03391300 -0.09644800  1.14387900
  C -0.50996671 -0.01886736 -0.29037526
  C -1.02083595  1.03079950 -1.18927397
  H -1.74002905  1.68689179 -0.66155927
  N  0.92537105  0.27637239 -0.32478814
  C  1.82830288 -0.62157612 -0.76369012
  O  1.56498755 -1.73278069 -1.13768222
  H  2.86103205 -0.22603412 -0.72044296
  H  1.21720319  1.20182260 -0.05180871
  H -0.59655575 -0.99688843 -0.78734023
  H -0.78695170 -1.05387163  1.59785455
  H -2.11627105  0.01879170  1.14659602
  H -0.59764451  0.69758831  1.74968494
