15
opt_min/./Product_10350_0_opt.xyz
  C -0.80774400  1.22680700  0.72188100
  C -0.32285449 -0.07694868  0.12542569
  C  0.90693813 -0.08766474 -0.73249629
  O  0.91626464 -0.58207786 -1.84883063
  N  2.02236300  0.37004277 -0.11747955
  H  2.89213781  0.35036691 -0.62380795
  H  2.00257172  0.80156431  0.78729843
  C -0.63870934 -1.37980852  0.78035594
  H  0.08849311 -2.17016647  0.52131683
  N -1.32809521 -0.95363848 -0.48852420
  H -2.30235677 -0.67486882 -0.43100183
  H -1.07345549 -1.29476353 -1.42025164
  H -1.06255521  1.08271227  1.76815040
  H -1.68739750  1.59611195  0.19820787
  H -0.04007033  1.99116885  0.64285429
