18
opt_min/./Product_8117_0_opt.xyz
  C  2.29752300 -0.62848000 -0.16644800
  N  1.54959643  0.49146140 -0.69614321
  C  0.33889373  0.89306412 -0.13798556
  O  0.27115551  2.21070539  0.27804432
  H  1.13014150  2.63362303  0.18751916
  C -0.73126554  0.10848910  0.02315106
  C -0.83005103 -1.28831312 -0.51354283
  H -0.80125413 -2.02414875  0.29121663
  H -1.78640435 -1.40282659 -1.02341446
  H -0.03459190 -1.50657781 -1.21881989
  C -1.96607665  0.63280514  0.70502774
  H -2.47859030 -0.17300737  1.22677030
  H -1.70189231  1.40925862  1.41761399
  H -2.65936272  1.06303352 -0.01790752
  H  2.13000978  1.24304501 -1.03514822
  H  1.66959844 -1.18222043  0.52567931
  H  3.19549837 -0.30119339  0.37103166
  H  2.60977054 -1.29378106 -0.97532413
