15
opt_min/./Product_8039_0_opt.xyz
  C -1.85163301  0.44484993 -0.18928705
  C -0.51667971 -0.11131906 -0.64541862
  C -0.06158572 -1.30778889  0.24114786
  H -0.70425615 -1.58913248  1.08425501
  H  0.22523508 -2.21026688 -0.29443470
  N  1.14893441 -0.54744375  0.71163138
  H  1.22473076 -0.45254693  1.72329968
  H  2.03533884 -0.90415502  0.34880434
  C  0.67154595  0.69250055  0.00144372
  C  1.62767939  1.14867084 -0.96404419
  N  2.37367849  1.49459788 -1.76089921
  H  0.44013323  1.51750053  0.69936437
  H -2.07501338  1.35651766 -0.73848293
  H -1.91702054  0.68012658  0.89143758
  H -2.62304226 -0.28415764 -0.41991813
