11
opt_min/./Product_2176_0_opt.xyz
  N  1.94489400 -0.04357000  0.00698700
  C  0.63606667 -0.04398828  0.28349268
  O  0.21243540 -0.26541268  1.45511776
  C -1.26631621 -0.24941451  1.51528579
  C -1.63972811  0.00829029  0.24630137
  H -2.65372114  0.09680705 -0.09680579
  C -0.46529438  0.16670672 -0.69171651
  H -0.41399007  1.14530377 -1.17308504
  H -0.43362104 -0.59948945 -1.47366387
  H  2.28342982  0.19366364 -0.90895643
  H  2.60621364 -0.16498295  0.75738249
