10
opt_min/./Product_714_0_opt.xyz
  O -0.91905900  1.23476200  0.36257800
  C -0.67991931 -0.14054607  0.16699839
  C  0.83428513 -0.34800034  0.20239570
  C  1.51540031 -0.15926794 -1.06433446
  H  2.59732154 -0.00719247 -0.89353020
  H  1.04683425 -1.42714495  0.32868505
  H  1.24562422  0.15543297  1.08763277
  H -1.16869920 -0.72922834  0.96287782
  H -1.06261438 -0.46721094 -0.81006951
  H -1.85500819  1.41350326  0.22287054
