12
opt_min/./Product_11710_0_opt.xyz
  C  1.73210700 -0.47640700  0.45339400
  C  0.43019292 -0.40373011  0.12022339
  C -0.50700639 -1.45053772 -0.11066906
  H -0.38535941 -2.51427130 -0.07021499
  O -1.68029298 -0.95256288 -0.41646389
  C -1.65657098  0.37003974 -0.42189503
  H -2.55850227  0.90009689 -0.65676257
  C -0.35196494  0.84686997 -0.08977634
  N  0.14412778  2.02405848  0.02300338
  H -0.52925019  2.76684195 -0.15294067
  H  2.29612706  0.42912780  0.58694733
  H  2.22835279 -1.42079812  0.59217847
