14
opt_min/./Product_7707_1_opt.xyz
  C  0.96754600  0.21991500 -0.39429100
  C  2.41175847 -0.01167373 -0.41396129
  H  2.75845242  0.81641768  0.21977675
  H  2.78387356 -0.94924865  0.02291940
  H  2.83392846  0.16522235 -1.40157572
  C  0.24844613 -0.60724871  0.55844909
  H  0.74455381 -1.47803220  1.01539666
  O -0.59461541  0.11001274  1.43293809
  C -1.24901048 -0.64859561  0.48804980
  C -2.02210815  0.06653988 -0.59052576
  H -1.33395165  0.64123896 -1.20661885
  H -2.73690930  0.74695357 -0.13125099
  H -2.55576990 -0.65238181 -1.20689972
  H -1.70873223 -1.55860699  0.87537746
