14
opt_min/./Product_9435_0_opt.xyz
  C  2.58023000  0.90952600  0.47636300
  O  1.46406758  0.79439790 -0.18846516
  C  0.46810294  0.05823136  0.09776688
  C -0.07680399 -0.99895250  0.95233195
  H  0.35199120 -1.99466208  0.92751672
  H -0.48793216 -0.73393327  1.91985553
  C -0.81951440 -0.49174029 -0.29226773
  C -2.10231570  0.29632365 -0.13542237
  H -2.88901367 -0.34620606  0.25781656
  H -1.96466597  1.13083426  0.54858496
  H -2.42541395  0.68847101 -1.09762142
  H -0.84491639 -1.17018237 -1.14541304
  H  3.27479572  1.63177504  0.09875551
  H  2.77963898  0.33343784  1.36258892
