10
opt_min/./Product_9376_0_opt.xyz
  O  3.82959800  0.12576700 -0.98854700
  C  2.71982721  0.31068399 -0.62981976
  C  1.51040591  0.41845460 -0.27916928
  N  0.31822472  0.81490187 -0.15907520
  C -0.70969974  0.26197866  0.40822014
  C -1.90753816  0.35858498  0.96654972
  H -2.58701545  0.95610789  1.52344597
  C -1.49871082 -1.03328972  0.64339027
  H -1.87240426 -1.50432843 -0.25696824
  H -1.27481182 -1.73087129  1.44311962
