12
opt_min/./Product_2631_0_opt.xyz
  C  2.27019600 -0.04874000  0.19157700
  C  0.97429984 -0.33320105  0.12422555
  C -0.04329092  0.70102212  0.38034318
  C -1.49869881  0.24120244  0.27725146
  O -1.61744101 -1.12188024 -0.04949236
  H -2.52864252 -1.39721410  0.09603424
  H -1.97635918  0.47432593  1.23738559
  H -1.97604712  0.87144837 -0.48882735
  O  0.20886678  1.85429171  0.64229036
  H  0.60708802 -1.31714065 -0.11967136
  H  2.59546695  0.94897058  0.43731543
  H  3.03146480 -0.78779316  0.00905503
