15
opt_min/./Product_8904_0_opt.xyz
  C  1.56829000  0.45002000 -0.26556500
  N  0.33692755 -0.16188371  0.13242061
  C  0.26619059 -1.57593934  0.51376078
  H  0.82448803 -2.18458959 -0.19963062
  H  0.70757870 -1.71570866  1.50588947
  C -1.18860792 -1.95257359  0.55043931
  C -1.82490746 -0.79501269  0.11555087
  H -2.88981849 -0.67227238  0.00556742
  C -0.91083122  0.23536570 -0.14993014
  N -1.19254802  1.47018937 -0.64327083
  H -2.16453415  1.73058265 -0.67481930
  H -0.54363972  2.22658818 -0.50038520
  H  1.48113094  1.53662414 -0.26347632
  H  1.87056815  0.12578707 -1.27050573
  H  2.35101555  0.15842001  0.43767243
