12
opt_min/./Product_8054_0_opt.xyz
  N  2.07609848 -1.45973238  0.38880089
  C  1.04149866 -1.41529034 -0.33982390
  C  0.36360708 -0.78882009 -1.47011014
  N  0.12568339  0.56736470 -1.00447058
  C  0.18077062  0.91884487  0.21318684
  N  0.39667767  0.15361528  1.32195789
  C  0.76472779 -1.20250123  1.06813664
  H  0.35522075 -1.94952546  1.73202501
  H  0.65853762  0.59831503  2.18936463
  H -0.00521042  1.96855916  0.40946349
  H -0.59229674 -1.27157957 -1.69678228
  H  0.97146274 -0.73843564 -2.37848423
