15
opt_min/./Product_8201_0_opt.xyz
  O  0.07310100 -1.37648600 -0.43073600
  C -1.27639354 -1.10447260 -0.09290129
  H -1.63162185 -1.91513459  0.54738366
  H -1.87604938 -1.09067377 -1.01299368
  C -1.29695513  0.25906301  0.59920780
  H -2.20292697  0.81760314  0.38123056
  H -1.19333667  0.15705594  1.67942408
  C -0.03035746  0.94444205  0.07890157
  O  0.57680412  1.66090943  1.12746366
  H  1.41658555  2.01730701  0.82016941
  H -0.24742413  1.62433795 -0.76177957
  C  0.80195907 -0.22938861 -0.41670428
  C  2.06862946 -0.19059712 -0.80296543
  H  2.57864014 -1.08427578 -1.11675255
  H  2.64164795  0.71772165 -0.77867935
