14
opt_min/./Product_10560_0_opt.xyz
  C -1.63665000 -0.06478800  0.87131300
  N -1.05138086 -0.61718212 -0.34175103
  C  0.42140276  0.26864383 -0.91840944
  C  1.29934915  0.13994028  0.03712668
  C  2.54563744  0.26587556  0.74535744
  H  2.79332052  1.20313471  1.23208566
  H  3.39382640 -0.33999956  0.44352334
  O  1.45392482 -0.44280182  1.29885537
  O  0.20740282  0.73045227 -2.01057965
  H -1.67410157 -0.54064665 -1.14301793
  H -0.75200493 -1.57904050 -0.20990850
  H -1.91392430  0.97254484  0.69303501
  H -2.52775248 -0.61598596  1.18196086
  H -0.89911939 -0.10140369  1.66942395
