14
opt_min/./Product_10224_0_opt.xyz
  C -0.73037500  0.90315700  0.00260300
  H -0.87411107  1.61736143 -0.81088521
  H -1.09727607  1.36165106  0.92370885
  C -1.41976615 -0.44222792 -0.27092444
  H -2.22835888 -0.63998120  0.44367155
  H -1.84570830 -0.47582877 -1.28199623
  N -0.36745893 -1.41417054 -0.12589008
  H -0.52154712 -2.39908892 -0.24984640
  C  0.87871247 -0.91483371  0.07215987
  N  1.90997009 -1.64664946  0.16347112
  H  2.75744014 -1.11054153  0.32214808
  C  0.73564111  0.56711469  0.15678735
  N  1.72867222  1.31582009  0.33073757
  H  1.52588581  2.31368906  0.37377704
