12
opt_min/./Product_2939_0_opt.xyz
  C -2.12406100  0.14512600  0.22356600
  C -0.68396104  0.54352362  0.45857421
  C  0.31047700 -0.47819631  0.06016762
  C  1.59019062 -0.21995967  0.03152861
  C  2.84773876  0.06164965  0.04108095
  H  3.36683084  0.46429626 -0.81011540
  H  3.44139906 -0.08821461  0.92881535
  H -0.08033898 -1.44446819 -0.21202687
  O -0.38567968  1.61141479  0.94004809
  H -2.57791509 -0.07425652  1.19079054
  H -2.66245530  0.99380805 -0.19692190
  H -2.21494085 -0.71900612 -0.42590924
