13
opt_min/./Product_8111_1_opt.xyz
  C -0.00047200  1.50434200  0.24708900
  O  0.88954801  1.97051769  0.89773429
  C -0.02445279  0.13308834 -0.38633301
  C  1.25612757 -0.64464445 -0.08955345
  H  2.08959125  0.04807101 -0.01398617
  H  1.17369421 -1.16876128  0.85711096
  H  1.46643636 -1.36652497 -0.87115947
  C -1.28124851 -0.59646529  0.10007276
  H -1.27984178 -1.61883311 -0.26584363
  H -2.18213365 -0.10393289 -0.25538581
  H -1.30986129 -0.62423400  1.18583342
  H -0.12630243  0.29337496 -1.46489236
  H -0.93911095  2.07586517  0.07082483
