14
opt_min/./Product_7956_0_opt.xyz
  C -1.73765400  0.30623700  0.33936500
  C -0.83961692 -0.67861363 -0.41803679
  C  0.54950795 -0.18362978 -0.51324146
  N  1.16325461  0.07205921 -1.61504716
  N  2.42521076  0.53127650 -1.30114735
  N  2.65021132  0.55286309 -0.09361627
  C  1.48443112  0.11411090  0.63258690
  H  1.72246312 -0.75226105  1.24711653
  H  1.14291390  0.90967040  1.29408040
  H -1.21444558 -0.83467290 -1.42935424
  H -0.83778027 -1.63752774  0.10630548
  H -2.76681070 -0.03524823  0.30680684
  H -1.43764631  0.38243311  1.38008494
  H -1.68566060  1.29005561 -0.11317074
