13
opt_min/./Product_8886_0_opt.xyz
  C  2.42276300 -0.59144200  0.26619700
  N  1.16288691 -0.33414669  0.02933202
  C  0.12830794 -1.23064662 -0.01629284
  C -0.98458981 -0.41480781 -0.11233713
  N -2.28865169 -0.80213335 -0.15644012
  H -2.49291698 -1.77934002 -0.05503746
  H -3.01660976 -0.13868584  0.03943607
  C -0.60468146  1.01357932 -0.14496001
  H -1.27456487  1.84050700 -0.29256999
  C  0.72851165  1.04005966 -0.14555983
  H  1.42026311  1.85904188 -0.10018628
  H  3.14184813  0.20754934  0.29423928
  H  2.72619290 -1.60474276  0.45810841
