15
opt_min/./Product_7308_0_opt.xyz
  C -2.65096000  0.89536704 -0.26569984
  O -1.24972924  0.90156355 -0.33090706
  C -0.59075702 -0.18099962  0.17671590
  C -1.13494020 -1.26987136  0.72069442
  H -2.19604426 -1.41427682  0.81355010
  H -0.50115700 -2.05486195  1.08804197
  C  0.82222482 -0.03995176  0.06929743
  C  2.01367901  0.09659389 -0.02082018
  C  3.44802589  0.24621362 -0.11515271
  H  3.86008662  0.50146948  0.86151216
  H  3.89839196 -0.68655347 -0.45621896
  H  3.69309802  1.04066582 -0.82086712
  H -2.97378618  1.85538393 -0.67213683
  H -3.07547290  0.08496964 -0.86931521
  H -3.00558305  0.80050563  0.76627973
