13
opt_min/./Product_5567_0_opt.xyz
  C  2.11252800 -0.54453800 -0.48231600
  C  1.52520868  0.60556881 -0.18422361
  O  0.22991816  0.85677844  0.09306243
  C -0.68027165 -0.22537100  0.05145592
  C -2.06455064  0.32308383  0.38045314
  H -2.48973981  0.84210454 -0.46979773
  H -1.98560970  1.02564994  1.20137821
  H -2.73413611 -0.48111224  0.67107672
  H -0.38639602 -0.99607097  0.77473079
  H -0.67342267 -0.67354203 -0.95248443
  H  2.08165654  1.53068624 -0.12807230
  H  3.16562922 -0.58714397 -0.67890262
  H  1.56833700 -1.47016964 -0.53750424
