10
opt_min/./Product_9368_0_opt.xyz
  C  2.15157301 -0.38709305  0.93555894
  C  1.10217375 -0.13172260  0.41587291
  C -0.15076917  0.17100679 -0.20039020
  C -0.97207066 -0.95717907 -0.69713993
  O -2.06718514 -0.84892697 -1.17717040
  H -0.46456673 -1.93409484 -0.57175590
  N -0.26745154  1.49210050 -0.97542381
  C -0.85524781  1.43438527  0.11547012
  H -1.46158969  1.97615238  0.80114303
  H  3.06447175 -0.62330298  1.39575117
