13
opt_min/./Product_3400_0_opt.xyz
  N  0.93577800 -0.95330200  0.29951800
  H  1.39302396 -1.77215468  0.66717826
  C  1.47263396  0.25950049  0.71596791
  H  2.45394271  0.32725025  1.14241876
  O  0.84643624  1.36123501  0.49422794
  C -0.28177146  1.45442394 -0.20476883
  H -0.84867705  2.33524498  0.04735442
  C -0.96388386  0.18497490 -0.63019334
  H -0.69206764 -0.08150593 -1.65323891
  H -2.04647386  0.30313684 -0.59700193
  C -0.51458789 -0.96682694  0.28917952
  H -0.84926827 -1.92901960 -0.09845642
  H -0.94548052 -0.81355168  1.28830890
