13
opt_min/./Product_8538_0_opt.xyz
  O  2.76576700  0.73937400 -0.23477500
  O  1.47090352  0.52575647 -0.77292355
  C  0.60597865  0.08428761  0.18973362
  C -0.69241534  0.01738677 -0.03970429
  C -1.90362881 -0.43639715  0.71253497
  H -1.95961870 -1.51226041  0.91116475
  H -2.15312010  0.11261550  1.62615454
  O -2.73539035 -0.05288361 -0.38866948
  C -1.60631604  0.33929235 -1.18402183
  H -1.65837298  1.38946968 -1.48560540
  H -1.49336384 -0.29193080 -2.07052800
  H  1.05477263 -0.22318700  1.12435765
  H  3.02738414  1.58887632 -0.61207747
