15
opt_min/./Product_7222_0_opt.xyz
  O  3.36173223 -0.04219454 -0.03840841
  C -60.86861424  6.22699064 -48.96990732
  C  56.62153895 -22.04702525 -46.57522805
  C -38.55754683 -38.30983328  86.08866265
  C -62.75956923  13.68013280 -56.87271360
  C  95.50238073  32.67349060 -0.41971842
  H -53.63362552  14.44636616 -54.38487340
  H -58.54436750  29.46718427  25.33039542
  H -38.96208963 -3.27761673 -97.20913278
  H  49.12801842 -21.10507774  95.50832057
  H  72.16468035 -14.02443051  83.69489121
  O -10.36246284 -15.09397185 -3.89890287
  H  44.48198043  30.88458173 -11.13561039
  H  66.01144205 -31.92477625  3.13473810
  H  52.40634953 -71.40524996  0.59722861
