15
opt_min/./Product_9012_0_opt.xyz
  C -1.19200641 -0.85999881 -0.02117740
  C -0.11151199  0.19053621  0.13102317
  C  1.29613884 -0.30059238  0.09963996
  C  1.70744189 -1.50034845 -0.26536332
  H  1.03478701 -2.28022932 -0.57814518
  H  2.75558941 -1.74715755 -0.26778686
  H  2.00893051  0.45215614  0.41062990
  O -0.33635144  0.98955560  1.35394498
  C -0.50066335  2.08291425  0.54716285
  H -0.70864478  3.06316646  0.92915081
  C -0.32249021  1.49051392 -0.63427585
  H -0.31290800  1.77197910 -1.66037250
  H -2.16912790 -0.38680521 -0.01243776
  H -1.06324168 -1.38804440 -0.96132395
  H -1.13367623 -1.56329600  0.80465237
