12
opt_min/./Product_3214_0_opt.xyz
  C -1.67703300  0.61051900  0.12341600
  C -0.38721977  0.25453213  0.05851476
  C  0.85121333  0.90741722  0.26465136
  H  0.95437485  1.93355290  0.54214099
  C  1.85395970 -0.01640255  0.04527353
  H  2.91196917  0.15928863  0.11993811
  N  1.45619493 -1.23366546 -0.28976707
  N  0.00750220 -1.14347363 -0.30519379
  H -0.38094775 -1.82630897  0.35432103
  H -0.33600299 -1.40098610 -1.23671500
  H -2.47491078 -0.08008075 -0.08227413
  H -1.93915902  1.61476342  0.38564185
