15
opt_min/./Product_8171_0_opt.xyz
  C  2.51417000 -0.97499200 -0.27053100
  C  1.25356415 -0.57487632 -0.24896815
  O  0.91745924  0.74201049 -0.17788656
  C -0.44170003  1.04788812 -0.02032566
  H -0.47429968  2.13533237 -0.11338378
  C -1.18833436  0.48161553  1.23407759
  H -0.59460804 -0.20405456  1.83266584
  H -1.62995706  1.23802294  1.87969514
  C -2.12896032 -0.14533143  0.23919197
  H -3.01736719 -0.73176288  0.37968716
  C -1.48090417  0.29932622 -0.83372542
  H -1.62703909  0.20513871 -1.89240068
  H  0.42629063 -1.27452826 -0.30929108
  H  3.32194927 -0.26881244 -0.21742450
  H  2.75856584 -2.01608948 -0.35228743
