12
opt_min/./Product_1072_0_opt.xyz
  N -1.93358200  0.42844400 -0.76436000
  C -1.28941821 -0.26105178  0.24616989
  C -1.06980433 -1.01563344  1.28800103
  N  0.10447023 -0.70173164  0.19627410
  C  1.16671993  0.15295848  0.50460853
  C  2.39483526  0.01148084  0.03393828
  H  2.65954829 -0.78898207 -0.63678084
  H  3.17863635  0.69155655  0.30800486
  H  0.89394319  0.94522153  1.18877670
  H  0.35933597 -1.45463694 -0.44272922
  H -1.41521003  1.23263294 -1.10174514
  H -2.87261614  0.68748409 -0.49430147
