12
opt_min/./Product_4355_0_opt.xyz
  O  2.51757000  0.21460800  1.12918700
  C  2.19210327 -0.47536099  0.20785313
  O  1.00048767 -0.57009108 -0.34478176
  C -0.03985578  0.21922018  0.19453473
  H  0.28640141  0.86504038  1.00056762
  C -1.41049724 -0.37961660  0.25152382
  H -2.03150721 -0.15595068  1.10340266
  H -1.51963987 -1.38254911 -0.12962582
  C -1.10135918  0.70058200 -0.74372964
  H -1.49944004  1.69010924 -0.58431867
  H -1.01907498  0.41758137 -1.78046589
  H  2.88713805 -1.14684817 -0.32539446
