10
opt_min/./Product_4490_0_opt.xyz
  N  1.82812000 -0.12168100 -0.64349700
  C  1.04313519  0.11429272  0.47189845
  N -0.26145041  0.07168475  0.23098001
  C -1.48104611  0.00973596 -0.58497356
  H -1.77128823 -0.10794775 -1.59605730
  C -1.63068120  0.17598581  0.68854971
  H -2.15495962  0.30817127  1.59904354
  O  1.50648869  0.27259996  1.58608822
  H  1.44042666  0.06313589 -1.55274106
  H  2.79687466  0.11901369 -0.52394394
