13
opt_min/./Product_4025_0_opt.xyz
  C -0.61269732  0.77907164  0.15342463
  C  1.09795497  6.58126954  0.46925518
  C  0.70643499  17.06567582  1.87289301
  C  8.34498457 -1.88557468 -4.57039794
  C -4.91247705  7.45399043 -5.76310523
  N  9.77720613  4.72947385  2.26925064
  H  12.65716090  6.42178147  11.10645031
  H -2.76319007 -2.02239737 -17.51765542
  H  7.10159848 -5.06017586  7.15221109
  H  6.02019062  18.00282602  2.07732154
  H -4.41756144  5.92951565  0.48446187
  H  2.55813835  3.45606931  12.73006811
  H -2.54286604 -3.90452390 -3.92359983
