15
opt_min/./Product_11195_0_opt.xyz
  C -1.74736200  0.69936600 -0.06185800
  C -0.34544044  0.54176775  0.46524664
  H  0.06158025  1.42142168  0.94694185
  C  0.12067964 -0.77732501  0.96965222
  H -0.55401364 -1.61856463  0.92652466
  H  0.81565669 -0.79834753  1.79671101
  C  0.66946312 -0.26147324 -0.35212979
  C  2.04966964  0.24913312 -0.35780480
  O  2.61329846  0.72809616  0.59401490
  H  2.54606384  0.17912490 -1.34624584
  O  0.21884489 -0.82821097 -1.54261023
  H  0.63025268 -1.69181443 -1.66512884
  H -1.87262240  1.67635903 -0.52062913
  H -1.95585675 -0.06020427 -0.81113423
  H -2.46539776  0.59661210  0.74934568
