11
opt_min/./Product_1847_0_opt.xyz
  N  1.93773000  0.64237100  0.18026800
  C  0.88388384 -0.18360603  0.10055592
  C  0.23530596 -1.28632331  0.33747694
  H  0.14576275 -2.26112558  0.73746437
  C -0.48208337 -0.26390489 -0.53912574
  C -1.58046567  0.51436208  0.03547283
  O -2.52662831  0.95097463 -0.56725888
  H -1.47702617  0.66774169  1.13471697
  H -0.56684575 -0.42104276 -1.61471326
  H  2.81352679  0.26215814  0.50509478
  H  1.98216082  1.42829524 -0.44792257
