11
opt_min/./Product_4389_0_opt.xyz
  O  2.16513800 -0.31660700  0.54174800
  C  0.89200527  0.00487505  0.31829675
  N -0.06784115 -0.90837988  0.14427283
  H  0.06863610 -1.89902644  0.02455441
  C -1.31947855 -0.20513473 -0.10541188
  H -2.06062824 -0.45777669  0.65780709
  H -1.73815455 -0.46805413 -1.07824296
  C -1.01087023  1.26079821 -0.01221512
  C  0.35761611  1.29110491  0.25139941
  H  0.94700375  2.17709781  0.38864577
  H  2.29901515 -1.27178155  0.58371278
