12
opt_min/./Product_1145_0_opt.xyz
  O -2.13432300  0.25992800 -0.80854700
  C -1.64890201 -0.44564688  0.29738323
  C -0.15721877 -0.48516231  0.34018203
  N  0.50124950  0.23757932 -0.44629096
  C  1.92653542  0.26009731 -0.42327521
  H  2.29015503 -0.05294176 -1.40525332
  H  2.36749741 -0.37666045  0.35752560
  H  2.24329324  1.29549113 -0.26732756
  H  0.27497885 -1.14368029  1.10482323
  H -2.06922098 -1.45978630  0.27270418
  H -1.99343850  0.03593653  1.23410718
  H -1.39191362  0.79278063 -1.13800262
