18
opt_min/./Product_11564_0_opt.xyz
  C -2.16091000 -0.46590100  0.17908700
  C -1.13506758 -0.32815800 -0.95222159
  C  0.23413244  0.15821740 -0.46321776
  C  0.19501394  1.58125188  0.10650995
  H -0.82540623  1.95075032  0.15826881
  H  0.61739028  1.59683127  1.10767529
  H  0.78171950  2.25248760 -0.51214781
  O  0.67964880 -0.78669634  0.51849123
  C  1.97993303 -0.85724068  0.73244176
  N  2.83066401 -0.12598633  0.16264709
  H  3.79195995 -0.29576813  0.43760998
  H  2.18011397 -1.62969181  1.49265178
  H  0.95002919  0.12246826 -1.29294705
  H -0.99630453 -1.29429118 -1.43891702
  H -1.48259084  0.37689639 -1.70803578
  H -1.79516791  0.00373093  1.08760066
  H -3.10650581 -0.00170974 -0.08896329
  H -2.35055227 -1.51134269  0.40564279
