12
opt_min/./Product_10542_0_opt.xyz
  O -0.92700900 -0.77018500  1.10765500
  C -0.47842284 -1.18808982 -0.13451520
  H -1.04120848 -1.98898944 -0.60496101
  C -1.04322921  0.15279852  0.04871548
  H -2.05247221  0.37609458 -0.27672540
  C -0.06392662  1.31709207  0.05877942
  H -0.20960620  1.91167998 -0.85022451
  H -0.24286231  1.96566276  0.92198861
  N  1.32109404  0.91330319  0.08821266
  C  1.65030406 -0.27578584 -0.09595370
  H  2.70129264 -0.54598433 -0.11040709
  O  0.88173959 -1.37519221 -0.31460569
