12
opt_min/./Product_1029_0_opt.xyz
  O  2.42944300  0.02881500 -0.48070900
  C  1.32230508 -0.34840253  0.17281136
  C  0.10248746  0.20247136 -0.45034921
  H  0.27351855  0.77601204 -1.34916794
  C -1.18533845 -0.57059732 -0.32963889
  H -1.13959926 -1.51875535  0.18164551
  H -1.85532321 -0.55874329 -1.17315537
  C -1.00489921  0.65999562  0.48033206
  H -0.82111651  0.53643864  1.53289114
  H -1.53243081  1.55594222  0.20204898
  O  1.34931122 -1.03394189  1.16250092
  H  3.22143495 -0.34344729 -0.06575430
