11
opt_min/./Product_1556_1_opt.xyz
  N  2.16302800 -0.48050000 -0.18512600
  C  1.01891797 -0.06635639  0.05809566
  C -0.27238652 -0.61460539 -0.46411839
  H -0.40844388 -1.63365599 -0.10688111
  H -0.27106342 -0.62882088 -1.55024521
  C -1.31219845  0.34954825  0.13449206
  H -2.08950600 -0.14712080  0.71004742
  H -1.81412914  0.95538699 -0.62050336
  C -0.54028378  1.29900555  1.00688011
  O  0.71767706  1.02690456  0.90526183
  H  2.93265382  0.00660863  0.25734823
