14
opt_min/./Product_559_0_opt.xyz
  C -1.04739400 -0.52602700  0.88862000
  H -0.73202692  0.00903284  1.76857362
  H -1.89019542 -1.17622158  1.06254967
  C -0.94012895  0.15013557 -0.44708602
  H -1.71867087  0.05817955 -1.18239611
  C -0.02180619 -0.98965456 -0.10194171
  H -0.12706126 -1.96184288 -0.55297554
  C  1.37222658 -0.39507877  0.00988311
  H  2.12000868 -0.98670923 -0.51579049
  H  1.67963186 -0.28299413  1.05991888
  O  1.30144354  0.88105364 -0.61387710
  C -0.02793336  1.36678969 -0.48752836
  H -0.12427431  1.94937197  0.44263975
  H -0.22062787  2.02509399 -1.33296662
