14
opt_min/./Product_1383_0_opt.xyz
  C  0.87128500 -0.71376600  0.13580700
  C  1.95208836  0.04834121  0.85432177
  O  2.90164690 -0.44506020  1.39597704
  H  1.80603034  1.14888256  0.85120880
  C -0.22886962  0.17106517 -0.39645969
  H  0.01465255  0.65874715 -1.33300254
  C -1.07532220  0.94922077  0.57166003
  H -0.88776649  0.82346643  1.62816738
  H -1.37924543  1.94854081  0.29977223
  C -1.66594368 -0.20060392 -0.18479917
  H -2.37465789  0.01393564 -0.97151300
  H -1.87725086 -1.10977907  0.35842173
  H  1.35069996 -1.27252201 -0.67319137
  H  0.47120187 -1.45694584  0.83200749
