12
opt_min/./Product_6078_0_opt.xyz
  O  0.47029000 -0.23383400  1.19484400
  C  1.13911769 -0.95240166  0.23909841
  C  2.44037483 -1.16188471  0.31496190
  H  3.02151474 -0.77898838  1.13497165
  H  2.95158298 -1.72408532 -0.44225967
  H  0.51766351 -1.31519650 -0.57301039
  C -0.83448897 -0.07755532  1.03233640
  C -1.98937993  0.37127232  1.43115531
  H -2.59675075  0.88354539  2.13202668
  C -1.97387351 -0.40922185  0.12924043
  H -2.37897824 -1.41664839  0.09987680
  H -2.09009495  0.12244727 -0.81195289
