14
opt_min/./Product_4166_0_opt.xyz
  C -0.85525000  1.42877500 -0.14522000
  C -1.12172608  2.23277691 -1.15836495
  H -1.59768960  3.17986713 -0.99653470
  H -0.87409541  1.96164375 -2.16803303
  O -0.25841868  0.21650690 -0.31683861
  C  0.00824784 -0.52561958  0.85502626
  C  0.53013174 -1.89371114  0.41166978
  O  1.71089990 -1.77680049 -0.33691968
  H  1.53889016 -1.12161496 -1.02723753
  H -0.24786083 -2.39964991 -0.17983988
  H  0.76855002 -2.50380654  1.28513127
  H  0.76922489 -0.01551133  1.46190021
  H -0.90121283 -0.65244364  1.45602335
  H -1.09956412  1.68697332  0.88075229
