16
opt_min/./Product_10830_0_opt.xyz
  C -1.64691700 -0.46469000 -0.08693300
  H -1.59423333 -0.02341126 -1.07181101
  H -2.56798346 -1.00196815  0.09810297
  C -0.35334375 -1.00717095  0.53094528
  C  0.95545471 -1.03571278 -0.23826488
  C  1.22790589  0.21646039 -1.07531402
  O  1.13907667  1.41689825 -0.35397071
  H  1.58727649  1.31702550  0.49456254
  H  0.49582351  0.31022027 -1.88309592
  H  2.22432755  0.11447969 -1.53455364
  H  0.96471665 -1.89618216 -0.91496694
  H  1.76510180 -1.16857926  0.48684868
  H -0.46306264 -1.88030885  1.17182239
  C -0.96926487  0.21864889  1.02287609
  N -0.90141979  1.11706750  1.87880069
  H -1.65411739  1.80487310  1.84650959
