13
opt_min/./Product_10232_0_opt.xyz
  C  1.74394600  0.21056800  0.09590100
  C  0.52626315 -0.63892505  0.14309288
  N -0.72550246 -0.19399251 -0.00204033
  C -1.80399757 -0.97436004 -0.22976422
  H -1.65824558 -2.03732306 -0.23971708
  H -2.77794681 -0.58554123 -0.00844046
  C -1.00647001  1.19373329  0.02622180
  O -0.21057280  2.07761135 -0.00318934
  H -2.09481419  1.36358846  0.08512861
  H  0.62864807 -1.71109185  0.14734942
  H  1.75984968  0.94846988  0.90071850
  H  2.62042813 -0.42470872  0.18854802
  H  1.81403125  0.76909123 -0.84075216
