13
opt_min/./Product_450_0_opt.xyz
  O -1.75011000 -1.10136100  0.45666200
  C -0.52294166 -0.79531574 -0.12922439
  H -0.27615916 -1.63783220 -0.77634059
  C -0.41359137  0.59170293 -0.80099025
  H -0.13729994  0.62158726 -1.85480965
  H -1.28651673  1.21853217 -0.62296120
  N  0.72997627  0.93723488  0.09146113
  H  0.80435971  1.85246525  0.51793718
  C  1.89329899  0.02423976  0.12912443
  H  2.00753251 -0.46020525 -0.85117225
  C  0.64668687 -0.35443300  0.80468689
  H  0.53181983 -0.38916446  1.87895284
  H -1.96293515 -0.43588967  1.12224603
