15
opt_min/./Product_11072_0_opt.xyz
  C  2.14166400 -0.44812700 -0.12844800
  C  0.71262818 -0.04997727 -0.02688905
  C -0.34032090 -0.59154572  0.57978229
  H -0.36875175 -1.49380130  1.16047757
  C -1.53749882  0.30855380  0.35310864
  N -2.76742159 -0.29606722 -0.11652692
  H -3.05603163 -1.04528803  0.50426988
  H -2.63609985 -0.67786815 -1.04669817
  H -1.77685485  0.80697690  1.30615179
  C -1.01613709  1.41344732 -0.55686989
  N  0.26306106  1.13004350 -0.67680669
  H  0.90463990  1.69870473 -1.21438805
  H  2.22255470 -1.48815683 -0.45421921
  H  2.64174282 -0.37119372  0.83679173
  H  2.66355692  0.17223758 -0.85455053
