8
opt_min/./Product_5415_1_opt.xyz
  C  0.91324007  0.54129161 -0.06761616
  O  1.89173018 -0.11697492  0.65624952
  H  2.34065216 -0.75103268  0.08493706
  C -0.34694807  0.22543344 -0.06212178
  C -1.59521658 -0.12042806 -0.04240938
  H -2.00348665 -0.78090507 -0.79237843
  H -2.26689789  0.26628712  0.70764549
  H  1.26284940  1.40801389 -0.63120474
