13
opt_min/./Product_8359_0_opt.xyz
  C  2.60955700  0.44061600  0.13020500
  C  1.32811599  0.28163218  0.05051086
  C  0.04008196  0.08241238  0.00498206
  C -1.04211796  1.04052284 -0.15499898
  H -0.90772646  2.09793010 -0.25182616
  C -2.18920885  0.35648922 -0.15729337
  H -3.20370219  0.70017367 -0.25460788
  O -2.04833947 -0.98547479 -0.01675118
  C -0.65705633 -1.26177151  0.10099813
  H -0.47331859 -1.75701056  1.06237335
  H -0.36029741 -1.94411147 -0.70395349
  H  3.25234801  0.42233026 -0.73528838
  H  3.10439877  0.62707255  1.07231896
