10
opt_min/./Product_6553_1_opt.xyz
  C -0.41472368  0.41247462 -0.03538025
  C -58.68420126 -91.84733424 -38.90096665
  O  46.68675633  20.42750135  3.99986822
  H -10.80064838 -6.52898100  22.81288678
  H  13.62325196  23.59037430  7.98467507
  H  10.56703493 -19.59280339  22.23744716
  C -31.52184120  6.53817065  5.18214215
  N  35.11645886 -1.35885956  53.75754324
  H  30.30782295  7.16382956  13.92852200
  H -49.57037660 -34.36591050  20.38402951
