15
opt_min/./Product_1342_0_opt.xyz
  C  1.11031100 -0.24355800  0.90176800
  H  0.50712756 -1.01235697  1.36108281
  H  1.72283243  0.30454326  1.60230783
  C  1.61775386 -0.48549447 -0.48436993
  H  2.59354757 -0.11361921 -0.76126838
  H  1.34879561 -1.41586427 -0.96166008
  C  0.52064348  0.51036473 -0.25066810
  N -0.81421228  0.20871634 -0.73095180
  H -0.90061447  0.47496772 -1.70952277
  C -1.75821177 -0.88688702 -0.32463467
  H -1.28123401 -1.48837035  0.46794577
  C -1.97263978  0.51057305  0.12124868
  H -1.68276389  0.90313296  1.09947348
  H -2.75076161  1.10573185 -0.34670470
  H  0.76508213  1.56628500 -0.33381814
