14
opt_min/./Product_6280_0_opt.xyz
  C  2.53197900 -0.00894900  0.77733300
  C  1.24499218  0.54659276  0.26933218
  C  0.09880494 -0.11264245  0.29261846
  O -1.05953038  0.42229560 -0.20474089
  C -2.23992717 -0.28360514  0.09641284
  O -3.25834570  0.14595926 -0.72638999
  H -3.24245611  1.11249852 -0.75199994
  H -2.48780279 -0.12854473  1.16760870
  H -2.11673301 -1.35967465 -0.09015160
  H  0.01390269 -1.11945395  0.68704615
  H  1.26971061  1.54611711 -0.14112751
  H  2.40702395 -1.04007351  1.10155914
  H  3.29843299  0.03441588  0.00392732
  H  2.88642820  0.58114546  1.62588402
