14
opt_min/./Product_10693_0_opt.xyz
  C -2.05690100 -0.56063900  0.58339400
  C -0.92093061  0.18608308 -0.05607530
  O  0.29573924 -0.17452783  0.30238503
  C  1.42344923  0.29087034 -0.10364243
  C  2.66749222 -0.29774342  0.45556313
  H  3.32522097  0.48745368  0.82855647
  H  3.22110708 -0.85004207 -0.30712092
  H  2.41825509 -0.97867381  1.26528140
  H  1.46010534  1.06870880 -0.85664919
  C -1.16346053  1.17208387 -1.00030953
  N -1.36281129  2.00291242 -1.77795851
  H -2.92887244  0.08552667  0.65319089
  H -2.33251169 -1.44367797  0.00310102
  H -1.76295486 -0.88084965  1.58128338
