12
opt_min/./Product_5782_0_opt.xyz
  C -0.93068200  0.78239500  0.24120700
  H -1.77671420  1.40725638  0.47686312
  C  0.31616368  1.23479709  0.13997360
  H  0.57289474  2.27238084  0.28423742
  C  1.39030099  0.28719167 -0.09666096
  H  2.38775737  0.63600128 -0.29684045
  C  1.12872990 -1.01427132  0.05394398
  H  1.88273877 -1.78998769  0.03088975
  O -0.09720869 -1.51876078  0.32105354
  C -1.20193008 -0.67691760 -0.00300940
  H -1.46745086 -0.83974942 -1.06592210
  H -2.03101412 -1.03331154  0.61592383
