14
opt_min/./Product_2984_0_opt.xyz
  C  2.20586600  0.30486100  0.57910100
  C  1.00627544  1.14060073  0.30178717
  O -0.19074128  0.65762992  0.19394559
  C -0.58977252 -0.56789183  0.32663322
  C -2.05399761 -0.86535333  0.19420313
  O -2.84227495  0.28032506 -0.01329652
  H -2.42517713  1.01202310  0.45728298
  H -2.39379949 -1.40537074  1.09815836
  H -2.24451864 -1.52657723 -0.66307160
  H  0.09053682 -1.36463272  0.58426816
  H  1.07517638  2.19858632  0.11878768
  H  2.30771769 -0.49315040 -0.16374238
  H  3.09630456  0.92478619  0.55152225
  H  2.14590606 -0.17294406  1.56322810
