14
opt_min/./Product_3510_0_opt.xyz
  C -1.77833500 -0.76552400  0.22011700
  C -0.73621439 -0.06316098 -0.63253287
  H -0.82338717 -0.27038896 -1.69500272
  C -0.26208776  1.33030680 -0.25238712
  H -0.64022596  1.79376673  0.65050754
  H -0.05262245  2.04034740 -1.04221506
  C  0.60176476  0.16700969 -0.09321320
  C  1.81155173 -0.32209835  0.23400875
  C  2.80739037  0.53832632  0.72767985
  H  3.81935391  0.17261341  0.49679558
  H  1.96147144 -1.39915900  0.09973622
  H -1.34262112 -1.10763692  1.15777041
  H -2.19491773 -1.62248998 -0.30565232
  H -2.59556843 -0.08200188  0.45153888
