14
opt_min/./Product_5681_0_opt.xyz
  O  2.93435600  0.81075800  0.83711500
  C  2.02794618  0.11227183  0.09401291
  C  0.71982673  0.13961037  0.35870546
  C -0.24090754 -0.61493836 -0.40296888
  C -1.55947545 -0.63348303 -0.19459735
  C -2.28458232  0.12422500  0.87239703
  H -1.99158021  1.17288981  0.86898953
  H -2.04612694 -0.28224366  1.85533280
  H -3.35917193  0.06465425  0.73108442
  H -2.17300859 -1.25226205 -0.83409798
  H  0.16771893 -1.21093473 -1.20943925
  H  0.36624500  0.74385296  1.17932746
  H  2.42235445 -0.48735926 -0.72001922
  H  3.80868382  0.73336170  0.44423897
