11
opt_min/./Product_2350_0_opt.xyz
  O -1.81139700  0.52133900  0.59281000
  C -1.28405068 -0.67941085  0.10586260
  C  0.21051513 -0.61166993  0.00278995
  N  0.82788458  0.47116345 -0.04169071
  C  2.10239274  0.89415763 -0.08076288
  O  2.87517531  0.95599924  0.83670254
  H  2.30926375  1.33720080 -1.08046175
  H  0.69858216 -1.58811640 -0.08318398
  H -1.65814669 -0.91259575 -0.90444257
  H -1.54346536 -1.52720970  0.76079532
  H -2.74443727  0.58980242  0.36469949
