15
opt_min/./Product_11543_0_opt.xyz
  C  2.37275500 -0.18059200  0.87572400
  O  1.06005048  0.26850600  0.62599628
  C  0.59049144  0.04439933 -0.63113182
  C -0.68570907  0.19648064 -0.96222487
  C -1.75966665  0.56575238  0.02076436
  C -2.78727261 -0.53171996  0.03497029
  O -3.05673356 -1.22224061  0.97589791
  H -3.28009471 -0.69281216 -0.94619589
  H -2.24753011  1.49261434 -0.29395553
  H -1.32995750  0.69470092  1.01304842
  H -0.99194009  0.04367939 -1.98470564
  H  1.33216348 -0.23350529 -1.37448478
  H  2.62516336  0.16214857  1.87705933
  H  3.07973828  0.23998491  0.15300324
  H  2.43367290 -1.27283784  0.83964337
