14
opt_min/./Product_170_0_opt.xyz
  C -2.42390000  0.41419200  0.63595100
  C -1.17819518  0.29407867 -0.22507626
  O -0.07113124  0.04667889  0.61642374
  C  1.12845903 -0.09127364 -0.02788565
  C  2.21603745 -0.49800799  0.61181719
  O  3.40504696 -0.64017967 -0.06495452
  H  4.12985428 -0.73190669  0.56183028
  H  2.21269851 -0.74842460  1.66189865
  H  1.16114443  0.14762361 -1.08237577
  H -1.29285949 -0.52448067 -0.95206995
  H -1.01383835  1.23146929 -0.78631132
  H -2.53929015 -0.48981160  1.23432196
  H -3.29842459  0.54280437  0.00133930
  H -2.33751955  1.26604123  1.30710320
