13
opt_min/./Product_8351_0_opt.xyz
  O  2.36139865  1.40519107  1.05849006
  C  2.13650555  0.14444806  0.54024291
  C  0.96421552 -0.41180115  0.46864005
  C -0.22102698 -0.93651320  0.38444802
  C -1.05012427 -0.85904702 -0.83726150
  C -2.25607416 -0.37643935 -0.84194574
  C -3.45079760  0.12138994 -0.81522870
  H -3.62230212  1.17368024 -0.97285419
  H -4.31827562 -0.50161616 -0.66790857
  H -0.59182578 -1.19439066 -1.75850804
  H -0.64001351 -1.48595528  1.21912400
  H  3.03438926 -0.40930541  0.26303819
  H  2.78136834  1.95394748  0.38623406
