14
opt_min/./Product_7754_0_opt.xyz
  C -1.98560500  0.85975200  0.35193800
  C -1.36807652 -0.32378277 -0.39842673
  C  0.08861869 -0.39108157 -0.18337506
  C  1.01685000 -1.22374935  0.32786089
  H  1.05852752 -2.18483375  0.77898602
  C  2.00030033 -0.19742542 -0.02644238
  N  3.22273863 -0.03464468  0.05039149
  H  3.57812461  0.84370493 -0.31243828
  O  0.96014458  0.64615439 -0.54683581
  H -1.79782060 -1.26967587 -0.06359144
  H -1.56758045 -0.20847630 -1.46624155
  H -3.01943759  1.00112240  0.05209613
  H -1.43482731  1.76775834  0.12491589
  H -1.95567463  0.69388233  1.42445312
