17
opt_min/./Product_9272_0_opt.xyz
  C  2.93725600 -0.55510700  0.80177100
  O  1.67101855 -0.34183670  0.94262430
  C  0.80919515 -0.04337278  0.02952718
  C -0.60602750  0.23748389  0.42315746
  C -0.98680395  1.69528157  0.13571101
  H -0.90841114  1.90173509 -0.92892639
  H -2.00971640  1.88641952  0.44865514
  H -0.32562211  2.37035431  0.67127340
  C -1.56635676 -0.71517674 -0.32510375
  O -1.36307597 -2.06238312  0.01670036
  H -0.46140012 -2.30568008 -0.22219280
  H -2.59996773 -0.49490813 -0.05203721
  H -1.44906132 -0.56061708 -1.40728065
  H -0.70013650  0.04168196  1.49505386
  H  1.13350747  0.09552143 -0.99702195
  H  3.47607614 -0.84963415  1.67757458
  H  3.41283325 -0.48868834 -0.16363210
