12
opt_min/./Product_6291_0_opt.xyz
  C  1.58277500  0.43354200  0.12866500
  C  0.21290428  0.07322815 -0.33094215
  C -0.55723323 -1.13334689  0.19368185
  H -0.41280141 -2.03564341 -0.41095751
  H -0.34605406 -1.37309169  1.25269944
  O -1.92588174 -0.70568598  0.09324826
  C -1.89085732  0.61995665 -0.26885345
  H -2.78114164  1.08125155 -0.64282686
  O -0.69631169  1.03264747 -0.51084972
  H  2.34129314 -0.14307271 -0.40065320
  H  1.75031109  1.49185104 -0.04807065
  H  1.69959301  0.22682286  1.19958250
