19
opt_min/./Product_7694_0_opt.xyz
  C  1.97022900  1.07799900 -0.43059600
  C  1.01341397  0.14436556  0.30322606
  C  1.65193126 -1.25063193  0.50029365
  H  2.58345656 -1.12656585  1.04548915
  H  1.85902327 -1.70661299 -0.46406181
  H  0.99470871 -1.89877940  1.07214920
  C -0.13887327 -0.25061116 -0.52165068
  C -1.38129415 -0.56252795  0.20543133
  O -1.29766500 -0.59796964  1.62458940
  H -2.18880647 -0.64264654  1.98535336
  C -2.32159599  0.56553553 -0.28495546
  H -3.31734284  0.41782309  0.12726023
  H -1.94368784  1.52916586  0.04773658
  H -2.37694351  0.56010567 -1.36796497
  H -1.78654059 -1.51722129 -0.16470200
  H  0.76020050  0.54071226  1.29512932
  H  2.12423013  0.73134095 -1.44829070
  H  2.93001703  1.11776317  0.07919949
  H  1.56142578  2.08362385 -0.47252356
