12
opt_min/./Product_850_1_opt.xyz
  C  0.99841800 -0.19831600 -0.54290000
  C  1.55651425  0.63084056  0.31976310
  H  2.60676458  0.86630886  0.25951388
  H  1.01020343  1.10811761  1.11282003
  C -0.43157279 -0.63004586 -0.57930270
  C -1.34413131  0.06442916  0.42313167
  H -1.32609608  1.14001688  0.28086469
  H -2.36591785 -0.27598121  0.28767803
  H -1.03860506 -0.15878246  1.44066626
  H -0.81576543 -0.46619708 -1.58938471
  H -0.45910275 -1.71244596 -0.40985615
  H  1.61738240 -0.63841330 -1.31567063
