17
opt_min/./Product_9575_0_opt.xyz
  C  2.29921900 -0.33540800  0.48295900
  H  2.42711968 -0.25316829  1.55495397
  H  2.59239243 -1.30153319  0.09139785
  C  2.57676532  0.89508657 -0.36500204
  H  2.88048643  1.80921914  0.12820181
  H  3.04297689  0.75885282 -1.33230750
  C  1.21396052  0.40162021 -0.16413405
  C -0.07568262  0.50446047 -0.38603148
  C -1.07021182 -0.42821060  0.17763900
  H -0.63434842 -1.27899083  0.68934977
  C -2.37327042 -0.65006217 -0.54438235
  H -2.53449875 -0.11238894 -1.46741310
  H -2.79022331 -1.64656747 -0.54349490
  C -2.35775983  0.12171607  0.73314402
  H -2.77044369 -0.33329188  1.62162043
  H -2.50805642  1.19133302  0.68457697
  H -0.47092858  1.30264559 -1.00222426
