12
opt_min/./Product_1666_0_opt.xyz
  C -1.62843400  0.27002200 -0.32838000
  H -1.56270997  0.51277571 -1.38573714
  H -2.15668761  1.06280907  0.20733158
  O -2.19993262 -1.00435808 -0.05017359
  C -1.16539701 -1.52446060  0.55317773
  C -0.32785026 -0.22904071  0.35014379
  O  0.75967415 -0.36797083 -0.52505972
  C  1.99815212  0.06988898 -0.02716088
  H  2.30492814 -0.50423925  0.85395833
  H  2.71855029 -0.09903618 -0.82283551
  H  1.97882795  1.13592590  0.22941744
  H -0.04742959  0.30256393  1.25950137
