13
opt_min/./Product_1424_0_opt.xyz
  C  2.34504092  1.17771578  0.63736482
  C  1.53344672  0.41804873  0.19328246
  C  0.58235495 -0.52928838 -0.35525833
  N -0.82674479 -0.17921631 -0.14200529
  C -1.68301030 -1.18344465 -0.24333221
  H -2.72647655 -0.99912727 -0.08882582
  H -1.32803824 -2.18889043 -0.34209519
  C -1.13142923  1.08159675  0.10202313
  H -2.15658553  1.36662837  0.22907212
  H -0.39598766  1.84810155 -0.03462280
  H  0.75414562 -1.50978004  0.10672411
  H  0.75943682 -0.62629523 -1.43502762
  H  3.05063755  1.84926045  1.02573029
