13
opt_min/./Product_1277_0_opt.xyz
  C  1.65036900 -0.26945000 -0.05702500
  C  0.38803210 -0.26215110  0.79777619
  C -0.84028404 -0.11283304 -0.05638880
  O -1.16482050 -1.26968796 -0.70454994
  H -1.96281362 -1.14439078 -1.23487821
  C -1.51545773  1.01828720 -0.18719687
  H -1.21578798  1.90537275  0.33554935
  H -2.39098039  1.09211669 -0.81496880
  H  0.42426844  0.55776228  1.51742459
  H  0.32263084 -1.20418962  1.34578481
  H  1.81091896  0.71296649 -0.50401000
  H  1.56442115 -1.00089903 -0.85740401
  H  2.51863116 -0.51991480  0.55079776
