8
opt_min/./Product_1017_0_opt.xyz
  N -2.25245729 -0.89024839  0.28991313
  C -1.17381083 -0.57370950  0.07264347
  C  0.15444505 -0.11605172 -0.16312327
  C  0.54763682  1.03847289  0.38209323
  H -0.11704141  1.62981341  0.98313183
  O  0.92541751 -0.92814356 -0.92441672
  H  1.80614560 -0.54558060 -1.02259726
  H  1.54850409  1.41599504  0.23511734
