17
opt_min/./Product_11554_0_opt.xyz
  C  2.71966400 -0.09723800  0.54770100
  O  1.33433617 -0.01700951  0.73415178
  C  0.66385346  0.60029574 -0.34305073
  C -0.83186255  0.61857445 -0.05468563
  C -1.39540930 -0.79639487  0.06601098
  C -2.85230864 -0.95791134  0.34090224
  O -3.44981138  0.22103961  0.45467734
  H -4.39696043  0.10584471  0.62968049
  H -1.20950984 -1.36913491 -0.84951925
  H -0.87451061 -1.33896072  0.86012480
  H -1.34058324  1.15364797 -0.85893599
  H -1.00557303  1.15597722  0.87879145
  H  0.86610860  0.04755511 -1.27597223
  H  1.03846155  1.62892919 -0.47533387
  H  2.96953207 -0.69211784 -0.34081247
  H  3.12748020 -0.58099607  1.43270043
  H  3.16785488  0.89889158  0.43710105
