14
opt_min/./Product_6482_0_opt.xyz
  C -1.18548800 -1.07047600 -0.22674500
  C -0.26633177  0.06617370  0.25488274
  C -0.94400835  1.39703841  0.00759727
  O -0.50810036  2.26349012 -0.69517338
  H -1.92884489  1.49426811  0.50230459
  N  1.03416322  0.03434721 -0.37479865
  C  2.16457884 -0.06227339  0.34805690
  O  2.22157791 -0.22888981  1.54042935
  H  3.06929319  0.00474602 -0.28510591
  H  1.06645425  0.24553394 -1.35944202
  H -0.07764558 -0.03124096  1.33121630
  H -1.82183554 -1.42330699  0.57642730
  H -0.58011323 -1.90113582 -0.57282127
  H -1.81642633 -0.74112307 -1.04847697
