18
opt_min/./Product_7877_0_opt.xyz
  C  2.70192400 -0.09344300 -0.50923400
  C  1.57933070  0.70005522  0.11947540
  H  1.62567958  1.77074525 -0.04828015
  C  0.32225836  0.08521457  0.50435746
  C -0.96901206 -0.39514303  0.00531252
  C -1.83269460 -0.95501223  1.13046971
  H -2.78459184 -1.31036351  0.74454372
  H -1.32455894 -1.78499488  1.61503426
  H -2.02394790 -0.19030153  1.87880125
  C -1.65805884  0.76062469 -0.73726555
  H -1.67417118  1.65317517 -0.11685648
  H -2.68254787  0.48667139 -0.97707649
  H -1.13816191  0.99278589 -1.66272943
  H -0.74758670 -1.19013548 -0.72086463
  N  1.08478199  0.28034484  1.48401109
  H  3.02348702  0.38218857 -1.43100747
  H  3.55169154 -0.15077313  0.16911760
  H  2.38594604 -1.11264888 -0.72875142
