12
opt_min/./Product_11818_0_opt.xyz
  O  1.05729897  1.15292306  0.18697783
  C  0.33280180  0.02308251  0.05989528
  C -0.83075698  0.07253982 -0.90225734
  C -1.80577329  1.02923723 -0.42580286
  N -2.55452235  1.80456602 -0.04594731
  H -0.50639350  0.38324826 -1.90505669
  H -1.30608565 -0.90842932 -0.97938425
  C  0.77842588 -1.17560684  0.58180818
  C  2.07617684 -1.38574354  0.98714783
  H  2.57520891 -0.52248843  1.43927490
  H  0.15555502 -2.04613944  0.39217167
  H  0.65090502  1.90049473 -0.27396163
