9
opt_min/./Product_5642_1_opt.xyz
  C -0.67910400 -0.54050900 -0.08083100
  H -1.28662240 -0.85024583  0.75471176
  H -0.97349789 -0.98536051 -1.01796521
  C -0.14920712  0.85636791 -0.08185792
  H -0.39960998  1.50446341  0.74255387
  H -0.07012521  1.37631643 -1.02360023
  C  0.77741884 -0.29347992  0.16631095
  H  1.47775546 -0.55778387 -0.60845002
  H  1.16035575 -0.43979842  1.16379067
