17
opt_min/./Product_9664_0_opt.xyz
  C -1.48904700 -1.14491500 -0.00127000
  C -0.41500488 -0.06471992  0.17330436
  C -1.03809402  1.31564092  0.30563642
  H -1.71535037  1.32729436  1.15415533
  H -1.58456258  1.55537512 -0.60265241
  H -0.27879857  2.07459051  0.46909951
  C  0.76818969 -0.24387104 -0.78767775
  H  0.69500199 -0.68764811 -1.76444941
  C  1.53867290 -0.66381214  0.43494763
  H  2.16708667 -1.51720846  0.61779943
  C  1.93848090  0.57018310 -0.30693754
  H  1.77852500  1.53429576  0.14883805
  H  2.82923052  0.50618472 -0.91189774
  O  0.44859951 -0.39912759  1.29907832
  H -2.45766805 -0.69835747 -0.20629558
  H -1.24509682 -1.81749706 -0.81949977
  H -1.55876622 -1.72383063  0.91487978
