14
opt_min/./Product_10_0_opt.xyz
  C -1.43300800  0.16132300 -0.66518800
  H -2.49936653 -0.00442442 -0.69835645
  H -1.02891802  0.65826874 -1.53606608
  C -0.82495952  0.47693057  0.67845406
  H -1.47847613  0.61790766  1.52627946
  C  0.47571883  1.17622102  0.61574387
  H  0.62811911  2.16679119  1.01134804
  C  1.39176011  0.43728717  0.00259293
  H  2.40791121  0.72721235 -0.20402174
  C  0.86793528 -0.91468049 -0.39491990
  H  0.98609514 -1.07686757 -1.46930214
  H  1.40913456 -1.71229795  0.12024796
  C -0.59055935 -0.86748291  0.02128033
  H -1.05083284 -1.77493493  0.38542789
