13
opt_min/./Product_2920_0_opt.xyz
  C  2.43745603  0.29834237  0.34224284
  C -4.10244566 -11.75377829 -12.16016671
  N -1.44597167 -19.41876513 -27.37280824
  C  18.57587936  3.04062527 -20.14207908
  C  7.95883734  6.24563325  3.82053356
  O  6.01914451 -7.42245838  19.28316230
  H  1.46361480 -1.84285826 -1.22316011
  H -22.63663899  11.55029495  46.76624808
  H -22.76317328  7.80870444 -7.78040283
  H  20.09690402  20.48508658  6.59930456
  H  10.32983681  3.58547627  8.28686236
  H -22.36703289 -4.57668869  21.37206352
  H  17.62044051  28.41748285 -16.23318581
