15
opt_min/./Product_8880_0_opt.xyz
  C -1.98170200 -0.25495600  0.49451800
  N -0.63383759  0.14349097  0.21097548
  C -0.10317552  1.39435877  0.25496334
  H -0.77651885  2.20326581  0.49638812
  C  1.26951585  1.49606147  0.02330972
  C  1.60909473  0.15757706 -0.17936310
  N  2.86322313 -0.33287563 -0.29211234
  H  3.04501484 -1.29525035 -0.51788707
  H  3.60486390  0.33312047 -0.41474179
  C  0.40407795 -0.76425466 -0.19248619
  H  0.48263482 -1.65812212  0.42734902
  H  0.22609816 -1.07695479 -1.23353148
  H -2.35907811  0.30253796  1.35378929
  H -2.64942995 -0.06938724 -0.35708675
  H -2.00724537 -1.32086356  0.72076598
