14
opt_min/./Product_6931_0_opt.xyz
  N  2.36670700  1.12670400  0.09327000
  C  1.16797270  0.66133095  0.04012338
  C -0.14097674  1.06711324 -0.13813153
  H -0.44549930  2.08086153 -0.30176205
  C -1.00845911 -0.05666257 -0.08552986
  N -2.36001756  0.02818099 -0.22919767
  H -2.78837460  0.91733508 -0.39812887
  H -2.92712067 -0.79730019 -0.22655215
  C -0.29143033 -1.20268236  0.12069758
  H -0.60400602 -2.21875387  0.23583716
  N  1.11930911 -0.84890282  0.23153329
  H  1.71822702 -1.29091537 -0.47152040
  H  1.52924396 -1.06534957  1.14518813
  H  2.40116532  2.13240063 -0.03218406
