10
opt_min/./Product_2794_0_opt.xyz
  O  1.43551300 -0.21182300 -0.38071900
  C  1.97913271  0.80503817  0.13538753
  H  1.38203240  1.26840732  0.95771812
  C  0.16572975 -0.72019870 -0.02338363
  H  0.22617906 -1.79421293  0.14986775
  C -0.87296181  0.07124105  0.73059582
  H -1.29690704  0.12031374  1.70588077
  O -0.94421428  1.13108861 -0.23420906
  C -1.11672047 -0.22112565 -0.64963437
  H -1.81007999 -0.53488422 -1.39479100
