14
opt_min/./Product_7371_0_opt.xyz
  C -0.40949600  1.26537500  0.33131100
  H -0.55772303  2.10825032 -0.34734018
  H -0.98324243  1.45650068  1.23942141
  C -0.86836340 -0.05790036 -0.32089662
  H -1.95881830 -0.11260380 -0.29204162
  H -0.56514109 -0.09697488 -1.36953329
  C -0.28658493 -1.28419629  0.40440708
  H -0.18408273 -1.07369824  1.47702315
  H -0.94225123 -2.14929528  0.27718886
  O  0.97252311 -1.74133603 -0.10599217
  C  1.81517745 -0.75957121 -0.49953845
  H  2.62448381 -1.08447701 -1.13357231
  N  1.75636553  0.41148357 -0.01120467
  C  1.03470520  1.13776526  0.72043184
