12
opt_min/./Product_3821_0_opt.xyz
  C -1.10934890 -0.80631905  0.35220018
  C -0.39241230  0.51139205  0.23407995
  H -1.05460940  1.37681373  0.22911956
  N  0.88790977  0.62287410  0.88303579
  H  1.09979563  1.49459959  1.34936162
  C  0.86170325  0.66236769 -0.56184005
  N  1.41054202 -0.41890827 -1.20993703
  C  1.87148903 -1.33618996 -1.75968984
  H  1.03501685  1.60338537 -1.08187350
  H -1.80599434 -0.92246582 -0.47519425
  H -0.39950056 -1.62520138  0.32604828
  H -1.66366488 -0.85409169  1.28415844
