10
opt_min/./Product_7267_0_opt.xyz
  N  3.49384821  0.88166424 -0.34136744
  C  67.62703598 -18.22523395 -13.36124305
  C -12.54435922 -4.50718490  33.36091393
  N -33.38398627  81.67031435  54.24033089
  C  12.93553934  31.31444067  5.64606139
  C -23.92146362  67.32325173  44.51876671
  H  2.31138672 -101.91615714 -60.11319765
  H  43.74268774 -87.24000549  12.67108048
  N  66.34856185 -61.07739645 -38.93800853
  H -55.53052754  94.60667910  6.63339556
