13
opt_min/./Product_9299_0_opt.xyz
  C  2.39758900  0.45387800  0.28413900
  O  1.26606805 -0.08008891 -0.40158225
  C  0.09468274 -0.05155977  0.23086102
  O -0.09932442  0.37675767  1.33089812
  C -0.99395375 -0.64211528 -0.66582044
  O -2.22855782 -0.66767488  0.03584945
  C -2.78235016  0.49300267  0.23669538
  H -3.68712815  0.27218921  0.84177047
  H -1.06684976 -0.03812914 -1.57536210
  H -0.73645917 -1.67226196 -0.92508137
  H  2.07072467  1.04300148  1.14235827
  H  3.03002223 -0.36992878  0.61631558
  H  2.94067175  1.08058695 -0.42139864
