9
opt_min/./Product_195_0_opt.xyz
  C -1.77238200 -0.15621500 -0.03568600
  C -0.45581103  0.04213753 -0.03506192
  N  0.53207793 -0.85115959  0.29312599
  C  1.64351411 -0.22419694  0.14915142
  H  2.59173754 -0.69077845  0.34125554
  C  1.42215851  1.19049404 -0.30632203
  O  0.13244462  1.26412746 -0.39119587
  H -2.44640548  0.63281892 -0.31606919
  H -2.17144969 -1.11332973  0.24620359
