12
opt_min/./Product_5852_0_opt.xyz
  O  1.42787700  0.14221300 -0.72150800
  C  0.58822679 -0.01595833  0.39716839
  H  1.12669579  0.29290443  1.30970345
  C -0.71063654  0.83533953  0.12205130
  H -0.50328305  1.70792355 -0.49691553
  H -1.14607508  1.16172807  1.06983584
  C -1.51621829 -0.19551111 -0.62205922
  H -2.15420964  0.02049473 -1.45852145
  C -1.19647272 -1.39746273 -0.09358923
  C -0.06618193 -1.38312036  0.63012233
  H  0.32740608 -2.13386855  1.28793366
  H  2.24685337 -0.34184572 -0.56888582
