10
opt_min/./Product_10001_0_opt.xyz
  C  1.95372744 -0.37783225 -1.00127553
  C  10.19050189 -7.46462337  4.77511502
  C  1.13107071 -26.38906324  17.71900608
  C -8.07930303  11.23590995 -15.19672741
  N  6.59059152  5.50487682 -3.92752027
  N  12.50350885 -5.26572885 -3.87542246
  N -10.21523044  20.57770003  5.36238252
  H -10.66635267 -18.65679202 -27.87954871
  H -6.11584330 -5.48626389 -4.50789319
  H -13.05521971 -0.12234572 -14.84601091
