14
opt_min/./Product_7295_0_opt.xyz
  O  2.03399800 -0.65484600 -0.66472700
  C  0.96510172 -0.35052632  0.17995209
  H  0.75611040 -1.17969422  0.87435766
  N -0.20166293  0.10095787 -0.58534745
  C -1.38299191 -0.71760963 -0.52455915
  H -2.18116560 -0.21759116 -1.07098256
  H -1.16830755 -1.66332585 -1.02077666
  H -1.72585349 -0.91915460  0.50089901
  C -0.24207799  1.40560505  0.09818053
  H -0.10882111  2.23258980 -0.60105507
  H -1.12408465  1.59065444  0.71742852
  C  1.00772682  1.03380484  0.85837864
  O  1.72476027  1.56605507  1.64881550
  H  2.68339752 -1.19429431 -0.20234143
