17
opt_min/./Product_7703_0_opt.xyz
  C -1.40227700  0.30540300  1.14931500
  C -0.94700763 -0.45401215 -0.06332456
  C -1.35404352 -1.68989567 -0.32485829
  H -1.03373557 -2.21645758 -1.20722559
  H -2.02097182 -2.21376238  0.33680935
  C -0.01993988  0.23201984 -1.00629997
  H -0.19285019 -0.01849372 -2.05114936
  O  0.35463489  1.56305528 -0.78973985
  C  1.36089614  0.60325102 -0.64534778
  C  1.93316630  0.33168150  0.72763802
  H  1.55687781  1.05282462  1.44550581
  H  1.66331763 -0.66507596  1.06580701
  H  3.01522368  0.40493420  0.70703051
  H  2.08460339  0.61321655 -1.45699193
  H -2.45120752  0.57234529  1.03970284
  H -0.84132180  1.22586192  1.25953255
  H -1.30028093 -0.29518766  2.04729465
