16
opt_min/./Product_10649_0_opt.xyz
  C -2.01334000 -0.71200200  0.17664900
  C -0.67659443 -0.04974414  0.30634894
  N -0.49052654  1.29817449  0.15168513
  H -1.06388718  2.06796154  0.47486804
  C  0.60197135  1.22334165 -0.64895819
  O  1.73228858  1.99185276 -0.49356735
  H  1.63474330  2.60168502  0.24637943
  C  0.56469762 -0.29836791 -0.53840694
  C  1.78265651 -0.94205967  0.09332781
  H  2.56354516 -1.08231281 -0.64985068
  H  2.17516119 -0.31460357  0.89029827
  H  1.51142360 -1.90879953  0.51112589
  H  0.29619219 -0.80285401 -1.46987922
  H -2.24703682 -1.29671294  1.06891979
  H -2.79958332  0.03014215  0.04163804
  H -2.03419828 -1.39484749 -0.67392858
