16
opt_min/./Product_5019_0_opt.xyz
  C  2.12505500 -0.40637100  0.11836500
  O  0.85920779 -0.14336546  0.65800844
  C -0.15090483  0.19114055 -0.27646183
  C -1.17174994 -0.96467772 -0.38762085
  O -1.83931133 -1.26223665  0.80524788
  H -2.25365020 -0.45929176  1.13643595
  H -0.64649794 -1.88081938 -0.66241879
  H -1.88412549 -0.71604469 -1.18939280
  C -0.81932870  1.49778673  0.16600979
  H -1.04918005  1.44571851  1.22494071
  H -1.73206009  1.66639468 -0.39575130
  H -0.15107906  2.33451463  0.00348859
  H  0.28681536  0.32772696 -1.27389746
  H  2.52634699  0.46117549 -0.41598030
  H  2.10549798 -1.26428334 -0.56039981
  H  2.76893429 -0.63471617  0.96093817
