14
opt_min/./Product_2609_0_opt.xyz
  C -1.34375300 -0.81257700  0.20400000
  C -0.68093925  0.49945254 -0.09949115
  O -1.55366749  1.51762328 -0.45434197
  H -1.78427879  2.04810396  0.31130542
  C  0.62624165  0.73027142 -0.08883611
  C  1.68896148 -0.28180742  0.19662532
  O  2.53987682 -0.50665415 -0.91324267
  H  2.84394599  0.34543158 -1.23959235
  H  2.29218404  0.04969760  1.05661910
  H  1.26116338 -1.25689692  0.42424031
  H  0.96763752  1.72477126 -0.34375842
  H -1.04118167 -1.57103891 -0.51044627
  H -1.09562427 -1.16611076  1.20160122
  H -2.42241398 -0.69751179  0.13294322
