17
opt_min/./Product_6899_0_opt.xyz
  C -1.46834700  0.59499700 -0.85458500
  H -2.40756923  1.10575700 -0.98794816
  H -0.82314024  0.64480649 -1.70937562
  C -1.49508577 -0.66097224 -0.03240013
  H -2.42904502 -1.06120896  0.33589156
  O -0.48565390 -1.60067189 -0.27344336
  C  0.59051679 -1.26188059  0.59501934
  H  1.49973172 -1.71753802  0.20937133
  H  0.38712124 -1.66913707  1.59537903
  C  0.61251613  0.28155068  0.66203128
  C  1.47060341  0.86465409 -0.46533994
  H  1.32822970  0.29431097 -1.37467302
  H  2.52141187  0.83039036 -0.19812988
  H  1.20471585  1.89895892 -0.65543406
  H  1.00488400  0.63466433  1.61477489
  C -0.88106749  0.58519476  0.53028560
  H -1.36473939  1.12302089  1.32706627
