17
opt_min/./Product_7113_0_opt.xyz
  C  2.76914200 -0.01223900  0.00042800
  C  1.37654341 -0.55102220  0.27791496
  O  0.42696896  0.38556311 -0.22028731
  C -0.88652474 -0.01297423 -0.11238504
  O -1.25285722 -0.06323011  1.31852217
  C -2.34488412 -0.50036323  1.75117444
  H -3.03979481 -0.87088345  0.95633831
  C -1.77425864  0.98782316 -0.84967199
  H -2.57191226  1.33906082 -0.19473358
  H -1.15857193  1.83896865 -1.13587566
  H -2.21373985  0.54224793 -1.73802987
  H -1.02901893 -1.04712294 -0.48199680
  H  1.22759810 -0.69106855  1.35644867
  H  1.22074812 -1.51836602 -0.22596468
  H  3.51564096 -0.64483931  0.47511415
  H  2.84704660  0.99670812  0.39976036
  H  2.95061115  0.02102363 -1.07214696
