7
opt_min/./Product_5098_0_opt.xyz
  O -0.86651600  0.98596600  0.01105399
  C -0.32867943 -0.29245690 -0.10063812
  N  1.07281866 -0.30195454  0.05251406
  C  2.22819588 -0.27637465  0.18413517
  H -0.55688903 -0.76064815 -1.07216587
  H -0.76396982 -0.88904257  0.70859175
  H -0.49902743  1.55949720 -0.67258474
