13
opt_min/./Product_10372_0_opt.xyz
  N -0.77225800  2.77464200  0.41124800
  C -0.41190935  1.69151343  0.40409696
  C  0.04629608  0.31664671  0.41702176
  C -1.14648794 -0.63342355  0.14867410
  C -1.83343486 -0.38076499 -1.11038072
  H -2.62820035 -1.13728433 -1.24010608
  H -1.87731839 -0.54951646  0.96244510
  H -0.79092971 -1.67085611  0.18603287
  N  1.02172761  0.14774603 -0.63277904
  C  2.23470476  0.04513530 -0.35352357
  H  2.63510604  0.05387674  0.67026218
  H  2.92231986 -0.09903320 -1.17230325
  H  0.47081389  0.11835273  1.42315565
