16
opt_min/./Product_9958_0_opt.xyz
  C -2.78081402  0.27123199  1.51218498
  C -1.71088150  0.20959364  0.54298761
  C -0.82082255  0.15606602 -0.25693402
  C  0.27780119  0.07730865 -1.20508891
  N  1.47244988 -0.46950680 -0.56081188
  C  1.45728572 -1.76379318 -0.30008371
  H  2.30415620 -2.21966350  0.17068887
  H  0.65165134 -2.36831911 -0.66553641
  C  2.45589048  0.37172836 -0.28973934
  H  3.33349678  0.01522704  0.21147154
  H  2.29162802  1.42799481 -0.36128994
  H -0.00645193 -0.57596558 -2.03627704
  H  0.50285106  1.07236638 -1.59611319
  H -2.97179278 -0.72076837  1.91850949
  H -2.50921064  0.94443229  2.32396654
  H -3.69001347  0.64215572  1.03983454
