14
opt_min/./Product_4031_0_opt.xyz
  C  1.46321200 -0.81139300 -0.03279200
  C  0.75725424  0.51799957 -0.12096574
  C -0.61983481  0.55954378  0.08561593
  C -1.47865955 -0.66315991  0.07090630
  H -2.47025998 -0.45334436 -0.33678863
  H -1.59664414 -1.03280780  1.09155138
  H -1.02196244 -1.45740983 -0.51341779
  O -1.26355579  1.74410864  0.17064546
  H -2.21768093  1.62450034  0.10663134
  C  1.40014782  1.58337012 -0.70889938
  H  0.95859019  2.56359798 -0.51012454
  H  2.53053143 -0.64261040 -0.13995342
  H  1.14579338 -1.48796561 -0.82727385
  H  1.27057739 -1.29078901  0.92478461
