11
opt_min/./Product_5391_0_opt.xyz
  N -1.64740600  0.09465000 -0.34347300
  C -0.36677517 -0.43958221  0.03859925
  H -0.31934685 -1.52162514 -0.17139050
  C  0.86114179  0.16345475 -0.58828062
  H  0.98491174  0.29842647 -1.64334899
  C  1.69647075  0.40620427  0.42694703
  H  2.69492468  0.80367460  0.45615396
  N  1.08676396  0.07272156  1.64193762
  N -0.05450057 -0.37547627  1.46937675
  H -1.91831190  0.81366634  0.32033418
  H -2.36256007 -0.62326297 -0.33259684
