13
opt_min/./Product_8955_0_opt.xyz
  O  2.52329300 -0.76493700 -0.66782200
  C  1.42285531 -0.43463726 -0.34588191
  C  0.83470228  0.85663155  0.20085310
  H  1.13704452  1.05267414  1.22956436
  H  1.01532897  1.74960319 -0.39524440
  C -0.54455525  0.22579539  0.03890138
  C -1.82165724  0.83334665 -0.31888686
  H -2.46813353  0.06322860 -0.77417207
  O -1.50459572  0.23323142  1.14265392
  H -1.37851790  1.02876118  1.68395961
  C  0.07494294 -1.12760623 -0.34693106
  H -0.25090502 -1.55090162 -1.29498054
  H -0.00538818 -1.89247701  0.42508731
