13
opt_min/./Product_2753_0_opt.xyz
  C  1.60979800  0.59660300  0.35063200
  H  2.38105828  0.64120638  1.10727356
  H  1.67838619  1.38637022 -0.39850364
  N  1.40548391 -0.73311130 -0.24868490
  H  1.92986641 -1.51241917  0.13215817
  H  1.32860600 -0.76823247 -1.26709778
  C  0.34322020 -0.12348882  0.64022459
  C -0.80022347  0.33904142 -0.21423684
  H -0.58231144  0.72164281 -1.22930468
  C -2.12265986 -0.27476429 -0.02476278
  H -2.24005348 -1.01887754  0.75305344
  H -2.80356014 -0.34636363 -0.86729042
  O -1.84467791  1.01787992  0.41959654
