16
opt_min/./Product_772_0_opt.xyz
  C  2.56606700  0.40579200 -0.69529400
  C  1.59166419 -0.62864409 -0.12852503
  C  0.21123726 -0.41091228 -0.65216030
  C -0.85357654 -0.13245657  0.09848139
  C -2.17854495  0.08635585 -0.43218106
  C -3.24163006  0.36063862  0.31756257
  H -4.21553029  0.51907533 -0.11290711
  H -3.17371143  0.43619808  1.39019446
  H -2.27901088  0.01702230 -1.50806060
  H -0.75137394 -0.06388276  1.17460326
  H  0.10587443 -0.47478988 -1.72838469
  H  1.58782631 -0.56956069  0.96180457
  H  1.93280189 -1.62769128 -0.41445918
  H  2.59892596  0.34331960 -1.78079530
  H  3.56810885  0.23618136 -0.30913802
  H  2.25349371  1.40975952 -0.41792057
