15
opt_min/./Product_8887_0_opt.xyz
  C -1.81835000 -0.82415400  0.12572600
  N -0.65789146 -0.05653689 -0.24678904
  C -0.51283491  1.34001977  0.15306676
  H -1.09983170  1.56684152  1.04337468
  H -0.88758582  1.98282557 -0.65257978
  C  0.93922971  1.64206859  0.31896690
  C  1.55191919  0.38108864  0.06783373
  N  2.90690157  0.16905006  0.09127702
  H  3.51425909  0.95317772  0.21908472
  H  3.29207905 -0.74916996 -0.01266948
  C  0.59411720 -0.57583414 -0.21893010
  H  0.75253790 -1.61222065 -0.47642681
  H -1.56415686 -1.88249166  0.17404908
  H -2.61222626 -0.68717971 -0.61504527
  H -2.20167699 -0.51257709  1.10217040
