14
opt_min/./Product_2967_0_opt.xyz
  C -0.83292113  1.17887894 -0.49465203
  N -23.44581873 -4.72123809 -9.55001057
  C  27.41706223  4.11004162 -5.63054889
  H -12.58667128  2.94378493  1.53658813
  H -0.50380210  1.21799373 -7.12824306
  H  15.35987172 -6.48497016 -5.61879083
  N -11.73517070  4.27776179 -3.82694113
  C  9.66982185  11.52534149 -21.70067377
  C -6.71274764  3.86269421 -35.70415943
  H  29.29072875 -15.43817881 -23.07450760
  H  18.07430494 -11.64501408 -32.10837369
  H -18.35352033  33.11239611 -0.74738901
  H -5.72418650 -4.36808066 -1.96961020
  H  3.97887467 -4.39125650 -26.96925508
