15
opt_min/./Product_10858_0_opt.xyz
  C -0.43112100  1.02918400 -0.90977200
  C -0.24349446  0.02121237  0.21709714
  O  0.87008846  0.22625144  1.04512101
  C  2.09124149 -0.21670130  0.49181923
  H  2.84837537 -0.03004748  1.24909712
  H  2.06173034 -1.28555570  0.26152002
  H  2.34983969  0.33922991 -0.41554836
  C -1.47881012 -0.52502353  0.95136859
  H -1.42359786 -0.70350165  2.01257713
  H -2.44952579 -0.17107402  0.63429004
  C -0.71346724 -1.37301182  0.03820864
  O -0.55634702 -2.44215538 -0.46616441
  H -0.24640038  0.57535312 -1.88064120
  H -1.43958699  1.42983707 -0.89912400
  H  0.26242441  1.85420779 -0.77638380
