14
opt_min/./Product_4660_0_opt.xyz
  C  2.54157500  0.14288000  0.24569100
  O  1.53945519 -0.55866997 -0.20056898
  C  0.29450135 -0.26431484 -0.15507096
  C -0.90695829 -1.04528142 -0.58865730
  H -1.01435410 -1.15297574 -1.67076853
  H -1.02851647 -2.03036415 -0.13556121
  C -1.76918897  0.07980432  0.03051197
  H -2.42354734  0.58580623 -0.67348874
  H -2.35033417 -0.24344211  0.88968547
  C -0.49885759  0.87410468  0.41314365
  H -0.37712142  1.82301546 -0.11640051
  H -0.37159292  1.06130932  1.48171473
  H  2.39903514  1.10822606  0.69747541
  H  3.51489158 -0.26629609  0.07417701
