16
opt_min/./Product_7621_0_opt.xyz
  C -2.29792500  0.15456500 -0.36920200
  N -1.00417358 -0.12265060 -0.98111860
  H -0.96296951 -1.06061364 -1.36834459
  C -0.13323384  0.88616136 -1.66931907
  H -0.62510816  1.86681131 -1.59941002
  C  0.23131987  0.35370007 -0.33976394
  C  1.34310455 -0.68886067 -0.22348802
  C  2.46253719 -0.11570232  0.60000191
  O  3.38462822  0.51565242  0.17512687
  H  2.35723689 -0.29166947  1.69387789
  H  1.71259001 -0.92011199 -1.22367564
  H  0.96134316 -1.59386832  0.25840247
  H  0.03435846  0.85436085  0.61116926
  H -2.53165808 -0.56451960  0.41821395
  H -3.07835653  0.11606474 -1.12857840
  H -2.27942957  1.15529629  0.05748454
