14
opt_min/./Product_7284_0_opt.xyz
  O  0.08924500  1.81383700 -0.07405600
  C -0.19260394  0.50959139  0.36607966
  H -0.11768641  0.43996115  1.46083029
  C -1.55042996 -0.02048516 -0.14833550
  H -2.38558938  0.14802820  0.52772551
  H -1.75091277  0.45285903 -1.11368110
  N -1.35064121 -1.44266546 -0.36288612
  H -1.45350219 -1.95231813  0.52088051
  O  0.02254838 -1.57400079 -0.73632435
  C  0.74019697 -0.50970011 -0.26971711
  C  2.05385366 -0.41479448 -0.38426319
  H  2.55768655  0.46748777 -0.03336045
  H  2.63866473 -1.17293715 -0.86746821
  H -0.00263231  2.43805589  0.64987822
