13
opt_min/./Product_7974_0_opt.xyz
  N  2.02963500 -0.46117800  0.01579700
  C  0.85446712  0.09832991 -0.25512017
  O  0.70162599  1.42294203 -0.48243101
  C -0.70715915  1.34735713 -0.16836708
  H -0.95689022  1.93086269  0.71311531
  H -1.31199294  1.63874063 -1.02883308
  C -0.52992998 -0.16160881  0.11066180
  C -1.41621106 -1.35199587 -0.04782962
  H -2.44653440 -1.07880874 -0.28905224
  H -1.07112449 -2.24524853 -0.57733807
  N -0.86024554 -0.98074055  1.18807188
  H  2.86610670  0.09884810  0.00110563
  H  2.05253591 -1.40221975  0.36521603
