14
opt_min/./Product_8570_0_opt.xyz
  C -2.40348000  0.35626300 -0.05558100
  C -0.92234962  0.21419887 -0.05931445
  C  0.05562685  1.07870524 -0.43180015
  C  1.31006263  0.35753561 -0.18674122
  C  2.56903359  0.80928470 -0.39703555
  H  2.73729183  1.80028461 -0.77862508
  H  3.43107473  0.19623615 -0.18884860
  C  0.96480355 -0.94275523  0.32419365
  H  1.61224252 -1.74648699  0.62015017
  N -0.35798052 -0.99503947  0.39379952
  H -0.88482310 -1.79655997  0.71559435
  H -2.88184257 -0.47312054 -0.57897436
  H -2.79591519  0.38494746  0.96271075
  H -2.66710368  1.28431256 -0.55297990
