14
opt_min/./Product_645_0_opt.xyz
  O  1.59983800 -0.01928100  1.74013500
  C  1.22033682  0.55638027  0.51425334
  C  0.27195750 -0.30323425 -0.29553428
  H  0.76058859 -1.13881481 -0.78583218
  C -1.12729790 -0.68414114  0.28011954
  C -1.52153217 -0.25136265  1.56555828
  H -1.22857007  0.79393850  1.74314171
  H -1.43790705 -1.68874960  0.00744227
  C -0.92685775  0.26281893 -0.91994937
  H -1.15254246  1.30430497 -0.74563107
  H -1.26320548 -0.11053124 -1.87593306
  H  0.76501799  1.51614080  0.76565006
  H  2.10927161  0.75598931 -0.10556533
  H  1.90270543 -0.91999402  1.58347581
