14
opt_min/./Product_6027_0_opt.xyz
  C  0.37616300 -1.24154800  0.41002600
  H  0.01901300 -1.11953193  1.44527130
  H  0.91578020 -2.18810493  0.32767126
  C  1.25671418 -0.05637542  0.01601032
  H  1.56909046 -0.19447188 -1.02196492
  H  2.14629544 -0.00581677  0.64320274
  C  0.42067894  1.22438299  0.12648582
  H  0.30070302  1.51277975  1.18339446
  H  0.91101188  2.07715650 -0.34894933
  C -0.98540161  1.14709252 -0.30583480
  C -1.53157104 -0.19088875 -0.47065681
  H -2.17705221 -0.26196804 -1.35078449
  H -2.21883627 -0.18977660  0.40892831
  O -0.72156035 -1.35517740 -0.46733808
