12
opt_min/./Product_9790_0_opt.xyz
  N  2.50672500 -0.40989000 -0.20820100
  C  1.33160247  0.00314230 -0.08052349
  C  0.10911015 -0.87848551 -0.10329023
  H  0.02076341 -1.40492683 -1.05785788
  H  0.16615961 -1.62826138  0.68993245
  C -0.97981480  0.13399439  0.10139362
  O -2.30265842 -0.16041463  0.15069367
  H -2.41726638 -1.11648442  0.09760522
  C -0.42863269  1.34138676  0.20308749
  H -0.85229211  2.31435804  0.35468078
  O  0.95019863  1.29957922  0.09875216
  H  3.21664796  0.31568857 -0.16882107
