17
opt_min/./Product_10929_0_opt.xyz
  O  3.25220400 -0.44375500 -0.37773400
  C  2.69380820  0.44245582  0.20304368
  C  1.22645692  0.50416896  0.51089590
  C  0.47199051 -0.73077641  0.02388023
  C -0.99617893 -0.74483861  0.43640851
  C -1.83361896  0.33258623 -0.26051154
  O -3.21341873  0.11561608 -0.02235475
  H -3.55674997  0.79424658  0.56270793
  H -1.67989486  0.27074005 -1.34464428
  H -1.52974766  1.32878176  0.06932736
  H -1.43098312 -1.70808478  0.17249558
  H -1.08681517 -0.62778608  1.51684671
  H  0.55400559 -0.78821508 -1.06192919
  H  0.95970143 -1.61683154  0.43127627
  H  0.83357563  1.41336602  0.05343367
  H  1.11974985  0.62186660  1.59283879
  H  3.26046254  1.32270083  0.57684047
