12
opt_min/./Product_9982_1_opt.xyz
  O  1.70790400  1.03009100 -0.11850300
  C  1.02645331 -0.20501136 -0.07874442
  C -0.47991699 -0.03214568 -0.05882988
  C -1.07833546  1.15336474 -0.00655143
  H -0.50508407  2.05722051 -0.00906892
  H -2.15039424  1.23806326  0.00293390
  N -1.15366646 -1.23227431 -0.09936836
  H -0.66035496 -2.10068168 -0.04284603
  H -2.15107006 -1.24176731 -0.01390564
  H  1.29612597 -0.77643378 -0.98029368
  H  1.31932528 -0.80356865  0.79159831
  H  2.30564608  1.09322614  0.62964204
