14
opt_min/./Product_10987_0_opt.xyz
  O  1.24170200  0.55594900  0.94029400
  C  2.42228630  0.35640780  0.52838501
  H  2.45387326 -0.19470064 -0.44601930
  C  0.08414254  0.13102711  0.23710483
  C -1.04150339 -0.77448027  0.73742597
  H -0.82281340 -1.82950282  0.88392957
  H -1.69652804 -0.38661621  1.51320571
  N -1.46476580 -0.41106730 -0.66125447
  C -0.03249100 -0.65364121 -1.06955081
  H  0.25398010 -1.70400127 -1.06118271
  H  0.25535716 -0.16726241 -1.99888399
  C -1.04273803  0.99449151 -0.32847372
  H -0.81853764  1.61367216 -1.19458431
  H -1.69860552  1.50723143  0.37079135
