17
opt_min/./Product_11430_0_opt.xyz
  C  1.94823000 -0.31744600  0.33405100
  C  2.78927387  0.58576174 -0.13343367
  H  2.57133101  1.63979017 -0.11051451
  H  3.73766487  0.31455365 -0.56320532
  C  0.61646566  0.00242065  0.93497074
  C -0.52290183 -0.65333769  0.15848941
  H -0.32610932 -1.72536692  0.04381787
  C -1.94647517 -0.30786701  0.63021524
  H -1.99330946  0.38411872  1.46415538
  H -2.59250355 -1.15879471  0.82155381
  C -2.10116520  0.32485666 -0.75658474
  H -2.24349227  1.40881491 -0.77305473
  H -2.83869085 -0.14746268 -1.40810402
  O -0.76871262 -0.04349850 -1.11756802
  H  0.46723234  1.08279723  0.94326226
  H  0.57519440 -0.36741341  1.96315730
  H  2.20557277 -1.36621306  0.28121771
