9
opt_min/./Product_9228_0_opt.xyz
  N -0.56063904 -1.45723689  0.14698581
  C  0.56472513 -0.73452786  0.10666746
  O  0.25597808  0.59756963 -0.00955321
  C  1.28482877  1.46054517 -0.12487448
  O  2.43592626  1.19372612 -0.21471923
  H  0.87856844  2.48479050 -0.13229237
  C -1.80372269 -0.96853734  0.04971085
  N -2.84262840 -0.50559653 -0.06493394
  H -0.44828387 -2.46316800  0.20668272
