13
opt_min/./Product_8530_0_opt.xyz
  O -2.00149400 -0.01836200  1.10377400
  C -1.01716194  0.00428728  0.41732572
  C -0.53670902 -1.22974966 -0.34447550
  H -0.74701927 -1.06152246 -1.41117724
  H -1.08761397 -2.11454378 -0.01616427
  O  0.84252181 -1.52330563 -0.18801011
  C  1.66385347 -0.45976388 -0.00195910
  H  2.69510691 -0.78578864  0.00634388
  C  1.29715550  0.80151860  0.15684269
  H  2.03754639  1.56966567  0.29959853
  C -0.15291800  1.21038011  0.18032583
  H -0.33979305  1.95963577  0.95059204
  H -0.41870759  1.65371463 -0.78680597
