16
opt_min/./Product_5155_0_opt.xyz
  C  2.49573200  0.48261400 -0.51438200
  O  1.17338056  0.83709807 -0.82619363
  C  0.15549191  0.12872858 -0.24527255
  C  0.30253013 -0.88861964  0.59125667
  H  1.26392453 -1.26076493  0.89463228
  H -0.54967045 -1.39032769  1.00488624
  C -1.15888112  0.69789574 -0.71677046
  C -2.39650067 -0.00629991 -0.18506321
  H -2.39932304 -1.05278953 -0.48279877
  H -2.43152599  0.04669239  0.90099294
  H -3.28989328  0.46885213 -0.58300021
  H -1.17987027  1.75426734 -0.43175092
  H -1.15214419  0.67007776 -1.81059251
  H  3.13182245  1.18815268 -1.05023835
  H  2.68626474  0.56651133  0.56116592
  H  2.72719519 -0.53631353 -0.84452634
