8
opt_min/./Product_2280_1_opt.xyz
  O  1.45037500  1.59065700  0.13167800
  C  0.64925492  0.71408760  0.06022877
  C  0.41305548 -0.72882419  0.01510039
  H  0.50748705 -1.31175599  0.91789260
  H  0.67177472 -1.27873050 -0.87664811
  C -0.74000056  0.29312875 -0.06747868
  H -1.38285921  0.38564860  0.79588211
  H -1.26378222  0.42696494 -1.00072860
