13
opt_min/./Product_4678_0_opt.xyz
  C -0.98664500 -1.03954900 -0.20287000
  C  0.00212003  0.11125790 -0.15951271
  C  1.40352385 -0.24976333  0.28560738
  H  2.06213813  0.60758028  0.18520961
  H  1.79643917 -1.05039737 -0.33325203
  H  1.40069629 -0.57410110  1.32259143
  O -0.09223259  1.06352168 -1.18585338
  C -0.49015575  1.46952450  0.09633741
  H  0.15307015  2.20166134  0.56903772
  H -1.55378508  1.63032499  0.22100947
  H -1.53894244 -1.10186076  0.72925771
  H -0.46964163 -1.98005317 -0.36133621
  H -1.68799315 -0.89416623 -1.01908047
