12
opt_min/./Product_6780_0_opt.xyz
  O -0.85831900 -2.00502900  0.23928900
  C -1.23777973 -0.90453101 -0.02060157
  C -0.34084077  0.26409641 -0.42229055
  N  1.01312950 -0.11480168 -0.68411083
  C  1.71495786 -0.59286352  0.24044699
  H  1.38732839 -0.76037259  1.26878505
  H  2.73042055 -0.86700577 -0.00155160
  C -0.49814093  1.34905251  0.64133909
  O  0.38372642  1.78112608  1.31765070
  H -1.53807689  1.73051092  0.71361859
  H -0.76248141  0.67256644 -1.35211910
  H -2.31308602 -0.63022928  0.00685823
