14
opt_min/./Product_9503_0_opt.xyz
  C  2.26357700 -0.36930500  0.07304600
  N  1.17525545  0.56586362  0.18356848
  C -0.11394278  0.22755517  0.04760517
  N -0.52008026 -0.99029899 -0.23022084
  N -1.96250204 -0.86366768 -0.28827387
  H -2.29503182 -1.15137036 -1.21240238
  H -2.38700629 -1.49810412  0.39315154
  C -2.40777275  0.55698954 -0.01460904
  C -1.20825912  1.16398378  0.18033415
  H -1.07422426  2.20607615  0.40517470
  H  1.39275416  1.52070827  0.41602560
  H  2.99697042 -0.02669957 -0.65974505
  H  2.76529464 -0.50467214  1.03533321
  H  1.84627616 -1.32003016 -0.24923115
