15
opt_min/./Product_8198_0_opt.xyz
  O -1.09035962  0.10032070  0.24674486
  C -0.07096222  1.07879231  0.27638272
  H -0.58754641  2.04091676  0.20797789
  H  0.47760059  1.02323616  1.22636840
  C  0.91880114  0.97749143 -0.88185898
  H  1.71960068  1.70072194 -0.73182946
  H  0.40714760  1.19794911 -1.82237130
  C  1.49996119 -0.42842481 -0.95741612
  O  2.22404110 -0.71295533  0.23546458
  H  2.29409305 -1.67201951  0.31969485
  H  2.17722089 -0.51790886 -1.82300502
  C  0.44973366 -1.50398205 -0.98604946
  C -0.77003448 -1.16881398 -0.28238843
  H -1.59056786 -1.47229106 -0.94999844
  H -0.78374123 -1.91160098  0.53887152
