16
opt_min/./Product_4906_0_opt.xyz
  C -2.39521700  0.28982300 -0.30884700
  C -1.40698096 -0.18282274 -1.36774382
  C -0.00758979 -0.33340015 -0.79251062
  O  0.50369984  0.99639121 -0.46983605
  C  1.59937625  1.25165414  0.11427541
  C  2.49248432  0.11236516  0.51005372
  H  2.92376339 -0.30195102 -0.40541367
  H  3.30033999  0.46696071  1.14224239
  H  1.96310547 -0.70025146  1.01655929
  H -0.02044433 -0.94779905  0.11249375
  H  0.67742766 -0.78062911 -1.52151892
  H -1.72578639 -1.14308959 -1.77876495
  H -1.37066649  0.54130141 -2.18429206
  H -3.37547999  0.45331630 -0.74881480
  H -2.05327797  1.22355147  0.13066453
  H -2.49016560 -0.45409979  0.48007461
