16
opt_min/./Product_10835_0_opt.xyz
  C -1.53811400  1.02407100 -0.17248600
  C -0.46721423  0.07557748  0.35088956
  H -0.67884147 -0.16568933  1.39865867
  C -0.26813612 -1.21149390 -0.45459366
  H -0.94764599 -2.01372772 -0.17958486
  H -0.38102691 -0.99759947 -1.51955447
  C  1.19097211 -1.54217424 -0.13765696
  H  1.27735556 -2.10513520  0.80095106
  H  1.70302731 -2.08963399 -0.93204476
  O  1.83874546 -0.28827475  0.01292722
  C  0.92360412  0.67154814  0.30686461
  N  1.16794428  1.87992038  0.51487395
  H  2.15126750  2.12835205  0.46113096
  H -1.39338357  2.00489046  0.27355357
  H -1.46252286  1.12740606 -1.25307824
  H -2.53065655  0.65683942  0.07496078
