12
opt_min/./Product_1520_0_opt.xyz
  C  1.44861500 -0.08667500  0.07621800
  C  0.00431056 -0.13914218 -0.28098535
  C -1.01604988  0.92872713 -0.18958993
  H -0.76183953  1.78899063  0.41238531
  H -1.66604639  1.13511454 -1.02899541
  C -1.21907626 -0.37417855  0.58361056
  H -1.33822818 -0.41631461  1.65022815
  C -1.50837338 -1.47073572 -0.40961324
  O -0.49840401 -1.13196875 -1.20229113
  H  1.84091405 -1.09775731  0.18140610
  H  1.56314668  0.43834337  1.02249506
  H  2.02019303  0.43099504 -0.69385985
