19
opt_min/./Product_7844_0_opt.xyz
  C  2.74527300 -0.14236900 -0.44127700
  O  1.45016801 -0.55810548 -0.10534145
  C  0.82797876  0.26830181  0.84955145
  C -0.57374836 -0.27825731  1.12853463
  C -1.44565477 -0.29025155 -0.10015830
  C -1.78084899 -1.41923224 -0.69962481
  H -2.40581941 -1.43303233 -1.57667717
  H -1.42940197 -2.37445176 -0.35119296
  C -1.93664233  1.04638941 -0.56642949
  H -1.11276072  1.74538012 -0.69303165
  H -2.61785579  1.47410750  0.16912181
  H -2.45873208  0.95355295 -1.51490430
  H -0.46846105 -1.29618159  1.50319319
  H -1.03467474  0.34144584  1.90048874
  H  1.41544795  0.28111083  1.78086676
  H  0.77415963  1.30363666  0.47509031
  H  3.10975828 -0.85479213 -1.17862447
  H  3.41096991 -0.14696023  0.43146945
  H  2.74302790  0.86630103 -0.87486078
