19
opt_min/./Product_6517_0_opt.xyz
  C -0.77648300  1.31556100 -0.30512700
  C -0.40856283 -0.12107857  0.08152551
  C  1.02353111 -0.20377600  0.61188405
  C  2.11447355  0.36705668 -0.25720229
  H  1.90852333  0.22729815 -1.31414061
  H  2.18719352  1.43407238 -0.04335507
  H  3.06458243 -0.09284110  0.00537728
  O  1.27365387 -0.70377892  1.68076931
  C -1.36742103 -0.61363254  1.17143696
  H -1.24241858 -0.02862407  2.08015580
  H -2.39903400 -0.52644537  0.83381656
  H -1.16145712 -1.65523623  1.41129227
  C -0.52418148 -1.03643517 -1.14693260
  H -1.57507476 -1.23361545 -1.35434311
  H -0.02598243 -1.98722680 -0.96731606
  H -0.08740835 -0.56806783 -2.02707837
  H -0.78835444  1.95178462  0.57778375
  H -1.77089189  1.32647992 -0.75045869
  H -0.07890646  1.73042367 -1.02943841
