14
opt_min/./Product_8925_0_opt.xyz
  C -2.30985600 -0.31877700  0.12275300
  O -1.03164774  0.04714169 -0.33047720
  C -0.10314386  0.22173530  0.71371009
  C  1.21759672  0.64480365  0.10983424
  H  1.13905366  1.44224533 -0.61862421
  O  2.30845203  0.72209675  0.97598019
  C  2.34095436 -0.28767136  0.00965226
  H  2.22873248 -1.29789089  0.38202396
  H  3.07245583 -0.15954651 -0.77872507
  H -0.45068852  1.00038941  1.41218182
  H  0.02303158 -0.71201386  1.28340422
  H -2.93084604 -0.42377884 -0.76098832
  H -2.73845476  0.44478252  0.78078527
  H -2.28256563 -1.27095298  0.66592135
