16
opt_min/./Product_8340_0_opt.xyz
  N  2.60994600 -0.11476700  0.22170000
  C  1.21237727 -0.05809456  0.03343153
  C  0.58191740  1.01864896 -0.42010537
  H  1.15761980  1.88763030 -0.68182315
  C -0.91251771  1.05865563 -0.54876021
  H -1.28432274  2.05975064 -0.32478576
  H -1.21257337  0.82152406 -1.57586757
  C -1.50776267  0.03115238  0.40956474
  H -2.57912658 -0.09234735  0.25228655
  H -1.33995047  0.35177483  1.43973740
  C -0.80466252 -1.30203925  0.18856264
  H -0.97587833 -1.64701969 -0.84243211
  H -1.17484163 -2.06880322  0.87530727
  O  0.58941905 -1.22932385  0.41487488
  H  3.08569061 -0.46140382 -0.60552875
  H  2.81443229 -0.74995251  0.98788234
