17
opt_min/./Product_6450_0_opt.xyz
  C  2.95462000  0.46175600 -0.18540300
  O  1.75880822  0.11430664 -0.83154009
  C  0.72340996 -0.20416016  0.05318770
  C -0.53744685 -0.58575447 -0.70842758
  C -1.73065973 -0.83686988  0.19594579
  C -2.56966369  0.45338680  0.29106429
  H -3.55058778  0.31263744 -0.15192847
  H -2.70262469  0.75499240  1.32604541
  H -2.08295606  1.26748876 -0.24063543
  H -1.40130486 -1.15097462  1.18519923
  H -2.32626333 -1.63651312 -0.24240872
  O -0.60183781 -0.63506126 -1.90407461
  H  0.48631162  0.64775737  0.71365873
  H  1.00637240 -1.05059740  0.70485865
  H  3.33084754 -0.36433187  0.43306406
  H  2.82407523  1.34548610  0.45288509
  H  3.67492457  0.68420946 -0.96851838
