15
opt_min/./Product_1352_0_opt.xyz
  C -0.81356200 -1.22372700  0.13882900
  C -0.27308462  0.20653560  0.21169318
  C -1.35030062  1.24684676 -0.10087879
  H -0.89786593  2.14221296 -0.52339701
  H -2.07559183  0.85817014 -0.81288076
  H -1.88133671  1.53309113  0.80324748
  N  0.85393514  0.37841725 -0.70038039
  C  2.10663867  0.00531093 -0.52700481
  O  2.31400232 -0.42601528  0.75713270
  H  3.25532258 -0.59911513  0.86598404
  H  0.60643726  0.57867124 -1.65964575
  H  0.11672706  0.38117991  1.22049980
  H  0.01028652 -1.92921366  0.05833587
  H -1.46295024 -1.34998921 -0.72582657
  H -1.37921034 -1.45830776  1.03669779
