14
opt_min/./Product_11216_0_opt.xyz
  N -2.09332402  2.51400297 -0.56751204
  C -1.10531802  2.08034411 -0.19125083
  C  0.12344680  1.51679458  0.29998076
  C -0.15255447  0.36875275  1.29669677
  C -0.85174639 -0.78471254  0.67062057
  C -0.20276209 -1.70545714 -0.12781754
  C  1.06275527 -1.51756340 -0.58220253
  H  1.86646206 -1.25967160  0.10310386
  H -0.84061109 -2.39207860 -0.67404607
  H -1.93154894 -0.74141026  0.62563544
  H  0.81287358  0.04897265  1.70421889
  H -0.76482008  0.75457370  2.11639438
  H  0.71288629  1.13980173 -0.54100830
  H  0.69414957  2.30979408  0.79341545
