9
opt_min/./Product_5622_0_opt.xyz
  C -1.29363300  0.15110000 -0.31712800
  O -0.29463328 -0.62520175  0.32349536
  C  0.94484626 -0.42396800 -0.09646827
  N  1.24436087  0.42267793 -0.97693325
  H  2.23130328  0.49158988 -1.19229470
  H  1.63996729 -1.07187398  0.45713525
  H -2.23709277 -0.12225703  0.15089705
  H -1.31992834 -0.06179993 -1.38654747
  H -1.09202138  1.21511106 -0.18108732
