15
opt_min/./Product_8175_0_opt.xyz
  C  1.54050400  0.44574400 -0.30217400
  H  1.35837523  0.81204392 -1.31402251
  H  2.44198341  0.91028329  0.11436837
  O  1.63979278 -0.97905079 -0.24185126
  C  0.50389454 -1.07520060  0.61668407
  H  0.68584463 -1.71945852  1.47698359
  C -0.82650389 -1.21598189 -0.13853422
  H -1.56704971 -1.83445267  0.36416686
  H -0.69249243 -1.54575333 -1.16670988
  C -1.06274135  0.30132606 -0.00140586
  C -1.02202171  1.13486091 -1.18694709
  H -1.18396669  2.18873448 -0.89286602
  H -1.82266656  0.54138176  0.75080249
  C  0.34918186  0.44586704  0.66238849
  H  0.41080315  1.07739368  1.54463291
