15
opt_min/./Product_11876_0_opt.xyz
  C  1.00931300  0.23764200 -0.93944200
  H  0.98185002  1.31580784 -1.09204075
  H  1.60867392 -0.23186753 -1.71400854
  C  1.29164514 -0.19832011  0.49934029
  H  1.50378023  0.61192321  1.20556153
  H  2.06261588 -0.96501999  0.60209707
  N -0.04661078 -0.79248831  0.63624297
  C -0.39863924 -0.36469549 -0.73931305
  H -0.68884392 -1.18056097 -1.40093765
  C -1.47385276  0.65153776 -0.49605595
  H -1.93960450  1.23500685 -1.27287379
  N -1.77975963  0.79938349  0.71624184
  C -0.99530229 -0.12204775  1.51327027
  H -0.50158692  0.42401958  2.32178930
  H -1.68254226 -0.85751314  1.94997236
