11
opt_min/./Product_5694_0_opt.xyz
  C  2.25134789  0.12267813  0.16088514
  N  1.12196147 -0.50135208 -0.46336414
  C -0.04930937 -0.37888915 -0.14559516
  C -1.31322292 -0.30952034  0.04542095
  C -2.65668021  0.16146795 -0.21419402
  H -3.01868521  1.05554626  0.28247739
  H -3.13070575 -0.06893332 -1.16296096
  O -2.38767658 -0.94675453  0.62176323
  H  2.50699516  1.01970412 -0.40678023
  H  3.08716091 -0.57320409  0.09366930
  H  2.07940645  0.40287119  1.20428647
