15
opt_min/./Product_11387_0_opt.xyz
  C -1.56492800  0.48606000  0.63617800
  C -0.11645429  0.57181615  0.15989037
  H  0.25984707  1.59062370  0.27895061
  C  0.17957973 -0.02313667 -1.23164000
  H -0.68076886 -0.47433339 -1.72213863
  H  0.68079646  0.64909312 -1.92747373
  C  1.12363609 -1.05776463 -0.60358266
  H  1.08990713 -2.09888700 -0.91577862
  O  2.45450957 -0.53820167 -0.49888414
  C  2.29812207  0.00645841  0.69082820
  C  0.84536901 -0.46939460  0.78412276
  H  0.52844769 -1.01429536  1.66646209
  H -2.21080382  0.09713663 -0.14798287
  H -1.65709913 -0.17099559  1.49886972
  H -1.93730116  1.46500324  0.92714914
