10
opt_min/./Product_5044_0_opt.xyz
  C  1.98394000 -0.03343200  0.12677300
  C  0.65832326 -0.03016115  0.04525368
  N -0.21009491 -1.06370861  0.34193150
  C -1.38848935 -0.61389183  0.12045308
  H -2.30249862 -1.16504507  0.24621870
  N -1.40796986  0.68297383 -0.25759926
  H -2.08975236  1.28430228 -0.68588417
  O -0.07381542  1.09933851 -0.37010494
  H  2.48841310 -0.92063144  0.45555941
  H  2.55285503  0.83582581 -0.13567297
