9
opt_min/./Product_320_0_opt.xyz
  O  2.28190200  0.29690100 -0.55017700
  C  1.19919049 -0.31995220 -0.20244508
  N  0.59867092 -1.03444883  0.62661738
  C -0.18215337 -0.59612113 -0.61066044
  C -1.19062324  0.46763193 -0.44954371
  O -1.09755143  1.40408009  0.29652313
  H -2.07257747  0.32777172 -1.10555722
  H -0.38388347 -1.36151758 -1.35198425
  H  2.96691780  0.21194925  0.13363372
