12
opt_min/./Product_3898_0_opt.xyz
  C  0.39103400 -0.90092600 -0.22368200
  H  0.26672130 -1.65960902  0.54571079
  H  0.69905381 -1.36076410 -1.15828377
  C  1.17319430  0.33251097  0.23788674
  H  1.70366321  0.23683269  1.18885745
  H  1.84930281  0.73257758 -0.52490612
  N -0.08743635  1.06392160  0.38865815
  H -0.12935317  1.99786112 -0.00396962
  C -0.83752711  0.01500373 -0.28929680
  O -1.92723773 -0.45935484  0.43995210
  H -2.39303986  0.29024582  0.82880880
  H -1.16229339  0.27784482 -1.31495058
