9
opt_min/./Product_926_0_opt.xyz
  N  1.90551800  0.47577300  0.03714100
  C  0.74723974 -0.02372611  0.00242131
  N -0.41636545  0.74028246  0.04063981
  H -0.49646933  1.73570377  0.09771469
  N -1.45312053 -0.17568761 -0.01751396
  H -2.42969907  0.06654827 -0.00849263
  N -0.95469101 -1.37836111 -0.08443841
  N  0.29919473 -1.35013303 -0.07645140
  H  2.63726696 -0.22417212  0.00043098
