15
opt_min/./Product_2542_0_opt.xyz
  C -1.73760000  0.86921500  0.09232700
  C -1.25119751 -0.38401327 -0.62795696
  N -0.47799213 -1.24647832  0.25466440
  C  0.78666781 -1.12071486  0.61342754
  O  1.34763249 -0.03072081  0.01805751
  C  2.69790760  0.18375480  0.36025228
  H  2.77984638  0.60164167  1.36805389
  H  3.09656917  0.89935293 -0.36005313
  H  3.26993848 -0.74566781  0.31333639
  H -0.96789383 -2.02649190  0.67101407
  H -0.61652980 -0.10076524 -1.47260738
  H -2.10504225 -0.95281806 -1.00628797
  H -0.88893227  1.42730120  0.48069912
  H -2.28589082  1.50611838 -0.59745124
  H -2.38783843  0.60482073  0.92404290
