17
opt_min/./Product_6447_0_opt.xyz
  C -2.70404100  0.10438000  0.65857300
  O -1.36511912  0.50004624  0.52065097
  C -0.57691686 -0.48788665 -0.10373442
  C  0.85803510 -0.05722605 -0.21634874
  C  1.78752457 -1.00466642 -0.91637225
  H  2.27166752 -0.50841387 -1.75883206
  H  2.57279688 -1.33782249 -0.23675657
  H  1.24873293 -1.87702015 -1.28370569
  C  1.26704634  1.09949273  0.28971919
  O  2.57626818  1.50199715  0.20799503
  H  2.66650179  2.38713204  0.57284377
  H  0.57521359  1.76001817  0.79108528
  H -0.97259030 -0.70209760 -1.11204776
  H -0.62951612 -1.42528344  0.47747527
  H -2.79048804 -0.80388748  1.26816915
  H -3.23474919  0.92061965  1.15160054
  H -3.16388471 -0.08935626 -0.32122284
