13
opt_min/./Product_6416_0_opt.xyz
  O  1.52695800  0.54122100  0.41246600
  C  0.62434938 -0.40884331 -0.06053502
  C -0.65625855 -0.14505979 -0.11536474
  C -2.01762398 -0.56452477 -0.44027790
  H -2.48947887 -1.29110300  0.20755063
  H -2.29960311 -0.66911295 -1.47813676
  C -1.73867847  0.81597204  0.11518080
  H -2.03600260  1.03661837  1.13037098
  H -1.81955913  1.66294336 -0.55199814
  H  1.07395262 -1.34528963 -0.36303692
  C  2.81019939  0.21894304  0.44456889
  O  3.30459577 -0.81438668  0.10585795
  H  3.37212162  1.08439628  0.83928038
