17
opt_min/./Product_7543_0_opt.xyz
  O -1.69905300  0.58713000  0.84401900
  C -1.70327841 -0.80657092  0.56223204
  H -2.02239977 -1.33536459  1.46366456
  H -2.43278145 -0.99857035 -0.23473519
  C -0.29348302 -1.18272430  0.11809252
  H -0.29330978 -1.99695038 -0.60085376
  H  0.32582924 -1.45646288  0.97163542
  C  0.23418005  0.13430635 -0.46071206
  C  1.75682916  0.24844191 -0.42795005
  O  2.24512822  0.04863158  0.88012965
  H  3.01735200  0.59921110  1.03041032
  H  2.17740048 -0.51846850 -1.09841226
  H  2.04458987  1.23375068 -0.81114125
  H -0.09644731  0.24664660 -1.49776060
  C -0.46691716  1.15696995  0.44041929
  H  0.14675551  1.36162882  1.32462581
  H -0.67685819  2.09694017 -0.07753171
