11
opt_min/./Product_190_0_opt.xyz
  C  2.01809100 -0.31827600 -0.07313800
  C  0.68900155 -0.22085070 -0.03992641
  N -0.07594685  0.92399135  0.12432826
  H  0.29568953  1.84482593  0.24143003
  C -1.41029966  0.55930294  0.09601785
  H -2.20145611  1.26669173  0.20235495
  C -1.44722584 -0.76716609 -0.08024545
  H -2.25485021 -1.45990114 -0.16030048
  O -0.17340645 -1.27487311 -0.16730930
  H  2.63385723  0.55303963  0.03364445
  H  2.49312802 -1.26718710 -0.20686174
