12
opt_min/./Product_5830_0_opt.xyz
  N -1.27493600 -0.95741700 -0.31996300
  C -0.38368694  0.16356869 -0.47566965
  H -0.54510279  0.59376276 -1.46378256
  C -0.35207861  1.18288884  0.68242442
  H -0.51197634  2.22459010  0.40947761
  H -0.96316969  0.92964351  1.54761365
  O  1.03868846  0.91652614  0.91527232
  C  1.08182331 -0.01550914 -0.09885699
  N  1.98576185 -0.76472157 -0.50065717
  H  2.87377840 -0.68397759 -0.01932842
  H -1.15585496 -1.37422098  0.59588088
  H -1.06057499 -1.66130692 -1.01310417
