15
opt_min/./Product_6306_0_opt.xyz
  C -1.51588100 -0.76188200 -0.17665300
  N -0.64373591  0.37245690 -0.38688574
  C  0.69470329  0.16715392 -0.03541083
  O  1.13791342 -1.02196770  0.16221553
  C  2.40281455 -1.39522458  0.19274731
  H  3.17020722 -0.63685929  0.24907296
  H  2.57814546 -2.35247490  0.63931801
  H  1.37089051  1.00354901 -0.15581014
  C -1.21266222  1.62822612  0.06204044
  H -2.06446606  1.87449403 -0.57188371
  H -0.47102376  2.41607314 -0.02915508
  H -1.55504642  1.58216446  1.10209176
  H -2.47275653 -0.55797051 -0.65258671
  H -1.07268153 -1.64033053 -0.63956073
  H -1.68768863 -0.97482733  0.88651791
