14
opt_min/./Product_5726_0_opt.xyz
  C  2.26413500  0.48162900  0.23028900
  C  0.77458836  0.42356024  0.16488817
  C  0.06346721 -0.65957402  0.42954916
  C -1.42651366 -0.82910356  0.40798044
  C -2.28427446  0.35669181  0.07261391
  O -3.48368045  0.34424591  0.09025041
  H -1.73919509  1.27859430 -0.20575229
  H -1.76019133 -1.20267138  1.38266961
  H -1.68917071 -1.62064006 -0.30330290
  H  0.58596265 -1.56923339  0.69940990
  H  0.29818825  1.35448281 -0.11024890
  H  2.69017368 -0.50356971  0.39794640
  H  2.66690966  0.89343296 -0.69398405
  H  2.57462701  1.14113237  1.04072861
