14
opt_min/./Product_2714_0_opt.xyz
  C -1.17516800  0.99348900  0.18344200
  C -0.45574255 -0.33317369  0.38592288
  O -1.42286981 -1.35233717  0.38902293
  H -1.00375243 -2.19569270  0.59608928
  C  0.59646809 -0.57360646 -0.71685736
  O  1.66338285  0.35933031 -0.57075477
  C  2.58410530  0.04465001  0.28758402
  H  3.29005923  0.90919826  0.27258434
  H  0.98332978 -1.59585213 -0.63804150
  H  0.16360961 -0.40995738 -1.70658587
  H  0.09510733 -0.31107205  1.34349443
  H -1.72242800  0.97538052 -0.75521919
  H -0.46095978  1.81206113  0.17710630
  H -1.88196419  1.14007623  0.99627413
