14
opt_min/./Product_4873_0_opt.xyz
  C -0.40207300  1.49831900  0.64952100
  C -0.20959348  0.14249895 -0.00912223
  C  1.04983596 -0.56127503  0.51629562
  O  2.18006444  0.16706820  0.09467477
  H  2.95914541 -0.39128416  0.15309093
  H  1.06234630 -1.58652980  0.12707563
  H  1.01425166 -0.60334020  1.61440868
  O -1.34645840 -0.67851625  0.29411347
  C -1.83437136 -1.38185326 -0.68001103
  H -2.68321799 -1.94807636 -0.23994676
  H -0.11621407  0.23876402 -1.09907611
  H -1.23982373  2.02503013  0.20142901
  H -0.59601177  1.36710884  1.71059598
  H  0.50191980  2.08344457  0.51752056
