11
opt_min/./Product_1675_0_opt.xyz
  O -2.08489900  0.32402400  0.24443800
  C -0.99191482 -0.46200154 -0.11090548
  C  0.26806298  0.33424976 -0.26419191
  O  1.32961238 -0.39954900 -0.85149212
  C  2.12068791 -1.13369774 -0.18052571
  H  1.87879911 -1.13144162  0.91511107
  N  0.35077343  1.51354296  0.12517228
  H  1.24261086  1.98140395 -0.00585246
  H -0.79826589 -1.24900264  0.64111043
  H -1.22675074 -0.96210308 -1.05808503
  H -1.75340705  1.10361725  0.71311431
