12
opt_min/./Product_6031_0_opt.xyz
  C -0.18705800 -1.14633000 -0.26872300
  H -0.28413627 -2.19126846 -0.00006406
  C  1.13634379 -0.43302529 -0.06491766
  H  1.62381110 -0.80505721  0.84099822
  H  1.81896372 -0.57068817 -0.90572334
  C  0.71695664  1.00383258  0.09464979
  H  1.44326885  1.79449675  0.17187526
  C -0.60292485  1.14806856  0.09402257
  H -1.15412288  2.06347426  0.21256956
  C -1.27346680 -0.15797175 -0.13951780
  H -2.26883626 -0.36891622  0.22711563
  O -0.92222447 -0.72635972 -1.37967328
