17
opt_min/./Product_6455_0_opt.xyz
  C  2.84085000  0.11002900  0.39069800
  O  1.51549753 -0.06267658  0.85775216
  C  0.57313479  0.12345191 -0.12287379
  H  0.55906915  1.13446611 -0.54549069
  C -0.64599401 -0.68449772 -0.12539754
  C -1.96090101 -0.12584795 -0.61447108
  C -2.66210792  0.64476256  0.49829202
  H -3.58645134  1.08390298  0.12776898
  H -2.89853451 -0.01876552  1.32829906
  H -2.02247101  1.44209840  0.87267283
  H -2.59350246 -0.95067189 -0.95179544
  H -1.76584858  0.52631001 -1.46904209
  H -0.70123552 -1.45653951  0.63992370
  O  0.38508366 -0.89401486 -1.05976148
  H  3.08586496 -0.63335848 -0.37406880
  H  2.97402391  1.11261923 -0.03585420
  H  3.48487474 -0.01121834  1.26020315
