17
opt_min/./Product_11525_0_opt.xyz
  C  1.21497600  1.36437900  0.41367400
  C  0.41731730  0.23315288 -0.22762967
  N  0.99829071 -1.05792955  0.10467777
  C  2.27467041 -1.25162402  0.16235003
  H  2.47628598 -2.31069809  0.42176718
  H  0.28036682 -1.75768224  0.31923054
  C -1.04563383  0.26380990  0.20323022
  H -1.39586681  1.26785835  0.43928172
  C -2.04748019 -0.66912403 -0.36682102
  H -3.06367823 -0.31771695 -0.52316658
  H -1.72608157 -1.41684498 -1.08215252
  N -1.54430038 -0.85033625  0.97668389
  H -2.19114118 -0.60500631  1.72094990
  H  0.44469006  0.35482422 -1.32183569
  H  1.07566801  2.29844194 -0.12911572
  H  0.92203357  1.50450928  1.45212725
  H  2.26616328  1.07968676  0.37713205
