10
opt_min/./Product_10000_0_opt.xyz
  C  1.71474903 -0.41708500 -1.56572597
  C  1.02581520 -0.30689433 -0.59528501
  C  0.15223593 -0.15774889  0.55021220
  H  0.76526586 -0.12303290  1.45583005
  C -0.80821659  1.01104649  0.43838383
  H -0.52543348  2.03433665  0.31787103
  N -2.00580892  0.58440708  0.50093044
  N -1.94750575 -0.80210105  0.64797213
  N -0.81032697 -1.24126999  0.67126707
  H  2.32852740 -0.52147144 -2.40857416
