12
opt_min/./Product_3463_0_opt.xyz
  N -1.12751092 -1.21288170 -0.19992467
  C -0.50020115  0.07578680 -0.33260481
  H -0.54634006  0.37770716 -1.38436821
  C -0.90296197  1.19217705  0.60036130
  H -1.72915228  1.80844937  0.84917004
  O  0.39366748  1.41818197  0.93710930
  C  0.87257573  0.37685860  0.25507452
  N  2.19963079  0.00234498  0.07147039
  H  2.55811585  0.17797129 -0.87093888
  H  2.79120010  0.49735943  0.73458552
  H -0.60953125 -1.90952645 -0.72644730
  H -1.12918889 -1.50226705  0.77287053
