15
opt_min/./Product_10478_0_opt.xyz
  C -1.19794800 -0.98477600 -0.58583600
  C -0.06741386  0.01578503 -0.30410277
  N -0.14317122  1.22547061 -1.12099553
  H -0.19731040  0.97388123 -2.10118688
  H -0.96239012  1.77684438 -0.88372948
  N -0.06922445  0.48579033  1.09205682
  H -0.90845658  0.71638048  1.59951303
  C  1.19038338  0.50684074  1.53737299
  H  1.43267325  1.02665929  2.44971313
  C  2.03251227 -0.32510071  0.76936067
  C  1.29777473 -0.64584227 -0.33079923
  H  1.56973323 -1.32575075 -1.11963969
  H -0.84977022 -1.77513360 -1.24751084
  H -1.53887724 -1.44684195  0.33823605
  H -2.04365966 -0.48282628 -1.05584814
