11
opt_min/./Product_9453_0_opt.xyz
  O -2.00413400 -1.00145500 -0.12380300
  C -0.97957719 -0.27782087  0.44211072
  H -1.11086438 -0.18144653  1.54262876
  N  0.32981401 -0.85304317  0.22868228
  C  1.03766944  0.07270461 -0.29946609
  O  2.31439768 -0.02260227 -0.62595948
  H  2.62689221 -0.91300318 -0.40891229
  C  0.22277459  1.29299324 -0.47379765
  H  0.55076448  2.23213679 -0.87970001
  N -0.95887582  1.07632901 -0.06940133
  H -1.86292264 -1.93385478  0.07901771
