11
opt_min/./Product_3907_0_opt.xyz
  C -1.82350624  0.03593764  0.57902659
  C  1.35251509 -1.96173594  0.43912630
  C  10.18355771  1.40200028  10.58454852
  C  0.07082836 -3.94746995 -8.46972516
  C -3.02999891  0.87997620  7.91712110
  H  5.91672656  1.05741609 -4.62218688
  H  14.36421485  4.01148134  2.90512336
  H  6.61746970  0.79818217 -0.65126874
  H -5.51764327  1.36219350  1.89121784
  H -18.28822158 -3.87120014  5.80655432
  H -1.91824346  4.78675199  7.03579871
