9
opt_min/./Product_8074_1_opt.xyz
  C  0.39237200 -0.44961700 -0.52066100
  C -0.87058884  0.35828914 -0.24805467
  H -1.74793917 -0.27824838 -0.31890376
  H -0.83113501  0.78712499  0.75163788
  H -0.96708580  1.17057995 -0.96826498
  O  1.57175323  0.29147227 -0.30432079
  H  1.51071674  1.12261064 -0.78754118
  H  0.44874826 -1.29902407  0.16685106
  H  0.37226415 -0.83741575 -1.55006681
