12
opt_min/./Product_6805_0_opt.xyz
  O  1.46715900  0.58480300  0.26919900
  C  2.52122792  0.76793448 -0.47655983
  H  3.07390898  1.59130878  0.02363977
  C  0.58635010 -0.41963623 -0.16334668
  H  0.94829558 -0.96452761 -1.03552722
  C -0.27462233 -1.08912405  0.86332753
  H -0.54513450 -2.12876432  0.71812017
  H -0.19191806 -0.78181918  1.89888992
  N -0.78739040 -0.14127006 -0.06340055
  C -1.85189164  0.55069077 -0.48923602
  O -2.96288967  0.45340115 -0.04573270
  H -1.58040013  1.22722049 -1.32217130
