13
opt_min/./Product_711_0_opt.xyz
  C  1.85400500 -0.19620700 -0.07115000
  O  0.66375252 -0.57868859 -0.73940489
  C -0.47490732 -0.12195585 -0.15170220
  N -1.74425019  0.15159030 -0.81781202
  C -1.69152724 -0.80908473  0.29756649
  H -2.14903320 -0.51835014  1.23841396
  H -1.85700976 -1.83431979 -0.00488009
  C -1.06259784  1.23209281 -0.11098440
  H -1.47756790  1.59949927  0.82329814
  H -0.65096909  1.99263330 -0.76559286
  H  1.93175547 -0.67214554  0.91227156
  H  2.66821811 -0.53756105 -0.70789194
  H  1.91356005  0.89013692  0.05051941
