12
opt_min/./Product_4852_0_opt.xyz
  C -1.75741200 -0.25233400 -0.10657500
  C -0.30774673 -0.49592456 -0.30187407
  C  0.68075934  0.29358323  0.14916484
  O  0.42691981  1.43472678  0.86144489
  H  1.25825613  1.88731006  1.05171009
  C  2.08076446 -0.05136938 -0.10789946
  O  2.47546311 -1.01486654 -0.71595581
  H  2.80455211  0.67841560  0.32713468
  H -0.01198946 -1.37851496 -0.84986954
  H -2.25469968 -0.18649844 -1.07389055
  H -2.20719346 -1.08561353  0.43234719
  H -1.91932034  0.66691662  0.44823122
