12
opt_min/./Product_8197_0_opt.xyz
  O  2.23941375 -1.14780136  0.54659328
  C  1.47612125 -0.26738473 -0.16673753
  C  0.24897687  0.04925729  0.17312396
  C -0.93020464 -0.04872125  1.02563519
  H -1.53021582 -0.94870324  0.97414767
  H -0.90841601  0.41378632  2.00433973
  C -0.91666476  0.87977852 -0.18752730
  C -1.68545886  0.51761567 -1.32586377
  N -2.29288435  0.22075002 -2.24997207
  H -0.87408923  1.95319014 -0.01476148
  H  1.93091486  0.17120633 -1.04921419
  H  3.08328050 -1.28211580  0.10446928
