13
opt_min/./Product_5528_0_opt.xyz
  O  1.89089200  0.01559800 -1.47389300
  C  2.22398076  0.23342374 -0.34290235
  C  1.32765625  0.59600068  0.80780729
  C -0.11546547  0.84642461  0.42917180
  N -0.67185529 -0.18277586 -0.12638854
  C -2.07991977 -0.20213714 -0.46125190
  H -2.68176512  0.06673722  0.40684123
  H -2.28204014  0.52172819 -1.25098727
  H -2.36590820 -1.19271963 -0.80730225
  H -0.20903612 -1.09749853 -0.18040605
  H  1.40517242 -0.22475513  1.53272142
  H  1.74530266  1.48525146  1.28761821
  H  3.29500051  0.18510826 -0.04826685
