12
opt_min/./Product_9795_0_opt.xyz
  N  2.08542900 -0.42996400 -0.05985000
  C  0.72872343 -0.30333968  0.02028599
  O -0.04750540 -1.24458899 -0.40562212
  C -1.35781725 -0.85748379 -0.36935578
  H -2.07523281 -1.56324729 -0.72646675
  C -1.49946879  0.44664221  0.11132669
  O -2.49164000  1.13225381  0.30482621
  C -0.03766496  0.90730785  0.39969731
  H  0.22781364  1.76860079 -0.21338214
  H  0.07242530  1.20143604  1.44273177
  H  2.37956951 -1.35352070 -0.35333546
  H  2.63210408 -0.06528947  0.70584751
