11
opt_min/./Product_6341_0_opt.xyz
  O  2.50832300 -1.00724200  0.04043200
  C  1.36807303 -0.65711373  0.11594354
  C  0.81244828  0.68303628  0.50774381
  H  1.22909124  1.16457614  1.37960912
  C -0.04812124  1.38509286 -0.48778667
  H -0.08852705  2.24410475 -1.11011977
  C -0.68994354  0.48326586  0.21770714
  C -0.96908452 -0.95504692  0.16970640
  H -1.62949259 -1.23668612 -0.65295079
  H -1.34358744 -1.36418688  1.11397076
  O  0.33046806 -1.51618409 -0.09221261
