16
opt_min/./Product_4483_0_opt.xyz
  C -0.35485200 -0.44561900  0.93103700
  C  0.19655639  0.85913898  0.45560863
  C  1.31361888  1.02838354 -0.23602389
  C  2.23271839 -0.06392499 -0.69251273
  H  1.74308126 -0.69443530 -1.43110518
  H  3.12770980  0.35205284 -1.14559314
  H  2.53817053 -0.69231624  0.13975677
  H  1.60376634  2.03182093 -0.51585568
  H -0.39357105  1.72658068  0.72131513
  C -1.67940173 -0.80134119  0.32490159
  C -2.26314675 -0.17343616 -0.67907907
  H -3.21153363 -0.49797387 -1.06475525
  H -1.80771833  0.67974240 -1.15213313
  H -2.16296350 -1.66426641  0.76615275
  H  0.34271014 -1.25920537  0.72263940
  H -0.48302104 -0.39669662  2.01636768
