11
opt_min/./Product_2855_0_opt.xyz
  C -1.18395101 -0.21045202 -0.48490998
  C -0.31907727  0.20623563  0.72195409
  C  1.00953499  0.72014584  0.22488048
  O  1.36655241  1.86780150  0.21111098
  C  1.85281405 -0.35457091 -0.29666830
  N  2.52400520 -1.19284593 -0.69417099
  H -0.79630936  1.00615499  1.28410128
  H -0.15860710 -0.64773065  1.37917510
  H -0.56535830 -0.36231585 -1.36817458
  H -1.90512794  0.56370642 -0.72184157
  H -1.71447749 -1.13231167 -0.28394904
