10
opt_min/./Product_2536_0_opt.xyz
  C -1.08027000 -0.48339500  0.39764400
  C -0.14890353  0.73791543  0.31761033
  N  1.22363894  0.37023769  0.27102781
  C  2.07115475 -0.18668946 -0.34630616
  O  3.02651734 -0.67822195 -0.78441229
  H -0.37879849  1.33861561 -0.56914890
  H -0.25258187  1.36565636  1.20423246
  H -1.68795915 -0.44292804  1.29716729
  H -0.49445561 -1.39945855  0.42913701
  H -1.73164294 -0.53438593 -0.47029753
