13
opt_min/./Product_5499_0_opt.xyz
  C -1.82902956  0.88883564  0.49156545
  O -3.79671120 -6.64328813 -1.83461696
  C  10.31015522 -8.99530055 -2.21603357
  N -12.73462323 -8.71351500 -1.71848072
  C -1.77446886 -11.02107024  4.90071085
  C -19.27201968 -3.16393567  2.59012668
  H  0.04745389 -7.50086723  8.95732902
  H -37.49724729 -8.18460876 -5.68468182
  H -35.76256762  0.64046660 -15.61955019
  H -31.73769244 -6.05606691  12.94636740
  H -14.96314562 -4.71262361  2.23764589
  H -3.85932887  12.36161820 -1.84137997
  H  13.02708118  4.23146356  19.28502246
