19
opt_min/./Product_8298_0_opt.xyz
  C  1.78953400  0.95251200  0.63597100
  C  0.72077382  0.31366972 -0.24040937
  C  1.26364289 -0.96319319 -0.88239565
  H  1.51839173 -1.67060825 -0.09400718
  H  2.15762087 -0.74369145 -1.46753409
  H  0.53525512 -1.42092798 -1.55080225
  C -0.53309307 -0.03346808  0.59625211
  C -1.80185316 -0.15270673 -0.26718622
  O -2.05111079  1.09295856 -0.88486966
  H -2.76326537  0.99349938 -1.52553248
  H -1.65617662 -0.94006505 -1.01930424
  H -2.65297380 -0.43028478  0.37385803
  C -0.29929180 -0.95024828  1.68423240
  H -1.23469710 -1.44740134  1.99719842
  H -0.70536157  0.84609257  1.25895339
  H  0.41355722  1.01643603 -1.02163332
  H  2.70151646  1.10515607  0.05962815
  H  1.46075288  1.92615010  0.99919989
  H  1.99605130  0.30318902  1.48369902
