9
opt_min/./Product_2787_0_opt.xyz
  O  2.41413700 -0.84685900  0.02234200
  C  1.29500942 -0.44796401 -0.16045119
  C  0.65406339  0.80690498 -0.11523780
  H  1.07357451  1.75903146  0.11417516
  N -0.65428959  0.61101464 -0.42565471
  H -1.35633387  1.33615686 -0.47096510
  C -0.87425381 -0.66911716 -0.65999140
  H -1.79933096 -1.13736455 -0.92763113
  O  0.23661854 -1.35913453 -0.52149276
