10
opt_min/./Product_3084_0_opt.xyz
  N -1.46938300  0.48610000 -0.11470000
  C -0.30970000 -0.31673771  0.13164897
  H -0.61958538 -1.29369259  0.54333655
  C  0.54299971 -0.73984779 -1.05716283
  O  1.75759211 -0.51255541 -0.68378330
  C  1.77676611  0.07904511  0.58443658
  H  2.73795102  0.33389947  0.98973182
  N  0.64565316  0.22675589  1.09888852
  H -1.23837703  1.46763783  0.00634086
  H -2.21708268  0.27211312  0.53656201
