12
opt_min/./Product_2777_0_opt.xyz
  N  3.07670407 -0.07808255  0.39745812
  C  1.96892411 -0.31919564 -0.03906704
  C  0.82847465 -0.47588973 -0.66290925
  N -0.42300178 -0.18789742 -0.17774914
  C -1.47606941 -0.48581440  0.70241191
  H -1.37767628 -0.22469788  1.75495269
  H -2.05249571 -1.39484689  0.53019177
  C -1.56719623  0.61515326 -0.31348510
  H -2.20531869  0.47606093 -1.18536425
  H -1.51156752  1.64787185  0.02745497
  H  0.91093441 -0.83087896 -1.69413277
  H  3.60306481 -0.76993086  0.92325852
