15
opt_min/./Product_8156_0_opt.xyz
  O  1.26396900  0.06709900 -1.63105800
  C  0.98876230 -0.05626728 -0.26613887
  H  1.90513852 -0.08908882  0.32779836
  C -0.10174565  0.83201002  0.38069572
  H  0.10523187  1.85322713  0.70091902
  C -1.26795726  0.53675192 -0.56710334
  H -2.24719529  0.78686498 -0.15563636
  H -1.18758724  0.99837497 -1.55004343
  C -1.16903818 -0.94831860 -0.69901854
  C  0.02155875 -1.20856209  0.14593020
  H  0.38024304 -2.23003947  0.25693969
  C -0.28735803 -0.31389262  1.38590151
  H -1.27330466 -0.43127023  1.82282853
  H  0.49502359 -0.37833062  2.13553861
  H  2.10700476  0.50424467 -1.76287770
