7
opt_min/./Product_582_0_opt.xyz
  O -1.06101299 -1.48156201 -0.05712404
  C -1.04822885 -0.31299474 -0.26570200
  C  0.26227573  0.47287000 -0.00510237
  C -0.04107902  1.69056258 -0.32517448
  N  1.28587643 -0.26245533  0.45480373
  C  2.21119395 -0.85761199  0.84153080
  H -1.88683465  0.26623516 -0.64600875
