15
opt_min/./Product_1910_0_opt.xyz
  C -1.50029800  0.11080500 -0.30003100
  H -1.68725403  0.29140240 -1.35421149
  H -2.44197738  0.04447787  0.23543657
  C -0.54584731 -1.07204125 -0.03927324
  H -0.91657978 -1.79501646  0.68288648
  H -0.22136111 -1.59613082 -0.93243626
  C  0.50332176 -0.09830054  0.54413867
  C  1.79989648  0.00383100 -0.24552474
  H  2.39211876 -0.89811243 -0.09056998
  H  2.38412169  0.85508558  0.08998191
  H  1.59782358  0.08650691 -1.30765101
  H  0.73681532 -0.28692843  1.59292694
  C -0.48204145  1.06926848  0.34220593
  H -0.12665598  1.86815220 -0.30400662
  H -0.83747503  1.51233059  1.27025075
