14
opt_min/./Product_7670_0_opt.xyz
  C  2.34196000 -0.07666100  0.26991500
  O  0.99876901  0.22657654  0.54349949
  C  0.12136067 -0.22648962 -0.45739178
  C -1.27982800  0.22512097 -0.13080118
  N -1.40929129  1.60048939 -0.01443425
  O -2.46350267  2.15669667 -0.25291218
  C -2.25894118 -0.59767293  0.27051807
  H -2.09366081 -1.65044935  0.42217592
  H -3.23374844 -0.21154634  0.51910008
  H  0.41321403  0.18903736 -1.43631662
  H  0.14095781 -1.32522272 -0.52708668
  H  2.49782286 -1.15999746  0.19337782
  H  2.67869642  0.39157397 -0.66259066
  H  2.91872689  0.31398398  1.10412334
