15
opt_min/./Product_426_0_opt.xyz
  C  2.22189000 -0.67778300  0.09202800
  C  1.57881606  0.38822445 -0.73293218
  N  0.42463361  0.87915835 -0.41951664
  C -0.59805657  1.68034103 -0.57827740
  H -1.03463472  2.31504140 -1.29881995
  C -0.71693570  0.66711699  0.46647507
  C -1.51859431 -0.60971310  0.29648896
  H -1.01332527 -1.45269946  0.76455048
  H -2.49412331 -0.48373134  0.75929963
  H -1.65550619 -0.82906041 -0.76018963
  H -0.57147420  0.94258094  1.51290421
  H  2.10713154  0.81610371 -1.56967028
  H  2.32879924 -1.60827332 -0.46993828
  H  3.21153542 -0.36664565  0.42622780
  H  1.61418711 -0.88743838  0.97065022
