15
opt_min/./Product_11167_0_opt.xyz
  C  1.79096800  0.15288200 -0.84886700
  H -0.78176260 -0.09211323 -2.35118394
  H  2.44989643  0.48317882 -1.62562787
  C  1.91217157 -1.06974120 -0.07546655
  H  2.16162211 -1.82302483  0.62944247
  C  1.66928062  0.35826697  0.60462224
  H  2.33331693  0.86399882  1.29233765
  C  0.16356798  0.20202809  0.60469322
  H -0.32122739 -0.19069804  1.49549608
  C -0.77973261  0.97814584 -0.35211333
  H -0.21410565  1.76887721 -0.84223046
  H -1.72208191  1.35265579  0.03335455
  C -0.79611744 -0.25879931 -1.27788712
  H -1.51049426 -1.04496623 -1.02775498
  C  0.51350919 -0.68152878 -0.59364806
