15
opt_min/./Product_8848_0_opt.xyz
  C -2.14760775  0.86202175 -0.12750779
  C -1.63936174  3.31285166  6.32952144
  C -4.49709258  0.85109281 -8.83712475
  N -8.68315365  0.46594743  0.60496814
  C -4.65690139 -2.36210832  36.73333322
  C -8.83723288  4.43080033  18.64352726
  H  0.09417331 -18.91500098 -31.07661791
  H  3.98798109  17.30783351  9.63152651
  H -19.15161555  11.66888015 -26.58289770
  H  25.81628196 -3.65178570  2.02617008
  N -11.63307596 -14.09538644  7.43205846
  H -32.77288239  9.71693141  31.26535999
  H  7.83645806  10.19523016  12.09124918
  H -25.48516399  7.60354056 -5.12781748
  H  1.23953254 -1.95000037 -14.41158543
