7
opt_min/./Product_5452_1_opt.xyz
  O  2.13237100 -0.42390100 -0.09827800
  C  0.98530703 -0.12854726 -0.03384067
  N  0.10996241  0.82565731  0.15688166
  H -0.14477905  1.77395934  0.33908034
  C -0.46015648 -0.49213826 -0.09456594
  H -0.93166390 -1.00498205  0.73606184
  H -0.94274282 -0.65628594 -1.05148231
