12
opt_min/./Product_11600_0_opt.xyz
  N  2.98462100  0.70083800  0.62978400
  C  1.76537280  0.35015544  0.52272449
  C  0.54560806  0.14144932 -0.00549746
  O -0.37529349 -0.50567218  0.76903430
  C -1.66426730 -0.71125364  0.36127864
  C -2.27173557 -0.29210911 -0.73365936
  H -3.30510387 -0.54292171 -0.89266482
  H -1.77065550  0.27927441 -1.49210557
  H -2.16340282 -1.29666312  1.12371292
  O  0.40341787  0.57861149 -1.15487422
  H  3.75711907  0.10330513  0.32872329
  H  3.26413451  1.61392654  0.99148897
