14
opt_min/./Product_6481_0_opt.xyz
  C -1.24214700 -0.71633100 -0.45724500
  H -1.18545612 -1.76345598 -0.20656272
  H -1.86894218 -0.50138967 -1.30638201
  C -0.01462420  0.12603736 -0.24318066
  N  1.19585139 -0.46227053  0.23694022
  C  2.40567215 -0.02877247 -0.16771477
  O  2.60875684  0.86879914 -0.94504567
  H  3.22286254 -0.60123404  0.31451875
  H  1.11694977 -1.21510396  0.90109415
  H  0.21538475  0.91018540 -0.95455604
  C -1.19419959  0.29186246  0.66818031
  O -1.99026381  1.42822604  0.63658009
  H -1.65139872  2.05129247 -0.01508362
  H -1.12484270 -0.08539025  1.68083353
