13
opt_min/./Product_10398_1_opt.xyz
  C  1.24760800 -0.60792900  0.38604800
  H  1.45676465 -1.63549463  0.13914600
  H  1.71234856 -0.28325810  1.30339815
  C -0.06032776 -0.02880683  0.00975187
  C -1.43520720 -0.48399354 -0.28673311
  H -1.87248648 -0.26324839 -1.24687276
  H -1.77145780 -1.42350876  0.12187980
  C -1.18566138  0.65857979  0.68017395
  H -1.36383461  0.50122565  1.73127894
  H -1.44323837  1.65222200  0.34855263
  C  1.14043616  0.39679394 -0.74580707
  H  1.52813228  1.38670813 -0.56567537
  H  1.28352462  0.05588757 -1.75777277
