12
opt_min/./Product_7451_0_opt.xyz
  O -1.99547096 -0.70073543 -0.18642201
  C -0.86653620 -0.64391245  0.61384217
  N  0.31215139 -0.71073412 -0.18636864
  C  1.50082881 -0.76728511 -0.04420622
  C  2.81237186 -0.79183816 -0.02567896
  C  3.63824077  0.39934187 -0.02722011
  O  4.84908426  0.39693511 -0.00200775
  H  3.08367834  1.34625124 -0.17640867
  H  3.32265731 -1.74260935 -0.00169596
  H -0.92071175 -1.51268652  1.28151028
  H -0.84315230  0.27904874  1.22165865
  H -1.96358380  0.00335097 -0.84552366
