9
opt_min/./Product_321_0_opt.xyz
  O  2.45428100  0.00670600  0.15392300
  C  1.28518433  0.26595408  0.07935581
  N  0.71685721  1.51157786  0.04169790
  O -0.59865605  1.37571803 -0.03310861
  C -1.01887707  0.16456443 -0.05631243
  H -2.07753731 -0.01634696 -0.10684019
  C  0.11519719 -0.76586798  0.00654477
  H  0.10171569 -1.43148254  0.87098724
  H  0.21645179 -1.39024396 -0.88432121
