18
opt_min/./Product_10237_0_opt.xyz
  C  1.01625800  1.12456400 -0.08822800
  C  0.56595622 -0.17862366  0.56747109
  C  1.46196738 -1.32506353  0.10073235
  H  2.48825680 -1.14925360  0.41205358
  H  1.42895295 -1.40093488 -0.98230625
  H  1.13278274 -2.27190821  0.52417700
  N -0.79315323 -0.51605872  0.19200630
  C -1.88876210  0.42781994  0.30460236
  H -1.54034116  1.40388186  0.63959632
  H -2.68636891  0.07899249  0.96726852
  C -2.30696707  0.47581923 -1.15296282
  O -1.92595766  1.28332163 -1.95344226
  H -2.89968914 -0.40657463 -1.46810964
  H -1.05480424 -1.44887268  0.47273074
  H  0.66814730 -0.08018421  1.66700479
  H  2.05668622  1.31374870  0.16104954
  H  0.91446401  1.04746992 -1.16647051
  H  0.42808733  1.97000605  0.25471136
