13
opt_min/./Product_294_0_opt.xyz
  C  1.93943700  0.31094700  0.36535400
  C  1.18177989 -0.78425538  1.06930390
  O  0.04595678 -1.13935155  0.63294282
  C -0.67632038 -0.60651874 -0.51246545
  C -1.75631623  0.34286453 -0.02023122
  H -2.37262854  0.67233182 -0.85335239
  H -2.38567009 -0.16225655  0.70930701
  H -1.31458722  1.21536610  0.45722032
  H -0.00109303 -0.10900127 -1.21065541
  H -1.11808107 -1.48220987 -0.99556512
  H  1.40087492  1.25289959  0.49680487
  H  2.92542193  0.41436314  0.81129577
  H  2.05050537  0.13547676 -0.70684222
