10
opt_min/./Product_3934_0_opt.xyz
  O  0.30362304  0.81665001  1.79186799
  C  1.02815082  0.20936183  1.05391565
  N  0.64303816 -0.42414770 -0.07945586
  C -0.72917294 -0.36151143 -0.53567575
  N -1.04236963  0.91069041 -1.04194073
  C -1.28534852  1.97377687 -1.44285326
  H -0.88363902 -1.10002671 -1.32858287
  H -1.40413160 -0.56226341  0.30710865
  H  1.31004289 -0.95073531 -0.61663954
  H  2.11436465  0.08734469  1.22830832
