18
opt_min/./Product_11096_0_opt.xyz
  C  2.19953100  0.45178400 -0.52482700
  C  0.90842117 -0.15024709  0.02430123
  H  1.12294364 -0.95966797  0.74033393
  C  0.04162607  0.89272492  0.74733137
  H -0.14730302  1.73072242  0.04886832
  H  0.57416309  1.27183689  1.62102679
  N -1.18003985  0.24492950  1.18913533
  H -1.75296277  0.89744706  1.71611724
  C -1.91797847 -0.27272747  0.05078153
  H -2.82892387 -0.75952628  0.40367598
  H -2.18959606  0.51786444 -0.67440999
  C -1.01576644 -1.29210547 -0.65194990
  H -0.80674493 -2.12137724  0.04070884
  H -1.49148895 -1.68042197 -1.55077561
  O  0.19148028 -0.70005421 -1.07100705
  H  2.00048196  0.85274181 -1.51150894
  H  2.97519015 -0.29744586 -0.61078203
  H  2.55177047  1.25273990  0.11578989
