19
opt_min/./Product_9706_0_opt.xyz
  C  2.58363800  0.02311000 -0.40764200
  C  1.32156983 -0.82394390 -0.30696771
  C  0.12120560 -0.01446533  0.20323786
  H  0.43356054  0.46913370  1.13755905
  C -0.23855472  1.13947816 -0.65312337
  C -1.71099119  1.21709284 -0.63652718
  H -2.02525390  0.95615511 -1.64828553
  H -2.03802130  2.24494719 -0.46990673
  C -2.26815633  0.20804700  0.39094395
  H -2.38481645  0.70281556  1.35417734
  H -3.22828610 -0.21139849  0.09881239
  C -1.15761148 -0.84232631  0.47018189
  H -1.27475543 -1.58074781 -0.32178868
  H -1.13018912 -1.36759181  1.42163737
  H  1.48939341 -1.65966172  0.37333727
  H  1.07461505 -1.22871672 -1.28908331
  H  2.39281394  0.88515244 -1.03679911
  H  3.39825803 -0.55458676 -0.83237214
  H  2.88121923  0.37572876  0.57445020
