11
opt_min/./Product_7327_0_opt.xyz
  N  1.79514100  0.51755700  0.19425300
  C  0.69871834 -0.14975731 -0.47667329
  H  1.07534163 -0.57990807 -1.41637457
  C  0.02401429 -1.22219019  0.36159662
  N -1.21564962 -0.80115191  0.41503511
  H -1.95846799 -1.27252643  0.91485911
  C -1.46896599  0.42499925 -0.28649953
  O -2.53118001  0.95548758 -0.35719293
  O -0.32112465  0.80357252 -0.81551190
  H  2.36828188 -0.18726707  0.64767969
  H  1.42665606  1.13547329  0.91261855
