12
opt_min/./Product_4676_0_opt.xyz
  O -2.13530000  0.18985900  0.98994900
  C -0.88414086  0.35167522  0.55812238
  C -0.59793108  0.81282645 -0.80816311
  H -0.04219940  1.73855474 -0.93654135
  H -1.48008468  0.79762643 -1.44112694
  C  0.30315016 -0.45078183 -0.72577465
  C  1.43339143  0.01574676  0.13694882
  H  2.26328394 -0.67155583  0.22990222
  H  1.74130888  1.05735824  0.17936520
  C  0.22939009 -0.38117052  0.93812870
  H  0.25676411 -1.09592302  1.74590362
  H -2.17558967 -0.46275951  1.70060027
