10
opt_min/./Product_1256_0_opt.xyz
  N  2.03661724 -0.15824107  0.19164495
  C -161.05591080  12.57131416 -105.94738792
  C -3.01761033  118.54811498  9.30999706
  C  20.38029398 -137.63761342 -39.01490538
  C -1.44026764  90.11067646  34.36352844
  H  13.70068291 -61.21630212 -13.04357666
  H -28.05012210  22.74964241  14.93151219
  H -15.72878597 -41.55289619  2.67458344
  H  68.68448691  39.92280587  85.12794694
  H -30.40240030 -74.17874729  49.75436253
