11
opt_min/./Product_1445_0_opt.xyz
  O  2.50159400  0.66630900 -0.04672800
  C  1.36491444  0.63075732  0.71801632
  H  1.44152296  1.34552919  1.53606166
  C  0.09890437  0.19538561  0.22494174
  N -1.03262452  0.21070191 -0.41756779
  C -1.93862224 -0.75285501 -0.59558768
  H -2.87954220 -0.46753748 -1.02211352
  H -1.87384170 -1.64336056 -0.00002319
  H -1.18772229  1.07318699 -0.93852313
  O  0.82181784 -0.64682311  1.06903339
  H  2.55594983 -0.13854727 -0.58030481
