13
opt_min/./Product_1869_0_opt.xyz
  C -1.34803000 -0.95187600 -0.21787600
  C -0.44873504  0.22532082 -0.52447022
  H -0.57756108  0.63708050 -1.51655253
  C -0.12553457  1.20460694  0.59578396
  H -0.03527076  2.25274839  0.35059301
  H -0.54162230  1.02879284  1.57518717
  C  0.89189001  0.28790890  0.07217263
  C  2.11734671 -0.16270230  0.11019983
  H  2.45110420 -0.94010149 -0.55673700
  H  2.84114644  0.22184556  0.81074079
  H -1.31902418 -1.67454437 -1.02787482
  H -2.37625752 -0.62551802 -0.08912374
  H -1.02261449 -1.44358426  0.69323058
