15
opt_min/./Product_8795_0_opt.xyz
  O  2.54931600  0.23362400 -0.14437300
  C  1.35712781  0.06459742 -0.10795308
  C  0.35069987  1.12520098 -0.47254236
  H  0.14966241  1.03209990 -1.54529748
  H  0.79886358  2.10631966 -0.29778753
  C -0.95012864  0.93877768  0.30093537
  H -0.74009357  1.00638614  1.37218751
  H -1.65847031  1.72812108  0.04673845
  C -1.54552298 -0.43176750 -0.02266576
  H -2.35318957 -0.69926424  0.67065777
  H -2.02782129 -0.41868345 -1.00886871
  C -0.64155321 -1.59187607 -0.05464328
  C  0.76436616 -1.29125759  0.25785074
  H  1.42613504 -2.08447272 -0.11063904
  H  0.80132998 -1.37384370  1.35429724
