13
opt_min/./Product_681_0_opt.xyz
  C  2.08927000 -0.29013500  0.00141200
  C  0.59467626 -0.24141104  0.01531406
  C -0.22866263 -1.30728630  0.25491293
  N -1.62496039 -0.65898625  0.16484213
  H -2.16314953 -1.15451534 -0.54733112
  H -2.08850554 -0.81238916  1.06183850
  C -1.44828869  0.76030099 -0.13665543
  H -2.29843068  1.40037339 -0.25184706
  C -0.12629981  0.98438554 -0.21647249
  H  0.33073052  1.93413042 -0.42554870
  H  2.49857377  0.00907185  0.96755199
  H  2.42541482 -1.30331101 -0.20608869
  H  2.49320924  0.37916038 -0.75717520
