14
opt_min/./Product_4029_0_opt.xyz
  C -0.51781100 -1.11209500 -0.64056000
  C  0.00468952  0.02496101  0.24327424
  C  1.42537860  0.41810179 -0.15980874
  H  1.43420248  0.74245653 -1.19625610
  H  2.06684866 -0.45014195 -0.05161665
  H  1.80106611  1.21593488  0.46956240
  O  0.04338991 -0.34961890  1.59981936
  H -0.79540678 -0.75989713  1.83919398
  C -0.91508256  1.25508502  0.09216846
  C -1.94562989  1.38584218 -0.66728897
  H -0.60062651  2.08633256  0.71251638
  H -1.49964103 -1.43905853 -0.31497438
  H -0.58105456 -0.77631830 -1.66970583
  H  0.17564866 -1.94817524 -0.58206832
