15
opt_min/./Product_11903_0_opt.xyz
  O  3.46876500  0.11969200  0.10436700
  C  2.17861872  0.47076276 -0.10903170
  C  1.16148021 -0.36015750 -0.28359384
  C -0.25002634  0.08549984 -0.49168429
  C -1.19114857 -0.44707808  0.57882718
  C -2.60258721  0.08093378  0.46457573
  H -2.63694776  1.06651723  0.92602769
  H -2.91031012  0.18050667 -0.57180652
  H -3.28669953 -0.57164169  0.99980471
  O -0.85209437 -1.23092759  1.42513475
  H -0.62503460 -0.26646500 -1.45787150
  H -0.30694757  1.17567325 -0.49601871
  H  1.32560236 -1.42834578 -0.23986892
  H  2.06622306  1.54560729 -0.13568482
  H  3.53283721 -0.84209491  0.17722625
