11
opt_min/./Product_4212_0_opt.xyz
  O  2.10678900 -0.57208600 -0.34876100
  C  0.79924467 -0.27089647 -0.16607374
  C -0.24495669 -0.95345345  0.30757248
  H -0.27624681 -1.95985428  0.67415291
  C -1.42545500 -0.03436457  0.23921677
  H -1.87361005  0.15895219  1.21581042
  H -2.22482940 -0.41569872 -0.39886103
  C -0.90292369  1.26268063 -0.33269893
  N  0.37798236  1.01549064 -0.53592598
  H  1.03551019  1.67686662 -0.92162169
  H  2.27877084 -1.47424265 -0.06227415
