14
opt_min/./Product_5770_0_opt.xyz
  O -0.73329600  1.41493800 -0.99346900
  C -0.75048392  0.78676329  0.21821032
  H -1.43620557  1.22492828  0.94896993
  C -0.76546661 -0.79923105  0.33040469
  C -0.74104290 -1.49859661 -0.88162923
  H -1.35199322 -2.41692937 -0.81981022
  H -1.31717659 -1.10958749  1.22870480
  C  0.45665047  0.11122016  0.67934579
  C  1.66529725  0.09093082 -0.21318005
  H  1.36479518 -0.20962653 -1.21619319
  H  2.09348488  1.09221205 -0.26618229
  H  2.41085934 -0.60308732  0.17040687
  H  0.65832156  0.11833042  1.74697170
  H -1.58069575  1.32091348 -1.44704232
