13
opt_min/./Product_6092_0_opt.xyz
  C -1.29840700 -1.03016700  0.16705600
  C -0.26432928 -0.08244178 -0.44245220
  H -0.38426395 -0.07245866 -1.54453703
  N -0.41161427  1.23396616  0.17411988
  H -0.94086930  1.91834619 -0.35720029
  O  0.90865440  1.78911069  0.36495021
  C  1.74146152  0.71948148  0.33963098
  H  2.75090890  0.92019086  0.64669414
  C  1.16820545 -0.39970606 -0.08016170
  H  1.62059022 -1.36269800 -0.19135364
  H -1.26616981 -1.99112890 -0.34235776
  H -2.29557745 -0.60866907  0.07771307
  H -1.07670606 -1.18004458  1.22014563
