17
opt_min/./Product_10885_0_opt.xyz
  C  2.58867000 -0.49899100 -0.02243000
  O  1.82310916 -0.09459587  1.09221224
  C  0.52016160 -0.48999586  1.04169692
  H  0.36081919 -1.56673128  1.01059572
  C -0.51088820  0.39056619  1.58442807
  H -0.17776998  1.33557222  1.98267490
  H -1.37220387 -0.04036108  2.07058438
  C -0.47559862  0.25403046  0.03024233
  C  0.10300907  1.20774380 -0.81944204
  H  0.78433644  1.87462154 -0.26234474
  C -1.56459414 -0.62964369 -0.55280586
  H -2.53964948 -0.20342927 -0.32476853
  H -1.46339705 -0.67508083 -1.63291377
  H -1.53160554 -1.63982997 -0.15047747
  H  2.19929330 -0.01795949 -0.92962033
  H  2.56037911 -1.58657525 -0.14855383
  H  3.61084286 -0.18090963  0.16533923
