11
opt_min/./Product_2681_0_opt.xyz
  O  3.05779400 -0.25081500  0.53104900
  C  2.01412951 -0.24942319  0.00932125
  C  0.85448838 -0.26030809 -0.55972538
  C -0.29683585  0.61405894 -0.11404466
  C -1.44312574 -0.21571519  0.45550876
  H -1.10785952 -0.81787976  1.29443816
  H -2.23797456  0.43900648  0.80227506
  H -1.85680634 -0.87760605 -0.30127142
  H -0.65613639  1.18829215 -0.96819907
  H  0.05859666  1.31357109  0.64133897
  H  0.68154155 -0.91677225 -1.39487504
