11
opt_min/./Product_4748_0_opt.xyz
  N  2.04400800  0.43284700  0.23095700
  C  1.73583767 -0.71610532  0.80027755
  O  0.49988672 -1.17073234  0.67362152
  C -0.53885611 -0.63363194 -0.07386168
  H -0.87649614 -1.35253281 -0.82381079
  N -0.64234076  0.75919121 -0.35681757
  H -1.06463751  0.98187813 -1.25955069
  N -1.50754295  0.15271026  0.61189152
  H -2.46980269  0.00257646  0.31327727
  H  2.97507021  0.78819462  0.36365950
  H  1.38109651  1.04354093 -0.24220348
