11
opt_min/./Product_11323_0_opt.xyz
  C -1.13443495 -1.20797804  0.11149413
  O -1.13687204  0.15765326  0.46896525
  C -0.05247581  0.88442202  0.25520798
  C -0.02682328  2.20334929  0.59484589
  C  0.00911525  3.41620069  0.92025853
  C  1.11353195  0.33747497 -0.32749378
  C  2.11311191 -0.10112570 -0.83481284
  H  2.98942398 -0.46806517 -1.28109241
  H -1.22817791 -1.31956668 -0.97195133
  H -2.00120524 -1.65429744  0.59217833
  H -0.22124141 -1.70456511  0.44721548
