12
opt_min/./Product_1943_0_opt.xyz
  C  1.54610000 -0.07314300 -0.00441500
  N  0.12863465  0.13144338 -0.01766229
  C -0.86253049 -0.93402723 -0.04943835
  H -0.78916191 -1.57286103  0.83557785
  H -0.74144069 -1.55902307 -0.93348095
  C -2.18385841 -0.20695619 -0.01567910
  N -1.87127673  1.11071347  0.04595690
  C -0.57043469  1.25750445  0.04157738
  H -0.08167918  2.22095781  0.07723081
  H  1.86850391 -0.45982698  0.96742526
  H  2.05655938  0.86965958 -0.19788924
  H  1.81670790 -0.79861752 -0.77366113
