10
opt_min/./Product_5281_0_opt.xyz
  C -0.38821800 -0.06942400 -0.02691801
  C -1.68245012 -0.28602347 -0.12199192
  H -2.12259261 -1.22895010  0.16108329
  H -2.34213508  0.48140158 -0.48896703
  N  0.48462096  1.12937754 -0.34477416
  N  0.32716359  2.21195633 -0.75871003
  C  1.62332601  0.29948627  0.10914433
  H  2.66741905  0.53935101  0.16220373
  C  0.83799322 -0.75072328  0.38482331
  H  1.00753009 -1.73819712  0.76587601
