12
opt_min/./Product_5753_0_opt.xyz
  C -2.09811889 -0.07453917 -0.01236696
  O -2.41486634  11.14734907  14.59458696
  C  1.03416887  17.74282106  5.07122182
  C  3.63295965  12.16784435  8.86091917
  C -4.49326074 -11.97834835  8.21936329
  O  6.60795624 -6.82488481  15.22554881
  H  15.71204870  9.97800486 -39.08261337
  H -6.97914506 -13.75734631  15.21101247
  H  7.40556812 -17.58090068  2.45910011
  H -1.81538231  1.01417760 -0.11945892
  H -16.16245998 -0.39559651 -2.61256148
  H  17.16068798 -4.54868283  2.53094858
