11
opt_min/./Product_2562_1_opt.xyz
  C  0.53725700  0.60058500 -0.14780300
  C  1.82354417 -0.14061614  0.04781766
  H  2.40990374  0.31996083  0.84053149
  H  1.61601373 -1.17572428  0.30823500
  H  2.40947072 -0.11892936 -0.87124720
  C -0.63991072  0.04448639 -0.02044401
  C -2.07430501 -0.03317139 -0.01804613
  H -2.61962855 -0.10431432 -0.95145966
  H -2.63679184  0.34225101  0.82858154
  O -1.21873404 -1.14807721  0.26643899
  H  0.59704301  1.64758696 -0.40477113
