13
opt_min/./Product_8805_0_opt.xyz
  N  2.84558300  0.73686600  0.53820600
  C  2.12996731 -0.24499208  0.04512211
  C  0.71783771  0.08346241 -0.03105198
  C -0.18326084 -0.87897535 -0.26666665
  N -1.54817684 -0.67238253 -0.33614080
  C -2.16288193  0.40351713  0.15062813
  O -3.49239799  0.29661112 -0.13277125
  H -3.95216652  1.05818079  0.23834632
  H -2.09575614 -1.39817394 -0.80698112
  H  0.13471589 -1.90502431 -0.39126782
  H  0.36524338  1.10832598  0.08916960
  H  2.46116180  1.63058461  0.86536049
  H  3.84553520  0.63463276  0.62704205
