16
opt_min/./Product_10977_0_opt.xyz
  C -2.11546900  0.35221500  0.08733300
  C -0.86216965 -0.24313623  0.73381508
  N  0.16379480 -0.47640381 -0.25563244
  C  0.81280664  0.71086652 -0.84080751
  H  0.60398287  0.85371024 -1.89993236
  H  0.62883990  1.65167972 -0.31350493
  C  2.15979196  0.11094066 -0.49948493
  O  3.29911321  0.40046830 -0.70757245
  C  1.44924587 -1.00901709  0.23083395
  H  1.58627094 -0.97071027  1.31645436
  H  1.66282786 -2.01859908 -0.11652020
  H -1.09277275 -1.21102197  1.18499392
  H -0.49781269  0.41931095  1.54132436
  H -2.89791615 -0.39274923 -0.01816397
  H -1.88415960  0.72745815 -0.90400242
  H -2.51117514  1.17176969  0.68018324
