16
opt_min/./Product_8596_0_opt.xyz
  C  1.68945600 -0.33805200 -0.10263000
  H  2.44778726  0.43758878 -0.28246473
  H  2.26408142 -1.26454148 -0.02315940
  C  0.94830619 -0.35853131 -1.36872144
  C -0.46086487  0.01951237 -1.17513660
  H -1.04112002  0.04573786 -2.09932008
  C -1.06859250 -0.75029166  0.03295408
  H -2.14956444 -0.67620444  0.04391904
  H -0.75060799 -1.78365467  0.15509523
  C -0.38034707  0.30697686  0.92812370
  H -0.86229406  0.58966007  1.86690985
  C -0.48604326  1.27616098 -0.25876255
  H -1.45378490  1.76216428 -0.29008144
  H  0.31342228  1.99817324 -0.39002726
  N  1.01040830 -0.01724124  1.16525555
  H  1.06916066 -0.79017585  1.81448647
