15
opt_min/./Product_7358_0_opt.xyz
  C -1.37705600  0.39486700 -0.76678400
  H -2.00035669 -0.32573430 -1.27430865
  H -1.30950790  1.34816082 -1.26699628
  C -1.35036214  0.37434017  0.73671849
  H -1.23680389  1.31016061  1.25978502
  H -1.94998921 -0.36153259  1.24990757
  C -0.17897154 -0.11702956 -0.03792632
  C  0.45670264 -1.49071611 -0.14303449
  H  0.13449069 -2.11298107 -0.98241257
  H  0.43622077 -2.07139876  0.78544064
  O  1.74532250 -0.91454879 -0.36305201
  C  1.25225103  0.42591248 -0.09345280
  C  1.75076681  1.30220460  0.91141792
  H  2.72261101  0.97807476  1.30582313
  H  1.42650792  1.09637690 -0.96551794
