14
opt_min/./Product_573_0_opt.xyz
  C  2.05965600  0.14400500  0.28643500
  C  0.60393000 -0.27508113  0.44185105
  H  0.54821285 -1.05431368  1.24043483
  C -0.33542766  0.69898097  1.00917429
  C -1.52662464  0.59203516  0.14238454
  H -1.48685727  1.53019039 -0.42772720
  H -2.47010204  0.59477377  0.68619493
  C -1.29380840 -0.62458921 -0.77276020
  H -1.62798282 -0.48769804 -1.80228501
  H -1.79710101 -1.50948866 -0.34931096
  O  0.10228769 -0.81602151 -0.78304111
  H  2.62185707 -0.68366355 -0.13679186
  H  2.47319818  0.42220950  1.25118644
  H  2.12497501  0.99457040 -0.38718425
