8
opt_min/./Product_2732_0_opt.xyz
  O -0.90642138  0.17892055  1.39314118
  C -0.65318658 -0.21421642  0.09317364
  C  0.65745768 -0.60593333 -0.29556308
  C  1.77605841 -0.91194604 -0.60255865
  H  2.74041331 -1.20083242 -0.90014377
  H -1.48140412 -0.68197427 -0.43983139
  C -0.88516018  1.22385068  0.51096323
  C -0.92910995  2.35956513 -0.04211777
