11
opt_min/./Product_2403_0_opt.xyz
  C  2.33369800 -0.01181500  0.08389200
  N  1.22401222 -0.58158333  0.18164378
  C  0.01329710  0.16028436  0.17557970
  O -0.99347195 -0.67594912 -0.39733624
  C -2.23749739 -0.25276952 -0.28562539
  O -2.61456105  0.75139725  0.24423083
  H -2.90559053 -0.98732768 -0.77012682
  H -0.27570406  0.39548421  1.21124695
  H  0.05913110  1.10938397 -0.38609913
  H  3.21974162 -0.62744531  0.10376181
  H  2.47258345  1.06663924 -0.04850490
