10
opt_min/./Product_238_0_opt.xyz
  C -1.29984500  0.97956700  0.25700600
  H -2.10411169  1.68207058  0.44170508
  C -1.63847271 -0.36497444 -0.10209888
  N -0.52032671 -1.09755000 -0.29386676
  H -0.65668353 -2.07034962 -0.55336195
  C  0.74960181 -0.65303718 -0.17168280
  H  1.56906743 -1.33335088 -0.35041813
  C  0.93802791  0.65962701  0.17847783
  H  1.92703280  1.08132895  0.29374252
  N -0.09511136  1.48138771  0.39424910
