12
opt_min/./Product_3761_0_opt.xyz
  C -0.89098694 -0.72096391 -0.69229618
  C -0.29584212  0.07131276  0.47044305
  N  1.15429498  0.26286140  0.31158442
  C  1.87683930 -0.59806214 -0.32151411
  H  2.93296006 -0.27130993 -0.31515249
  H  1.47148932  1.12775589  0.76629133
  C -0.92843510  1.36930554  0.58626619
  N -1.40339853  2.40490009  0.67310639
  H -0.48407147 -0.47132874  1.41115030
  H -1.92978312 -0.97168316 -0.49721584
  H -0.83260118 -0.14552065 -1.61417269
  H -0.30257049 -1.62663599 -0.81683773
