8
opt_min/./Product_339_0_opt.xyz
  O  1.81673603 -0.17393108  1.08357493
  C  0.62430937 -0.47946351  0.67907880
  N -0.17561541 -1.36666897  0.30053895
  C -0.69477191  0.06680534  0.37883957
  C -0.91352763  0.78097383 -0.83388525
  N -1.07937104  1.36168958 -1.80594633
  H -1.38951536  0.30204707  1.18023636
  H  2.39183002 -0.95600224  1.11101627
