11
opt_min/./Product_1673_0_opt.xyz
  O -0.63350216 -0.42029518  1.46253988
  C  0.12492853  0.39145180  0.60552969
  C  0.71289164 -0.45020349 -0.55598795
  O -0.30448568 -1.20175953 -1.16780492
  H -0.85774138 -0.61956983 -1.70318474
  H  1.42751784 -1.17014424 -0.14969826
  H  1.22334797  0.20729543 -1.27194209
  C -0.68373515  1.46459438  0.03653219
  N -1.34023614  2.26673187 -0.44521080
  H  0.93341887  0.84263168  1.19569960
  H -1.05407665 -1.10602594  0.91867142
