13
opt_min/./Product_8346_0_opt.xyz
  O  0.21473866 -0.67565394  0.48486861
  C  0.60069928  0.57649998 -0.11832904
  C  0.93920673  1.63011557  0.80452938
  C  1.23776741  2.48463637  1.58821191
  H  1.49784192  3.24176426  2.26659716
  H  1.43242268  0.41073916 -0.81901805
  C -0.78419674  0.67685623 -0.80310816
  H -1.41046646  1.45210643 -0.36302944
  H -0.78700159  0.76618545 -1.88701058
  C -0.99391600 -0.67584400 -0.18145792
  C -1.93561986 -1.59454535 -0.19546582
  H -1.81443419 -2.50109288  0.37066502
  H -2.83017262 -1.46140079 -0.76775308
