10
opt_min/./Product_2622_0_opt.xyz
  O  2.15728732  0.58364189 -0.70208741
  C -28.37744698  88.15610915  76.83491102
  N -153.56626973 -75.55856895 -72.96186646
  C  85.08466100  60.12602646  38.65235813
  C  52.61133490  25.35476377  36.31777835
  H  40.92280060  21.98113961  15.83748943
  H -20.84597967 -9.34246494 -6.70984657
  H  22.79458322 -56.84967020 -52.93130832
  H  13.97208351 -120.52465438 -58.02858593
  H  104.24757778  46.17723193 -86.04913648
