16
opt_min/./Product_6828_0_opt.xyz
  C  2.20960200 -0.53027600 -0.25307500
  N  1.12144267  0.28998407  0.18892842
  C -0.19151950 -0.00362609  0.00994453
  C -0.89552168 -1.03308717 -0.48099459
  H -0.64256231 -1.97356627 -0.92701919
  C -2.22298242 -0.37224806 -0.20617553
  H -2.82195916 -0.12988403 -1.08377096
  H -2.85661462 -0.86533727  0.53037959
  C -1.39902868  0.81993951  0.35439250
  H -1.50677200  1.74696254 -0.20618205
  H -1.54496421  1.02239596  1.41231958
  O  1.46676625  1.55885429  0.66318506
  H  1.47050340  2.18775757 -0.07835238
  H  3.04139457 -0.42727481  0.44384030
  H  1.87366734 -1.56410218 -0.25779066
  H  2.55320788 -0.25780141 -1.25910822
