15
opt_min/./Product_8146_0_opt.xyz
  C  1.88031900  0.06908900  0.06465700
  C  0.38869747 -0.01254876  0.23294122
  C -0.59281349 -0.94834875 -0.52735030
  H -0.44095446 -1.74723681 -1.22402918
  C -1.61290423  0.16775109 -0.35549602
  H -2.51404268  0.33007642 -0.92499786
  C -1.57537076 -0.87605743  0.70822662
  H -2.39868882 -1.52922068  0.93261447
  C -0.21552920 -1.01668274  1.14622861
  C -0.53625196  1.18209663 -0.04117621
  H -0.73043404  1.85962130  0.79172363
  H -0.21864018  1.75329487 -0.91172923
  H  2.34465461  0.21022970  1.03789430
  H  2.15200146  0.89936178 -0.58415210
  H  2.26500207 -0.85215961 -0.36783927
