11
opt_min/./Product_9455_0_opt.xyz
  O  1.99275900  1.78134600  0.62493100
  C  0.87315458  1.15928322  0.37508798
  N  1.00455195 -0.11181724  0.02309072
  C -0.12737544 -0.94667249 -0.21254645
  H  0.07973171 -1.77249274 -0.88377648
  N -1.10743722 -1.16204364  0.90150673
  C -1.44954291 -0.39817504 -0.04571329
  O -2.37653333  0.36581179 -0.53765577
  H -3.11544821  0.46403847  0.08485809
  H  1.91966827 -0.57982883 -0.02783891
  H  2.80933442  1.23675444  0.55329049
