12
opt_min/./Product_5633_0_opt.xyz
  C -1.12429000 -0.59430300  0.41526800
  H -2.20204012 -0.62917367  0.39394473
  H -0.66936498 -1.26294777  1.12819922
  C -0.46009481  0.73348178  0.13884889
  H -1.04391289  1.63844318  0.09329289
  C -0.45429632 -0.36551791 -0.91071635
  H -1.02299204 -0.37518356 -1.82894052
  O  0.85279906 -0.82607834 -1.07473153
  C  1.62051867 -0.15547029 -0.17110039
  H  2.65772109 -0.43214211 -0.14139459
  C  0.96726895  0.78069665  0.52061238
  H  1.39021140  1.46846155  1.22440215
