11
opt_min/./Product_3109_0_opt.xyz
  C -0.18219303 -1.95355900 -0.18328398
  C  0.42227492 -0.60357768  0.15800728
  C -0.40659265  0.50501197 -0.22080478
  N -0.03278541  1.71234306  0.01846690
  C  0.42776523  2.74600051  0.29886925
  H  0.83164552  3.67924241  0.53838069
  H -1.35357809  0.35059573 -0.70516733
  O  1.50556407 -0.49098864  0.70922974
  H  0.53778265 -2.73850161  0.02832464
  H -0.46362680 -1.99109880 -1.23279459
  H -1.07132577 -2.11582019  0.42277539
