14
opt_min/./Product_4959_0_opt.xyz
  O  0.17440800  1.16436600  0.15444300
  C  1.11573760  0.16388289  0.06484625
  C  2.38837490  0.23169844 -0.26677690
  H  2.98607847 -0.65992230 -0.28852060
  H  2.86519080  1.15945102 -0.51991023
  C  0.16330164 -0.93661724  0.46342273
  H -0.01044484 -1.71071841 -0.27561861
  H  0.38162308 -1.38108344  1.42849224
  C -0.85921320  0.21864784  0.49474274
  C -1.97035549  0.17952462 -0.53918908
  H -2.38439768  1.17681593 -0.65673597
  H -2.75749491 -0.49480622 -0.21848954
  H -1.58338826 -0.14599927 -1.49981645
  H -1.27212823  0.44283440  1.48289228
