16
opt_min/./Product_1891_0_opt.xyz
  C -0.82097200 -0.41409900 -0.71818000
  C  0.05737625  0.32560895  0.28878717
  C  1.38105660 -0.39028181  0.53552401
  O  2.16235554 -0.40082634 -0.68141876
  C  3.07209077  0.42540537 -0.94502913
  H  3.25113997  1.16379680 -0.11915641
  H  1.21318072 -1.43448885  0.80555072
  H  1.95098875  0.11516741  1.32290155
  H  0.26547827  1.33410569 -0.07748621
  H -0.46912487  0.41574178  1.24163335
  C -2.12209870  0.33543198 -0.97554256
  H -2.64847878  0.51703523 -0.04170345
  H -1.92160023  1.29683590 -1.44260874
  H -2.76990648 -0.23693107 -1.63278264
  H -1.04043389 -1.41455572 -0.34243647
  H -0.26957601 -0.52491824 -1.65366209
