7
opt_min/./Product_6768_0_opt.xyz
  C -1.11052900 -0.33641500 -0.02140900
  N -0.08628404 -0.00045725 -0.64514693
  C  1.16222999  0.42132036 -0.37067992
  O  1.51287522  1.55147917 -0.17067857
  H  1.87098537 -0.42255505 -0.52085571
  H -1.18008402 -0.37489510  1.06427429
  H -1.99160549 -0.62231384 -0.58207610
