11
opt_min/./Product_5885_0_opt.xyz
  C  1.28105500  0.12042400 -0.11335600
  C -0.10467146 -0.16605081  0.45601044
  H -0.05746413 -0.15112171  1.54965908
  N -0.60508529 -1.46427649  0.05621796
  N -1.67657921 -1.35445782 -0.52327747
  N -2.10480881 -0.02222332 -0.62862699
  C -1.21482075  0.70066457 -0.07523587
  H -1.27951362  1.76900627 -0.01369556
  H  1.25699355  0.07938596 -1.20115453
  H  1.98742448 -0.61583207  0.26027515
  H  1.60643846  1.11245456  0.19620832
