12
opt_min/./Product_1270_0_opt.xyz
  C -2.00002509 -0.05301948  0.55621052
  C  9.81877198  2.73915265  12.25462725
  C -0.49092851 -8.77600119  12.89567922
  N -3.60658591  4.10011096  8.70215937
  C  13.47910742 -7.47757914 -5.13527807
  N  3.98588326  0.11484677 -19.03296342
  H  5.10068861  3.06810945 -2.79696238
  H -1.35940124  6.49179294  3.84130885
  H -48.08978420 -13.39085814 -13.24095621
  H  0.75882189 -15.27069723 -15.44519576
  H -6.52731085  3.27333802 -3.61593806
  H  3.74924163 -5.95183543 -8.82180314
