16
opt_min/./Product_10298_0_opt.xyz
  C -2.11063500 -0.52679800  0.09527600
  N -1.12384258  0.34316804 -0.53094455
  C  0.19092991  0.31223220  0.08013074
  H  0.14619427  0.52245078  1.16884425
  C  1.20305583  1.29642965 -0.53794751
  H  1.34348205  2.21224818  0.04208353
  H  0.87201663  1.59353864 -1.53716247
  C  2.48512036  0.56553453 -0.71491225
  C  2.13695566 -0.82786511 -0.58755037
  H  2.84124227 -1.62211401 -0.77513466
  C  0.89257577 -0.99572695 -0.09588216
  H  0.41632037 -1.92247261  0.18487855
  H -1.46107114  1.30088230 -0.54894289
  H -2.21555590 -1.43804062 -0.50099674
  H -3.08030291 -0.03673765  0.14611442
  H -1.82175256 -0.82127414  1.11248794
