12
opt_min/./Product_11613_0_opt.xyz
  N -1.44300100 -0.56126400 -0.25509100
  C -0.26231721 -0.00908788  0.36692464
  H -0.43137290  0.00638347  1.45050998
  C  1.10344322 -0.61179216  0.01575591
  H  1.05143663 -1.38685747 -0.75514207
  H  1.63628119 -1.05049359  0.86223152
  C  1.93057683  0.51575376 -0.53326628
  O  1.21852433  1.59086154 -0.56026470
  C -0.09576516  1.44785206 -0.07162750
  O -0.85558873  2.35565233 -0.05235471
  H -1.36232067 -0.60452971 -1.26458582
  H -1.66563185 -1.48353795  0.09796903
