16
opt_min/./Product_8005_0_opt.xyz
  C  3.20491903 -1.50344267  0.77216588
  C  2.04995952 -0.65165293  0.55968935
  C  1.09724661  0.06706887  0.41762075
  N  0.03324358  0.85723867  0.26974323
  C -1.28138482  0.34155430 -0.02941611
  C -1.86800561  0.96394350 -1.26220083
  C -2.44419231  0.29633852 -2.24208014
  H -2.53011480 -0.77792009 -2.22896969
  H -2.86410519  0.79243437 -3.10183890
  H -1.79672236  2.04472005 -1.30811839
  H -1.20119442 -0.74133437 -0.15829028
  H -1.96190945  0.53808946  0.81831520
  H  0.18436929  1.84778414  0.17247377
  H  4.04899531 -1.14842269  0.17897684
  H  2.95523970 -2.51849200  0.45220416
  H  3.49679215 -1.52214793  1.82304170
