19
opt_min/./Product_11138_0_opt.xyz
  C -3.18784100  0.32707100 -0.40797400
  C -1.78702893  0.31701121  0.18704681
  O -0.97938722 -0.52781563 -0.60689442
  C  0.28552611 -0.80988447 -0.06919124
  C  1.27192394  0.36743638 -0.12544489
  C  2.62932478 -0.05923157  0.33260284
  C  3.72484121  0.00289314 -0.40348976
  H  3.70512621  0.37886710 -1.41292312
  H  4.68196872 -0.31331801 -0.02605523
  H  2.67259193 -0.44568583  1.34356314
  H  1.32094431  0.74326098 -1.14737777
  H  0.91611512  1.17225266  0.51993329
  H  0.67139017 -1.63312216 -0.67116874
  H  0.18362318 -1.15217078  0.97074675
  H -1.38197105  1.33805853  0.21236058
  H -1.81472041 -0.06215867  1.22183261
  H -3.19738495  0.86434712 -1.35017565
  H -3.50578003 -0.69343457 -0.59286456
  H -3.88287717  0.79905141  0.27752387
