8
opt_min/./Product_3776_0_opt.xyz
  N -1.22104772  0.31193879  1.01983784
  C -0.73644242 -0.77780136  0.60297495
  N  0.57823367 -0.92827614  0.36106490
  C  1.66766231 -0.41252271  0.38949964
  N  2.86776754 -0.37764320  0.34952255
  H  3.51988875  0.32574863  0.61558099
  H -1.30368902 -1.63854068  0.22261062
  H -2.23526791  0.34438822  1.02763481
