11
opt_min/./Product_2690_0_opt.xyz
  C -0.88322500 -0.34915600  0.27029700
  H -1.78165621 -0.28245688 -0.34895060
  H -1.17304901 -0.67918349  1.27104654
  C -0.06068751  0.92589458  0.26904179
  H -0.51171768  1.72866288 -0.31176889
  H  0.14024593  1.30433075  1.27079087
  C  1.27653859  0.51602958 -0.38014502
  O  2.18843269  1.26728794 -0.58062709
  C  1.22035692 -0.96615096 -0.69779727
  N  0.04027896 -1.32848944 -0.31797403
  H -0.27363932 -2.28573861 -0.41687165
