16
opt_min/./Product_1509_0_opt.xyz
  C  2.48043400  0.44576700 -0.77341500
  C  1.04033299  0.74049871 -0.76259654
  C  0.21527408 -0.22232441 -0.02975699
  H  0.74513180 -1.02676201  0.50253162
  C -0.87497974  0.47904007  0.83275881
  H -0.76311694  1.56019805  0.86259023
  H -0.91589998  0.09289368  1.84787396
  C -1.97860011 -0.02647035 -0.10335002
  H -2.50441896  0.76559030 -0.62790481
  H -2.70808807 -0.68114063  0.36914960
  C -0.92797347 -0.75017670 -0.94948401
  H -0.99401747 -1.83443607 -0.94748876
  H -0.85059635 -0.39498666 -1.97444734
  H  2.93045314  0.71133704 -1.72900900
  H  2.78841594 -0.55679355 -0.44997510
  H  2.87792415  1.16060551 -0.04470575
