8
opt_min/./Product_1125_1_opt.xyz
  O -1.44469800  0.15890000 -0.63991100
  C -0.54476730 -0.73292335  0.03392108
  H -0.83752144 -1.69688975  0.37020737
  C  0.68287861  0.06311663 -0.32501780
  H  1.56928824 -0.08291383  0.28359275
  H  0.88621047  0.29710662 -1.36232736
  C -0.52995029  0.65345531  0.34953410
  H -0.80409454  1.38312493  1.07076133
