12
opt_min/./Product_6794_0_opt.xyz
  O  2.67353800  0.35893800 -0.49745800
  C  1.62203816  0.30933047  0.06178846
  C  0.29842101 -0.06257944 -0.57936854
  H  0.49718473 -0.51168203 -1.55597399
  C -0.61138620 -0.91149428  0.34700565
  H -0.13766308 -1.13998301  1.30521608
  H -0.94554549 -1.83787788 -0.12327380
  O -1.74497628 -0.07219927  0.58355979
  C -1.51788974  1.05569604 -0.09662915
  H -2.28415445  1.81246495 -0.03753519
  N -0.45933163  1.17201947 -0.76725261
  H  1.51719815  0.55613119  1.14207037
