11
opt_min/./Product_1845_0_opt.xyz
  N -1.40687200 -0.77095000  0.90448600
  H -2.23463088 -1.02235331  0.36085603
  H -1.65023136 -0.38188835  1.81708247
  C -0.15972536 -0.30451235  0.19958670
  C  0.18001838  0.83625204 -0.43744733
  C  1.46775902  0.99911504 -1.02452370
  O  1.86000761  1.98817292 -1.61599502
  H  2.11907302  0.10887862 -0.89414509
  H -0.52034634  1.65198179 -0.51563347
  C -0.14933293 -1.51911188  0.72910107
  H  0.21197411 -2.46987343  1.00446871
