14
opt_min/./Product_11490_0_opt.xyz
  C -1.28532102 -0.65719904  0.43901987
  C -0.33351727 -0.21593571 -0.67982134
  C -0.67699214  1.11980491 -1.11749746
  N -0.94783542  2.17233250 -1.47001261
  C  1.14239710 -0.24959927 -0.24236911
  C  1.46247455  0.67850550  0.89670249
  O  0.69920810  1.41884449  1.44432257
  H  2.53008217  0.63667507  1.20070758
  H  1.79041096  0.02382675 -1.08064646
  H  1.42062228 -1.26407524  0.05317930
  H -0.44853456 -0.88350281 -1.54239085
  H -2.28114852 -0.83578629  0.04294343
  H -0.92107974 -1.57492410  0.89494993
  H -1.34943627  0.10890860  1.20588921
