14
opt_min/./Product_6857_0_opt.xyz
  C  2.59978200 -0.27329600 -0.20423800
  C  1.29173762 -0.02349910 -0.15603307
  C  0.22925552 -0.81906353  0.41929743
  H  0.38401427 -1.75943516  0.90668353
  C -0.93365004 -0.17073622  0.23082616
  N -2.20054848 -0.50064324  0.60131025
  H -2.37786400 -1.40656548  0.99320721
  H -2.97858745  0.05373318  0.29899789
  C -0.64696630  1.11381547 -0.49942169
  H -0.94061119  1.99567188  0.08792883
  H -1.15832258  1.16378521 -1.47102025
  O  0.74797067  1.12425948 -0.70013366
  H  3.27981487  0.41403845 -0.66924682
  H  2.99718414 -1.17226432  0.22526360
