10
opt_min/./Product_6297_1_opt.xyz
  C -0.40429200 -0.78149800 -0.42638100
  C -1.20898869  0.25929959  0.27749483
  H -1.02408470  1.24709263 -0.15335562
  H -0.94167564  0.31165204  1.33722126
  H -2.26485291  0.02917728  0.19591828
  O  0.88258222 -0.76488387 -0.49702087
  C  1.70022042  0.11700250 -0.01717106
  H  2.73863010 -0.06031141 -0.21193677
  H  1.37420662  0.97687005  0.53890869
  H -0.87139199 -1.62679428 -0.89936524
