16
opt_min/./Product_8295_0_opt.xyz
  C  1.20113600  1.23102100  0.66570800
  C  0.29825971  0.20156642  0.00236829
  C  0.97613224 -0.49465158 -1.16460401
  H  0.24974333 -0.88285701 -1.87268441
  H  1.60734551  0.21980284 -1.68834734
  H  1.59380834 -1.31800917 -0.80974251
  C -1.16661122  0.55166342 -0.02203885
  H -1.66148791  1.48529004  0.12368503
  C -1.72306191 -0.83158111 -0.10676078
  H -1.49929268 -1.47846929 -0.94521432
  H -2.73426705 -0.98069452  0.26129861
  C -0.66883817 -0.50393236  0.90684011
  H -0.67542547 -0.61067960  1.96817373
  H  0.96826317  1.32405431  1.72652728
  H  2.24737977  0.95036713  0.56758897
  H  1.06614744  2.21024840  0.20438453
