9
opt_min/./Product_7516_1_opt.xyz
  O -1.15016007 -0.05166751 -0.67011556
  C -0.33375775 -0.92336270  0.13208075
  H -0.86351256 -1.21653931  1.03947751
  H -0.00731675 -1.80354105 -0.41664546
  C  0.69549262  0.20298993  0.32730727
  H  1.64755262  0.05370593 -0.17304444
  H  0.86567728  0.54794029  1.34070358
  C -0.30548034  0.99661015 -0.49769534
  O -0.38370009  2.11062190 -0.89760913
