11
opt_min/./Product_1674_0_opt.xyz
  O  2.00381094  1.49603891  0.08397060
  N  1.63355783  0.17112887 -0.13916464
  C  0.34787826 -0.19012319  0.11466281
  C -0.35863342 -1.25430911  0.51961791
  H -0.16662459 -2.26553677  0.79143134
  C -1.59062751 -0.40538427  0.36239747
  H -2.28358319 -0.68171855 -0.43204250
  H -2.13569226 -0.11880674  1.26156534
  O -0.72696775  0.67857329 -0.05780679
  H  2.19877459 -0.28975818 -0.83607849
  H  1.51532768  2.07784707 -0.52643298
