14
opt_min/./Product_171_0_opt.xyz
  C  0.53418500 -0.90241100  0.28730700
  H  0.29437432 -1.09630106  1.32946106
  H  0.87722105 -1.82099425 -0.17408397
  C  1.53690963  0.24302153  0.15411184
  H  2.26904955  0.26247651  0.96097959
  H  2.07268263  0.18307438 -0.80219807
  O  0.78940379  1.45310094  0.19341717
  C -0.58592187  1.17552547  0.02911849
  H -1.00765316  1.85830856 -0.71445318
  H -1.11777506  1.31958220  0.97781625
  C -0.70439544 -0.30777679 -0.38798433
  O -1.87749787 -0.92793605  0.06959384
  H -2.60770496 -0.71954787 -0.51832291
  H -0.60970636 -0.39004546 -1.47796431
