13
opt_min/./Product_8568_0_opt.xyz
  N  2.24796500  1.00747400  0.79623200
  C  1.16117510  0.54861810  0.35554190
  O  0.05688862  1.27385909  0.46814673
  C -1.08933660  0.79783321 -0.23602408
  H -1.92144737  1.40021568  0.13371813
  H -0.95883166  0.99056345 -1.30775410
  C -1.29666822 -0.69147941 -0.01273733
  H -2.14401271 -1.04989163 -0.59752624
  H -1.49475829 -0.90172388  1.04469599
  C -0.06055629 -1.47440466 -0.36669729
  N  1.02983088 -0.75203412 -0.21610295
  H  1.91690642 -1.20972078 -0.40370125
  H  3.05016180  0.39570791  0.70094857
