9
opt_min/./Product_617_1_opt.xyz
  O -0.84516400  1.22176800 -0.33924800
  C -0.66924217 -0.16917273 -0.28873623
  C  0.60749099 -0.60722640  0.40847486
  C  1.78537874 -0.31461344 -0.04228444
  O  2.84929938 -0.03234331 -0.41594842
  H  0.51237918 -1.20191760  1.29758737
  H -1.51197761 -0.64983903  0.22516063
  H -0.68081499 -0.48692563 -1.33376212
  H -0.83614270  1.58721639  0.55229365
