8
opt_min/./Product_4007_0_opt.xyz
  O  2.25411100  0.18487200 -0.09253600
  C  1.10260514 -0.13151458 -0.02467905
  N  0.04047979  0.71599463  0.36781817
  H  0.07537849  1.68224588  0.64277539
  N -1.08879710 -0.05867388  0.29990170
  H -2.02231500  0.25160981  0.51902544
  N -0.76020820 -1.25643924 -0.09242854
  N  0.47815598 -1.34486327 -0.28953045
