10
opt_min/./Product_5029_1_opt.xyz
  C -1.14320000 -1.19844100  0.17272100
  C -1.37182449  0.24417606  0.38739477
  H -2.22151013  0.73063661 -0.06230966
  H -1.14340985  0.60707102  1.37923388
  C -0.25597709 -0.21776409 -0.50164787
  C  1.19580251 -0.15554677 -0.07164217
  H  1.54743420 -1.11666913  0.29340077
  H  1.82920068  0.14998593 -0.89973947
  H  1.32165603  0.57237248  0.72668355
  H -0.41189804 -0.08118721 -1.56161094
