14
opt_min/./Product_7893_0_opt.xyz
  C  0.33372100  1.23638800  0.60713900
  C  0.30908500 -0.12467359 -0.05893098
  C  1.67875638 -0.70843390 -0.23285477
  O  2.06200082 -1.77321812  0.14561499
  H  2.35294282 -0.00270614 -0.76903530
  N -0.76370842 -1.09024787  0.16689948
  O -1.79606689 -0.74051570  1.02634686
  H -2.26018601  0.05439731  0.71076874
  C -0.70386071 -0.42970235 -1.10999238
  H -0.44812818 -1.06459401 -1.94650041
  H -1.44630770  0.33560430 -1.33285843
  H  0.50279063  2.02561125 -0.12497932
  H -0.60390577  1.43063336  1.12551131
  H  1.13650202  1.26835692  1.34143193
