12
opt_min/./Product_11241_0_opt.xyz
  C -1.90142900 -0.01272000 -0.11764500
  C -0.44819279  0.11028098 -0.42867055
  C  0.53429954 -0.17942652  0.40671677
  C  1.98855302 -0.05002526  0.09725452
  H  2.49577349 -0.99991342  0.26502561
  H  2.44896564  0.69156143  0.75292614
  H  2.14132019  0.25322954 -0.93606624
  H  0.30151351 -0.53759192  1.40379949
  H -0.21604616  0.46717772 -1.42560133
  H -2.38564550 -0.67449569 -0.83777033
  H -2.38326467  0.96363461 -0.18846061
  H -2.05635229 -0.40710781  0.88501372
