13
opt_min/./Product_3737_0_opt.xyz
  C  1.30466000  0.02055800  0.89082600
  H  1.57707563  1.06244054  1.11754134
  N  1.27038202 -0.10653232 -0.64389883
  H  1.52386739 -1.01401200 -1.02013057
  H  1.46706446  0.66340479 -1.27989686
  C  0.03894195 -0.02277140  0.14895804
  C -1.05383390 -1.08302805  0.13833593
  H -1.06027972 -1.75805275 -0.72383360
  H -1.16132254 -1.66154942  1.05703945
  O -2.04750477 -0.05894994  0.00868378
  C -1.07824478  0.98199767 -0.16156415
  H -1.08601524  1.38156062 -1.18175879
  H -1.21094359  1.79826989  0.55170744
