11
opt_min/./Product_2527_0_opt.xyz
  C  2.03918501  0.21136201  0.21199893
  N  0.90854367 -0.36064457  0.06115412
  C -0.29967074  0.20483213  0.00328920
  N -1.32559655 -0.90889616 -0.17845083
  H -0.73850348 -1.75178698 -0.23613651
  H -1.97340122 -0.99022393  0.61412665
  H -1.87429427 -0.80041418 -1.03907603
  C -0.76583619  1.48868564  0.05455329
  N -1.14178935  2.58573445  0.10362916
  H  2.90753995 -0.42654258  0.23391011
  H  2.18718339  1.28177641  0.32118117
