13
opt_min/./Product_10037_0_opt.xyz
  N  2.24234200 -0.35407100 -0.50819100
  C  0.90789236 -0.15351450 -0.34340748
  N  0.03835974 -1.09896834 -0.32383530
  C -1.24705661 -0.50940911 -0.04560279
  O -1.94391569 -1.13560028  0.98701453
  H -1.30212538 -1.41775015  1.64893637
  H -1.87551845 -0.62970263 -0.94462240
  C -0.96557472  0.97310359  0.15690477
  H -1.74386060  1.66653426  0.40860620
  C  0.33108320  1.17151976 -0.06166568
  H  0.90044244  2.08145955 -0.02702052
  H  2.75920425  0.33651187 -1.02983200
  H  2.48907697 -1.30788707 -0.73254186
