11
opt_min/./Product_6061_0_opt.xyz
  C -0.98949800  1.05347000 -0.07773100
  C -0.17863268  0.00640427  0.03523094
  C  1.29895948  0.09231614 -0.20819446
  H  1.84675820 -0.13237896  0.70848251
  H  1.57327276  1.09248813 -0.53715004
  H  1.60701442 -0.62101802 -0.97485694
  N -0.61101169 -1.24267321  0.46064604
  H -1.59543290 -1.42912512  0.33722969
  H -0.01403398 -2.01789098  0.21338104
  H -2.04661784  0.97245948  0.10541458
  H -0.61619889  2.02207914 -0.34934559
