15
opt_min/./Product_8498_0_opt.xyz
  C  2.14594600  0.13197500  0.25269700
  C  0.95939546  0.58228594  0.63146052
  C -0.29747539  0.26652948 -0.03807070
  C -1.46860997  1.22062266 -0.13473388
  H -1.44943833  2.05725766  0.54646443
  H -1.89217875  1.44352210 -1.10237552
  C -1.66869610 -0.12487054  0.47671373
  H -2.07893600 -0.32471880  1.45263034
  O -1.82615631 -1.11966253 -0.51929495
  C -0.53009768 -0.83527787 -1.06594139
  H -0.56930485 -0.53324787 -2.11524638
  H  0.12926040 -1.69674086 -0.94657326
  H  0.86727081  1.23890492  1.48752218
  H  2.26004841 -0.51535481 -0.59996557
  H  3.04424552  0.40109724  0.77583564
