15
opt_min/./Product_9080_0_opt.xyz
  C  2.50313300 -0.16300100  0.56031800
  N  1.22955250  0.07203444  0.37419014
  C  0.76618205  1.13811989 -0.44227491
  H  1.45397094  1.79119187 -0.93932534
  C -0.56258707  1.12342065 -0.43626255
  H -1.22613651  1.79093590 -0.94687303
  C -0.98499631 -0.03927443  0.41684253
  C -1.79851614 -1.07710341 -0.38086056
  H -2.75608151 -0.66080772 -0.67466952
  H -1.95308434 -1.94764764  0.24494698
  H -1.23928540 -1.37573895 -1.26068395
  H -1.59312655  0.28299693  1.27100046
  N  0.25270910 -0.60228675  0.89141237
  H  2.80388068 -0.97854594  1.18319863
  H  3.23104268  0.47034595  0.09173205
