14
opt_min/./Product_4231_0_opt.xyz
  C -0.19353700  1.06838300  0.48563500
  H -0.14162350  1.37899762  1.53017153
  H  0.33601565  1.83476943 -0.09345066
  C -1.56594577  1.09976296 -0.06044677
  C -1.69524926 -0.20648052 -0.71895799
  H -2.39870196 -0.69232606 -0.00199070
  H -2.16035301 -0.22889793 -1.70487002
  O -0.46117513 -0.88634716 -0.78835362
  C  0.38724115 -0.34310375  0.21623371
  C  1.82265285 -0.34952209 -0.28081913
  H  2.06878137 -1.34067915 -0.65605112
  H  1.94270080  0.36288270 -1.09569184
  H  2.50651947 -0.09357813  0.52602282
  H  0.29718777 -0.94836450  1.13392306
