19
opt_min/./Product_7440_0_opt.xyz
  C  2.82372000  0.11062500  0.14258400
  C  1.55811745 -0.34706277 -0.56886246
  C  0.31985959 -0.11234793  0.29474502
  C -0.92394973 -0.52394284 -0.45211904
  H -0.83096699 -1.50259005 -0.91697458
  C -2.35245079 -0.27009649  0.13834356
  C -2.44387515  0.28566361  1.42904577
  H -1.83149737  1.20191444  1.52368099
  H -3.04031877 -1.09321432 -0.05547200
  C -1.79837747  0.44995726 -1.10449112
  H -2.26202540  0.19326531 -2.04824406
  H -1.56475907  1.50098725 -0.98983315
  H  0.26748038  0.94650994  0.56326015
  H  0.40606282 -0.68630545  1.22148211
  H  1.45061199  0.19577566 -1.51248480
  H  1.64200950 -1.41171471 -0.80717769
  H  2.76681652  1.17033266  0.38735176
  H  3.69801486 -0.05317970 -0.48461952
  H  2.96014130 -0.44227975  1.07172636
