11
opt_min/./Product_11305_0_opt.xyz
  N -1.54756800  0.21297700  0.07844500
  H -2.53846399  0.01033221  0.08942096
  C -1.26288035  1.52251959  0.22018016
  O -0.13513296  2.05577483  0.24272857
  N  1.26815705  1.47947746  0.12722602
  C  1.47838887  0.25289442 -0.02210216
  H  2.54239271  0.02480866 -0.08549292
  C  0.60678051 -0.91404817 -0.12692383
  H  1.10971495 -1.86044670 -0.25398275
  C -0.72779468 -0.90627773 -0.07964068
  H -1.28274581 -1.83288110 -0.16764076
