10
opt_min/./Product_6153_1_opt.xyz
  O  2.26228300 -0.09626500 -0.08964300
  C  0.93916148 -0.40924534 -0.09930618
  C -0.06062261  0.45609828 -0.06142931
  C -1.50113958  0.06981282 -0.07351522
  H -2.00969503  0.45147657  0.81283165
  H -2.00253763  0.49305264 -0.94573489
  H -1.61110141 -1.01207776 -0.10005176
  H  0.15040807  1.51819292 -0.01894048
  H  0.79429153 -1.47924160 -0.14239838
  H  2.36831211  0.86243582 -0.04369869
