19
opt_min/./Product_10325_0_opt.xyz
  C -1.43530700  0.91877400 -0.96922200
  C -1.01274905 -0.01334135  0.16389823
  C -1.90027564 -1.25402943  0.19400797
  H -2.94172983 -0.97235436  0.35116091
  H -1.83133884 -1.79288979 -0.75225437
  H -1.60433807 -1.92752337  0.99848472
  C  0.45596042 -0.41172926  0.01366950
  C  1.42090572  0.70262295  0.36040639
  C  2.87695606  0.34085896  0.17376542
  H  3.17762330 -0.30708642  0.99985135
  H  3.02845129 -0.19505120 -0.76113021
  H  3.49274013  1.23732041  0.19801453
  O  1.07432575  1.77633370  0.78015346
  H  0.69356927 -1.24847080  0.68049405
  H  0.65228784 -0.73900957 -1.01140409
  H -1.12337615  0.52919865  1.11055004
  H -1.34400029  0.41043723 -1.92975559
  H -0.80975612  1.80867297 -0.97559729
  H -2.47139126  1.22756146 -0.83731202
