14
opt_min/./Product_2334_0_opt.xyz
  O  1.48894300 -0.04573600  0.91165900
  C  2.55539762  0.69403357  0.87558225
  H  3.20964636  0.28882183  1.67885912
  C  0.45597024  0.29180378 -0.00815339
  H  0.85373727  0.99009026 -0.74908453
  C -0.84697833  0.74155627  0.68273380
  H -1.19988158  1.71932404  0.37518361
  H -0.77518921  0.70135013  1.76595973
  C -1.58736991 -0.45966964  0.06808398
  H -2.01084582 -1.14928812  0.79364792
  H -2.36247947 -0.20065503 -0.64709336
  C -0.27014641 -0.94286088 -0.56799623
  H -0.27444751 -1.00766131 -1.65145983
  H  0.11035977 -1.87412337 -0.15683928
