16
opt_min/./Product_2564_0_opt.xyz
  C -1.17674500  1.07733000 -0.99875400
  C -0.33730608 -0.15444426 -0.66852737
  C -0.93256554 -0.93496729  0.50025560
  H -0.96444847 -0.32728423  1.40031689
  H -1.95423501 -1.23184136  0.27185985
  H -0.36014819 -1.83263462  0.70606936
  C  1.10318267  0.26050830 -0.36564339
  O  1.95933141 -0.90727175 -0.28713950
  C  2.98688092 -0.99075284  0.43017483
  H  3.18310059 -0.08133277  1.04648839
  H  1.48554291  0.90397830 -1.16481742
  H  1.16757769  0.81981560  0.57725053
  H -0.30662586 -0.80598690 -1.54722722
  H -2.19727750  0.78553294 -1.22850572
  H -1.20514925  1.75678093 -0.15036789
  H -0.76556416  1.60474122 -1.85168846
