16
opt_min/./Product_8575_0_opt.xyz
  C -1.25465800 -1.46056300 -0.22258000
  C -0.63227673 -0.12117039 -0.15117611
  C  0.76264766  0.28159245 -0.52254160
  C  1.87692078 -0.58763085  0.08444790
  H  1.46948546 -1.34628199  0.74793990
  H  2.54751497  0.04955764  0.65318007
  H  2.45370511 -1.08970962 -0.68826307
  H  0.83014693  0.22162950 -1.61364165
  C  0.86922385  1.77192792 -0.19400331
  C -0.39050486  2.07646915  0.23413470
  H -0.79270983  3.01452236  0.57188130
  N -1.23748364  0.96662267  0.25285506
  H -2.21073344  0.99518799  0.54673968
  H -2.34093172 -1.38728192 -0.27137957
  H -0.99263935 -2.05195403  0.65861433
  H -0.89324277 -2.00562146 -1.09298882
