11
opt_min/./Product_1469_0_opt.xyz
  C  1.39175800 -0.31324600 -0.05785500
  C  0.13160901  0.50229416  0.20490802
  H  0.38688079  1.57031307  0.27641289
  O -0.77980282  0.37368307 -0.95103212
  C -1.93341744  0.04949516 -0.42364140
  H -2.76577576 -0.08165517 -1.09461972
  C -1.78086277 -0.34897913  0.94110587
  N -0.56150137 -0.07913054  1.28336033
  H  1.12869621 -1.35876421 -0.19909527
  H  1.89857221  0.06179277 -0.94251536
  H  2.04063568 -0.22590390  0.80859041
