12
opt_min/./Product_11821_0_opt.xyz
  O  2.87451204  0.55709695 -0.55956457
  C -43.90407173  21.47383894  6.32560572
  C  27.49155216  65.90323105  33.53865465
  C  8.19496799  21.30862079  1.10116335
  N -36.83057833 -18.50563436 -19.48039477
  C -13.97117621  7.04317222 -20.86678979
  C -1.72755696 -18.73173351  39.78625660
  H  6.81579709 -2.30159548  11.47028868
  H  19.17577525  0.23843447 -6.73059759
  H  19.16072580 -16.15626173  25.60009698
  H  12.40083200 -28.91111355  40.86934505
  H -10.53086920 -3.92261101  23.77808313
