10
opt_min/./Product_1500_1_opt.xyz
  O  2.38111800  0.38156000 -0.14165100
  C  1.20384147  0.19054688  0.01426857
  C  0.09092388  1.18422450 -0.11751411
  H  0.23841531  2.21325047 -0.37601875
  C -1.06014542  0.55702574  0.13965798
  H -2.04365804  0.98998821  0.12903959
  C -0.79121600 -0.86119583  0.45161149
  H -1.55564150 -1.57824991  0.69385679
  C  0.52280121 -1.09318064  0.38342389
  H  1.03312582 -2.01776514  0.55535244
