11
opt_min/./Product_9461_1_opt.xyz
  O -2.19397300  1.04647300 -1.45598400
  C -1.59295232  0.42311753 -0.64461420
  C -1.54958984 -0.72632557  0.25979466
  H -2.09460347 -0.73295620  1.19153855
  H -1.44833273 -1.69860832 -0.20358701
  C -0.35418132  0.22890476  0.13092343
  O  0.80759468 -0.25326179 -0.51862493
  C  1.97501929  0.22097890 -0.11148601
  O  2.16399743  1.00536916  0.76804970
  H  2.76203266 -0.24923837 -0.72675477
  H -0.12285574  0.89861662  0.95538700
