13
opt_min/./Product_5902_0_opt.xyz
  C -1.67961500  0.61283600  0.31768100
  C -0.79349049 -0.44900556 -0.34517213
  C  0.01803533 -1.08395669  0.74814486
  O  1.26522556 -0.88471914  0.82461473
  C  2.07462211 -0.09365174 -0.09224648
  H  2.08165331 -0.54986118 -1.08154442
  H  3.07909756 -0.09471443  0.32336137
  H  1.70113981  0.92774499 -0.15154349
  H -0.21864625  0.00427603 -1.16323644
  H -1.44085958 -1.22245698 -0.76390378
  H -1.07428635  1.42029485  0.72577000
  H -2.24920920  0.16544848  1.12653683
  H -2.36723869  1.03459331 -0.41189296
