13
opt_min/./Product_5502_0_opt.xyz
  C -1.86429200 -0.53297400  0.28800300
  C -0.41729284 -0.24685401  0.14152201
  N  0.50586735 -1.10787674  0.18438792
  C  1.75692596 -0.44906211 -0.02261387
  H  2.47441060 -0.68130362  0.77235072
  H  2.17557599 -0.81052973 -0.97875797
  O  1.51818471  0.95287808 -0.03383759
  C  0.12509488  1.14133825 -0.11790807
  H -0.19641231  1.47904420 -1.11916667
  H -0.17661917  1.89499628  0.61408722
  H -2.46735039  0.30396542 -0.05260835
  H -2.09213746 -0.74163952  1.33507364
  H -2.11945687 -1.42717532 -0.27824074
