15
opt_min/./Product_6711_0_opt.xyz
  O  2.56117900  0.05710600 -1.13979900
  C  1.54511629  0.59202244 -0.36057058
  C  0.72027206 -0.47496967  0.40078950
  H  1.41146047 -1.12122806  0.95488341
  O -0.25228709  0.11786112  1.26243813
  C -1.27939326 -0.55452430  0.50021536
  C -2.32726244  0.36914254 -0.10889913
  H -1.81431192  1.21571979 -0.55996158
  H -3.00893845  0.72945860  0.65199616
  H -2.85294886 -0.18044737 -0.88349991
  H -1.75968744 -1.32403993  1.11388487
  C -0.28972132 -1.19467153 -0.43012254
  H  0.89087978  1.13678723 -1.04652160
  H  1.90567887  1.29617122  0.40261823
  H  3.18305809 -0.42189176 -0.57786782
