12
opt_min/./Product_2969_1_opt.xyz
  C -0.04340500  0.12759700  0.00217400
  C  1.38558492 -0.26841489  0.22761362
  H  1.54756520 -0.48118637  1.28687275
  H  2.06631787  0.53111121 -0.06267810
  H  1.62922923 -1.16966657 -0.33591501
  C -0.43113126  1.38949829  0.00558618
  H -1.45997286  1.68502638 -0.13380944
  H  0.26291231  2.20500216  0.14334818
  C -1.00110726 -1.01034524 -0.18117978
  H -0.70387944 -1.61245427 -1.04209659
  H -2.01702690 -0.65271032 -0.33515750
  H -0.98085394 -1.65750805  0.69846060
