11
opt_min/./Product_9523_0_opt.xyz
  C  4.13664624 -0.21307036 -0.05923139
  C  2.88917816 -0.07005147 -0.26167059
  C  1.61901281  0.07153197 -0.44930848
  C  0.34066865  0.18727289 -0.63602734
  C -0.65421463  0.22792331  0.48371573
  H -0.46254130  1.01544091  1.21245031
  C -2.02197596 -0.24497644  0.27323260
  H -2.83683362  0.18507421  0.84464732
  H -2.30129348 -0.66945179 -0.68512035
  O -1.09065503 -0.98442835  1.01433803
  H -0.05609356  0.22193087 -1.64163777
