14
opt_min/./Product_4427_0_opt.xyz
  C -1.58079500 -0.14028600 -0.19435200
  C -0.14663668  0.42520591 -0.02556226
  O -0.21242498  1.42751485  0.96596305
  H  0.38815619  2.13766222  0.71941509
  C  0.75847117 -0.74759907  0.50829508
  O  2.08440179 -0.38126829  0.74532992
  H  2.53474960 -0.21389694 -0.08825533
  H  0.68767772 -1.59691694 -0.18096497
  H  0.36715623 -1.04157296  1.48243897
  C  0.36523881  0.89795888 -1.30461044
  H  0.34925927  0.06879288 -2.03185895
  H -1.87531280 -0.64261023  0.72000411
  H -1.64517155 -0.83354815 -1.02509497
  H -2.25447804  0.68982179 -0.36674787
