11
opt_min/./Product_9441_0_opt.xyz
  N  2.83145204 -0.82000486  0.27838593
  C  1.68994572 -0.76231773  0.28690712
  C  0.23915596 -0.70142834  0.23016463
  H -0.16354786 -1.72525592  0.36925130
  O -0.32195712  0.18653243  1.13380689
  C -1.16520034  1.11110934  0.40523686
  H -2.20716048  0.96579635  0.70944068
  H -0.86907549  2.13332123  0.65539555
  C -0.97799522  0.85129339 -1.04492835
  N -0.20493417 -0.17794535 -1.10257826
  H  0.24048484 -0.50683391 -1.94535955
