17
opt_min/./Product_7046_0_opt.xyz
  C -1.69401200  0.25305600 -0.42752500
  C -0.61613411  0.47425478  0.62794625
  O -0.92807206 -0.13921558  1.85449633
  H -1.17546546 -1.05697321  1.68595456
  C  0.78558450  0.03054618  0.13963866
  C  0.88208644 -1.43552074 -0.24674482
  H  0.19847599 -1.66850618 -1.05926651
  H  1.89165770 -1.66082474 -0.58670227
  H  0.66226748 -2.06463712  0.61338398
  O  1.10937170  0.82694030 -1.02768101
  C  1.94391487  1.76479113 -1.05047812
  H  2.45084048  1.93034497 -0.06120036
  H  1.50961043  0.26701477  0.93306977
  H -0.55336696  1.54534379  0.86156506
  H -2.61658841  0.73733386 -0.12089420
  H -1.88852950 -0.81058393 -0.56232945
  H -1.36735144  0.67195738 -1.37596525
