11
opt_min/./Product_4109_0_opt.xyz
  C -0.81868737 -2.42315475  1.69941918
  C  0.19860748 -1.34064842  1.90935633
  C  1.17206524 -1.09237068  1.07592216
  N  2.04250546 -0.62214410  0.37567820
  N  2.79336919 -0.60960562 -0.59971670
  N  3.82658375  0.09497830 -0.72588123
  H  4.37263222 -0.26743039 -1.51009507
  H  0.10315405 -0.75490860  2.81491879
  H -0.86207133 -2.71975787  0.65467752
  H -0.56839157 -3.30099989  2.29705764
  H -1.80089524 -2.07445234  2.01309952
