17
opt_min/./Product_11925_0_opt.xyz
  C  2.20793800 -0.00136900  0.49208100
  C  1.10123723  0.27780160 -0.53541235
  C -0.18361924 -0.51241951 -0.23948308
  H  0.06872085 -1.57463311 -0.19275796
  C -1.26007964 -0.27651458 -1.25693127
  H -1.12498930 -0.48145750 -2.30210323
  C -2.35004252  0.21307089 -0.65527725
  H -3.27990882  0.47984234 -1.12361163
  C -2.09853215  0.34085613  0.76591732
  H -2.81713003  0.71636498  1.46999932
  C -0.85378312 -0.07365989  1.02855487
  H -0.36660935 -0.09782219  1.98536461
  H  0.84785827  1.33769644 -0.52949086
  H  1.44194078  0.01811881 -1.53684814
  H  3.15368427 -0.18779173 -0.00896246
  H  1.96722767 -0.88747241  1.07574556
  H  2.33445006  0.82685908  1.17902489
