14
opt_min/./Product_7395_0_opt.xyz
  C -1.10352800 -0.87139500 -0.55668100
  H -2.09148650 -1.30623241 -0.55402986
  H -0.61686829 -0.86997190 -1.52142405
  C -0.79660099  0.26528828  0.37939416
  H -1.59685788  0.61923401  1.01737639
  C -0.22547275 -1.08480460  0.64607633
  H -0.56586375 -1.70699070  1.46522825
  O  1.14708813 -1.30280905  0.44791539
  C  1.82716049 -0.31597435 -0.16875442
  H  2.83151949 -0.63617031 -0.42270199
  N  1.46912729  0.84733719 -0.46456315
  C  0.16321486  1.33988285 -0.09036554
  H  0.32428427  2.06994869  0.71149515
  H -0.23896625  1.87099484 -0.95895731
