15
opt_min/./Product_5517_0_opt.xyz
  C  1.74812900  0.92434900  0.04808200
  C  1.26681724 -0.38420969 -0.56106321
  C -0.12021239 -0.74359258 -0.03838835
  C -1.18364230  0.19478247 -0.44841575
  C -2.43333198  0.05357738  0.31648579
  H -2.48741418 -0.74990144  1.06495944
  H -2.56033243  1.01999984  0.81929793
  H -3.26383143 -0.01221503 -0.38597120
  H -0.09940528 -0.89463584  1.05491287
  H -0.43488725 -1.71123560 -0.45521951
  H  1.22150974 -0.28338389 -1.64798707
  H  1.96955077 -1.18781735 -0.32088356
  H  1.00715271  1.70000904 -0.14419480
  H  2.69312010  1.23734252 -0.39399701
  H  1.88291331  0.82976452  1.12517541
