10
opt_min/./Product_7199_0_opt.xyz
  N -1.31707100 -0.60950700 -0.07560000
  C -0.06459152 -0.79841492 -0.51862480
  O  0.79629014  0.08233463  0.07025742
  C  2.09431354  0.00632915 -0.28281467
  O  2.58901430 -0.74418656 -1.05684621
  H  2.64114684  0.78214995  0.28018586
  C -1.83021695  0.30601218  0.84682782
  O -1.21460379  1.13337823  1.44263497
  H -2.92346543  0.17238233  0.96968738
  H -1.99412904 -1.24307349 -0.48645606
