10
opt_min/./Product_2866_0_opt.xyz
  C -0.69118305  0.78574349 -0.07526684
  H -0.31123330  1.38801885 -0.88953663
  H -1.46595489  1.28844717  0.48502048
  C  0.29076033 -0.07942303  0.66315772
  C  1.65334230 -0.05464948  0.25803822
  N  2.73771287 -0.02436033 -0.10824018
  H  0.17603366 -0.23018169  1.73134192
  C -0.74164147 -0.68970463 -0.25078414
  H -0.42883125 -1.14495085 -1.17769227
  H -1.54701807 -1.22720775  0.23223287
