14
opt_min/./Product_3268_0_opt.xyz
  C -1.33538700  0.58105800  0.52731700
  H -0.92907597  0.67621775  1.51861132
  H -2.38869397  0.79082310  0.45333467
  C -0.78117466 -0.49452923 -0.37720245
  H -1.44863480 -1.08920411 -0.97621552
  C -0.48766114  0.94330354 -0.66387543
  H -0.94622303  1.49317498 -1.47182929
  O  0.85699459  1.23730455 -0.47506784
  C  1.49322748  0.11845627  0.12573845
  H  2.41207023 -0.08889670 -0.43526941
  H  1.78687353  0.36953618  1.15193907
  C  0.52863504 -1.09357556  0.09520063
  H  0.87733902 -1.88021200 -0.57115258
  H  0.42106994 -1.53542081  1.08848442
