13
opt_min/./Product_7855_0_opt.xyz
  O  1.78651200 -1.01165600 -0.03572500
  C  1.19624271  0.04689455  0.65723012
  C  0.24839035  0.81961282 -0.25619862
  H  0.78453691  1.28094168 -1.09140836
  O -0.55259693  1.79221786  0.43714664
  C -1.70969981  1.21902848  0.24586110
  C -1.08002613  0.10796638 -0.62386349
  O -1.18809230 -1.23136149 -0.22591030
  H -2.02481856 -1.34746360  0.24087108
  H -1.33523704  0.21452779 -1.68811831
  H  0.64325441 -0.29809634  1.54360589
  H  1.99951031  0.71323143  0.99148597
  H  1.10395203 -1.68135689 -0.18978453
