11
opt_min/./Product_1475_0_opt.xyz
  C  2.13177003  0.66294709  0.29433716
  C -2.69270259  3.86071632  1.64726696
  C -32.32943929 -6.38676635  8.58694116
  C -0.51876660 -17.02099631 -16.19729510
  O  12.18677755 -3.30980773 -16.05091419
  N  35.26085420 -18.93072530 -1.11269265
  H  42.65982214  21.50126250 -14.74425641
  H -66.07535522  16.92818963  41.85567900
  H  37.67196321 -24.20998817  6.17933218
  H -3.46770693  4.01060718  11.66731543
  H -10.20699793  18.57424997 -14.81600946
