16
opt_min/./Product_5058_0_opt.xyz
  C -2.56529000 -0.09612700 -0.90340300
  C -1.18087081 -0.33871589 -0.31901534
  C -0.14944416  0.51973789 -0.97545984
  O  1.10708635  0.49930299 -0.66047165
  C  1.70571259 -0.22443154  0.22966107
  C  3.16865300 -0.01852782  0.43153170
  H  3.56877384  0.57526805 -0.38718234
  H  3.38177288  0.50571241  1.36819731
  H  3.69295956 -0.97369391  0.46461327
  H  1.16269031 -0.91950935  0.85141000
  H -0.39625121  1.19803327 -1.77204005
  H -1.19605301 -0.13655759  0.76187049
  H -0.91132637 -1.39889271 -0.43455867
  H -3.30008214 -0.74028194 -0.42598865
  H -2.86404789  0.93933082 -0.75642070
  H -2.56897008 -0.30358167 -1.97126947
