13
opt_min/./Product_11836_0_opt.xyz
  C -0.48241400 -0.10029400 -1.41578900
  C -0.28539022  0.09301806  0.04885429
  O -1.37133372  0.22823153  0.95112186
  C -0.42234723  1.22223860  0.97693875
  H -0.62512598  2.26758135  0.84624350
  O  0.67255085  0.82559518  1.78168943
  C  0.92333774 -0.30352993  0.94790697
  O  0.90823510 -1.48151484  1.65630961
  H  1.02093329 -2.22545393  1.05382306
  H  1.87458824 -0.15238755  0.41084894
  H  0.29479756  0.42019701 -1.97208307
  H -1.45265279  0.29775315 -1.70209297
  H -0.45203618 -1.16031167 -1.66168804
