9
opt_min/./Product_3618_1_opt.xyz
  C -0.94601201  0.66994502 -0.60930795
  O -1.68676397  0.93363818  0.39155077
  H -1.85968434  0.20576815  1.04267115
  C -0.39348139 -0.73530349 -0.64637705
  C  0.94453430 -0.62831389 -0.09728519
  C  2.03468723 -0.52557108  0.38540026
  H  2.99452167 -0.44149165  0.79782304
  H -0.32633553 -1.09071745 -1.67648510
  H -0.98322129 -1.44465069 -0.03741409
