12
opt_min/./Product_3800_0_opt.xyz
  C -1.55996400  0.76199200  0.07201800
  C -1.09285663 -0.40974305  0.46219949
  C  0.32538633 -0.83993877  0.29228704
  H  0.38697437 -1.91105843  0.08961867
  C  1.28938082  0.01869640 -0.49354377
  H  1.38411824  0.31087279 -1.51424576
  C  1.94956846  0.21314072  0.64795647
  H  2.82588629  0.72949030  0.99291077
  O  1.14917757 -0.53724110  1.46874966
  H -1.73081036 -1.11871988  0.97204163
  H -0.93689261  1.48479723 -0.42708372
  H -2.58734267  1.04039893  0.23670142
