14
opt_min/./Product_6643_0_opt.xyz
  C  2.59064100 -0.18367100  0.21013500
  N  1.43973916  0.39908695  0.25413557
  C  0.18259297 -0.04403546 -0.31017248
  H  0.34077524 -0.52085608 -1.27868194
  C -0.79477158 -0.70992081  0.68756853
  H -0.64372444 -1.58414790  1.30866656
  C -1.94211329 -0.36979674 -0.26931636
  H -1.98287039 -0.86565736 -1.23602800
  H -2.92005986 -0.29000190  0.19692666
  C -1.04683852  0.86425210 -0.11473970
  H -1.20775749  1.88333365 -0.44791891
  O -0.97372081  0.59281019  1.31513941
  H  1.32681625  1.21644158  0.84891795
  H  2.52149412 -1.08923972 -0.42876687
