12
opt_min/./Product_9246_0_opt.xyz
  C -1.16579900 -0.82544000  0.34874700
  C -0.09483465  0.22225785  0.15023691
  C -0.46316542  1.50613612 -0.49755889
  O  0.11495688  2.54617204 -0.36508766
  H -1.35840139  1.39478108 -1.14263376
  C  1.30650609 -0.17759730  0.05286034
  N  2.18673809 -0.66991958 -0.64627287
  H  3.11003077 -0.76776064 -0.23132901
  O  0.91854125  0.33520438  1.20613103
  H -2.15041270 -0.36154947  0.35381888
  H -1.12717610 -1.57314974 -0.44259522
  H -1.01244636 -1.32502941  1.30543733
