16
opt_min/./Product_5858_0_opt.xyz
  C -0.51851700  1.34854600  0.41695900
  C -0.17540156  0.01689366 -0.23599822
  O  1.12227629 -0.09267738 -0.75032586
  C  2.12764676 -0.27885223  0.21807345
  H  3.05779786 -0.41180049 -0.32846392
  H  1.93897408 -1.16834873  0.82793899
  H  2.22737119  0.58440804  0.88380783
  C -0.81933263 -1.24282009  0.28909268
  H -0.24621409 -2.15502105  0.27825786
  H -1.50064066 -1.15233124  1.11972711
  C -1.23460573 -0.67533053 -1.03867333
  H -2.19835376 -0.20115356 -1.11523102
  H -0.91606049 -1.19543998 -1.92580315
  H  0.38658762  1.90156969  0.64846285
  H -1.12041859  1.95884484 -0.24994682
  H -1.07283821  1.19675843  1.33714895
