15
opt_min/./Product_10851_0_opt.xyz
  C  0.21369200  1.31900600 -0.58747400
  C  0.18502419 -0.00470344  0.12615739
  O  1.37724720 -0.76589220  0.11467800
  C  2.40666553 -0.27961877 -0.51729331
  H  3.19860427 -1.04998428 -0.38486800
  C -0.63401307 -0.18210077  1.38034598
  H -0.22671368 -0.79369562  2.16878385
  H -1.21367969  0.66404876  1.71062982
  C -1.07047343 -0.85589370  0.11606884
  O -2.21729530 -0.38134818 -0.50069839
  H -2.13033641 -0.46171878 -1.45784334
  H -0.92646886 -1.93198889  0.04438322
  H  0.52986492  1.18241299 -1.62002843
  H -0.77541616  1.76610236 -0.56121200
  H  0.92565751  1.98605142 -0.10570303
