15
opt_min/./Product_10443_0_opt.xyz
  N  2.70350700 -0.49675900 -0.33785600
  C  1.57727120 -0.00992099 -0.05127435
  O  1.43990266  1.31698315 -0.02280706
  H  2.28415798  1.71593338 -0.27143001
  C  0.31843457 -0.76320923  0.33272826
  N -0.82075712 -0.35070350 -0.44836212
  C -1.45326297  0.90571157 -0.15620605
  H -1.75594639  1.47134416 -1.02103899
  H -1.09368437  1.49088852  0.68035854
  C -2.13390949 -0.37207299  0.14582371
  H -2.91258527 -0.72356243 -0.51060837
  H -2.23590596 -0.66904849  1.18376177
  H  0.16055375 -0.62734267  1.42104193
  H  0.47798972 -1.83063525  0.15547841
  H  2.75037569 -1.50650843 -0.34853556
