13
opt_min/./Product_4875_0_opt.xyz
  C -1.73199998 -0.46838605  0.18275904
  C -0.29118769 -0.67245287 -0.24306369
  H -0.18791613 -1.60045750 -0.80813985
  C  0.40978810  0.55175950 -0.90448521
  H -0.18434805  1.46125001 -0.94801108
  H  0.89804356  0.38554754 -1.86042718
  C  1.26558256  0.41168053  0.31314543
  O  2.31119358  1.12669312  0.69613712
  H  2.64186690  0.79642788  1.54303682
  N  0.69273889 -0.59580191  0.86668165
  H -2.36120689 -0.33716893 -0.69279893
  H -1.80955230  0.40429077  0.82620760
  H -2.07657365 -1.33481266  0.74110397
