15
opt_min/./Product_8161_0_opt.xyz
  O -0.19301400  1.53918300 -1.27073700
  C -0.06976655  0.46440354 -0.37296162
  C  1.36477832  0.08260768 -0.15602450
  C  1.79319889 -0.88054378  0.63644764
  H  2.83951900 -1.10401733  0.75152627
  H  1.11545489 -1.49055037  1.21234152
  H  2.06022630  0.68884224 -0.72495409
  C -1.02884703 -0.72738193 -0.73980919
  H -1.66203614 -0.49557763 -1.59066694
  H -0.53765710 -1.68653602 -0.87536205
  C -1.65840614 -0.48303797  0.60516878
  H -2.45950484 -0.99475561  1.10445068
  C -0.88931416  0.55271840  0.91032282
  H -0.79956580  1.22702469  1.74136191
  H -0.00196946  2.35634848 -0.79794344
