10
opt_min/./Product_10937_0_opt.xyz
  N -1.76210200  0.79771800  0.22965400
  C -0.93288986 -0.19226231 -0.04472878
  N -0.75606477 -1.26783694 -0.70059195
  C  0.30841918 -0.88681602  0.26183311
  N  1.53479117 -0.41451609 -0.25679695
  N  2.25518038  0.44370873  0.12878469
  N  3.08263788  1.17376867  0.34868056
  H  0.42660042 -1.47466397  1.16914696
  H -1.49343498  1.55571192  0.83492995
  H -2.55972659  0.91935674 -0.37590847
