16
opt_min/./Product_2773_0_opt.xyz
  C -1.73846500 -1.09999500 -0.56372100
  C -1.05222385  0.24408498 -0.74195306
  C  0.14359625  0.43263060  0.22041903
  C  1.15149290 -0.60368849 -0.03119874
  C  2.53945352 -0.13497058 -0.11321194
  H  2.66511733  0.88812159 -0.47582974
  H  3.17124731 -0.83892720 -0.65322560
  H  2.85960797 -0.13779725  0.93564272
  O  0.59772363  1.78018052  0.22717722
  H -0.16101261  2.36785852  0.31217460
  H -0.21460712  0.16151337  1.23752469
  H -1.76896640  1.05383895 -0.56406075
  H -0.67993725  0.34753712 -1.76440972
  H -2.51975484 -1.21839738 -1.31215554
  H -1.01283950 -1.90169595 -0.67008845
  H -2.18968689 -1.17270254  0.42432364
