19
opt_min/./Product_11869_0_opt.xyz
  C -2.82092500 -0.17602800 -0.02519400
  C -1.42983983  0.19010683  0.47771131
  C -0.33976943 -0.21839142 -0.51508010
  C  1.04317030  0.28591725 -0.07074581
  C  2.09776796  0.05772267 -1.07252558
  C  3.46618876  0.08059490 -0.53269018
  H  3.57539730  0.27649757  0.53897511
  H  3.92308707 -0.88040160 -0.77822896
  H  4.02467086  0.81523360 -1.11323770
  H  1.02007380  1.38214054 -0.01760837
  H  1.27979269 -0.07918326  0.94148546
  O -0.34035020 -1.62985626 -0.59418145
  H  0.33899927 -1.88812278 -1.22615338
  H -0.56551036  0.20822948 -1.50540689
  H -1.36914675  1.26568484  0.64898805
  H -1.24116406 -0.32394326  1.42031960
  H -2.87753004 -1.24486942 -0.20475956
  H -3.03683703  0.34274612 -0.95548950
  H -3.57497934  0.09683349  0.70716209
