12
opt_min/./Product_5409_0_opt.xyz
  C -1.57634800  0.13352300 -0.00450000
  C -0.09283312  0.17621417  0.01700824
  C  0.73764509  1.21689187  0.21719867
  H  0.44208072  2.23736459  0.38279491
  C  2.12906970  0.75555205  0.17615637
  O  2.09004056 -0.52446398 -0.04537970
  C  0.76254656 -1.03641120 -0.16666023
  H  0.60704956 -1.79208166  0.60836809
  H  0.65649845 -1.50601710 -1.14778198
  H -1.97590595  1.06171754 -0.40730400
  H -1.93915709 -0.70347316 -0.59716765
  H -1.95705770  0.01979007  1.01167848
