13
opt_min/./Product_11199_0_opt.xyz
  C  2.32207600  0.51569700  0.51116600
  C  1.06605617  0.11531534  0.38774211
  O  0.57804620 -0.38740883 -0.77235646
  C -0.79834821 -0.69282491 -0.84946362
  H -0.93051715 -1.23061967 -1.78210278
  C -1.66699320 -0.94412557  0.35131160
  H -1.93628194 -1.59113565  1.14729286
  C -1.85656103  0.18419939 -0.28548619
  O -2.51596943  1.32984170 -0.39964969
  H -2.21078177  1.81739881 -1.17679225
  H  0.36047744  0.16525205  1.21292190
  H  3.00404049  0.45762102 -0.31647129
  H  2.68401740  0.89501146  1.44666441
