11
opt_min/./Product_3002_0_opt.xyz
  C -0.81538349 -2.42737889  1.70199343
  C  0.20013795 -1.34292323  1.91044298
  C  1.17344077 -1.09445217  1.07687660
  N  2.04223584 -0.62234121  0.37583261
  N  2.79215153 -0.60852264 -0.60033525
  N  3.82531508  0.09615451 -0.72676181
  H  4.37304419 -0.26850972 -1.50876728
  H  0.10312099 -0.75544772  2.81471527
  H -0.85833056 -2.72546720  0.65765913
  H -0.56351320 -3.30396599  2.30081074
  H -1.79818124 -2.07996413  2.01527913
