10
opt_min/./Product_1230_0_opt.xyz
  N -1.58221700  0.16215100  0.49696800
  C -0.12756828 -0.00149865  0.21298971
  C  0.71443376  1.00253438 -0.32437941
  C  1.85752093  0.22818862 -0.32381643
  H  2.86213073  0.45713450 -0.63279167
  O  1.68999817 -1.04589210  0.15506338
  N  0.39559601 -1.18943837  0.49955565
  H -1.88155642 -0.61611934  1.09367230
  H -1.70899934  1.06676402  0.95998807
  H -2.10540583  0.15872751 -0.38454489
