14
opt_min/./Product_6050_0_opt.xyz
  C -1.91348401 -0.91495801  0.22964788
  O -1.29311884  0.00454187 -0.63386715
  C -0.00274235  0.37234341 -0.26321857
  C  0.98073084 -0.48156713 -0.20413073
  C  1.95869931 -1.32621765 -0.12262472
  H  2.57478466 -1.55617978 -0.97773230
  H  2.20297701 -1.82835652  0.80168012
  C  0.17531890  1.84877221 -0.01875785
  H  0.99470728  2.02529370  0.67164939
  H -0.74598545  2.25585917  0.38818835
  H  0.39143580  2.36083023 -0.95430935
  H -2.90384038 -1.09765640 -0.18183996
  H -2.01048726 -0.50768153  1.24258611
  H -1.35789940 -1.85774261  0.27860971
