8
opt_min/./Product_4646_0_opt.xyz
  O -1.34081000 -1.20000700  0.93046400
  C -1.42820439 -0.36698748  0.07078329
  C -0.34714260  0.55542693 -0.34190810
  C  0.91273004  0.37577784  0.01098208
  C  2.09368843  0.02706233  0.31838677
  O  3.20668800 -0.23861499  0.54924217
  H -0.64595801  1.39897626 -0.95597331
  H -2.36567646 -0.21738540 -0.50010977
