15
opt_min/./Product_11197_0_opt.xyz
  C  1.98018800 -1.05102300 -0.09622400
  C  1.03920452 -0.36382837 -0.71557448
  C  0.11373435  0.57060301 -0.00651320
  O  0.66839140  1.84423127  0.15839426
  H  0.03061033  2.51734979 -0.09859795
  C -1.36614432  0.43080587 -0.24696484
  O -1.79046945 -0.54326191 -1.14896865
  H -2.37830135 -1.16318982 -0.70669511
  H -1.98127097  1.32961282 -0.28950722
  C -0.78448373  0.02665888  1.08179806
  H -0.97611420  0.66450340  1.92999200
  H -0.73398727 -1.02260329  1.31796122
  H  0.90338431 -0.42891942 -1.78483728
  H  2.11035997 -0.97602909  0.97034770
  H  2.65404501 -1.69990675 -0.62681851
