15
opt_min/./Product_8457_0_opt.xyz
  C  2.07990000 -0.33505400 -1.04359800
  C  1.64148619  0.20941827  0.17735405
  H  2.45409267  0.56448943  0.80934949
  C  0.41159083  1.19361041  0.16249702
  H  0.58776515  2.18193824  0.56377565
  O -0.45681272  1.17486759 -0.90247045
  C -1.38276880  0.10818987 -0.71030118
  H -1.64538419 -0.28837360 -1.69189997
  H -2.28912854  0.51515270 -0.23925836
  C -0.70423026 -0.90673175  0.22513015
  H -1.40277577 -1.38509234  0.90565497
  H -0.20178752 -1.67765360 -0.36448463
  C  0.31905191 -0.04538513  0.94142010
  H  0.36267619 -0.04320226  2.01996689
  H  1.25276799 -0.79075447 -1.61638203
