17
opt_min/./Product_11922_0_opt.xyz
  C -1.48855200 -0.53409400 -1.46978500
  C -0.76646643 -0.03575870 -0.27213934
  C -1.18649758  0.14282655  1.15308748
  H -2.25152398  0.23298973  1.34358818
  H -0.67741561 -0.36365016  1.96177691
  C -0.53232501  1.26319105  0.40092371
  H -0.82747483  2.27667781  0.24525081
  C  0.64165018  0.48901949 -0.13915795
  C  1.68180128 -0.13421117  0.70086893
  C  2.89303470 -0.41841363  0.24922959
  H  3.62833307 -0.87706414  0.88535026
  H  3.19791281 -0.20141184 -0.76275701
  H  1.42273465 -0.36151324  1.72521661
  H  1.05143282  0.87552950 -1.07499955
  H -1.14044030 -1.53556732 -1.72190925
  H -2.55928154 -0.57489780 -1.27392500
  H -1.31075358  0.11504194 -2.32694814
