13
opt_min/./Product_8350_0_opt.xyz
  O -0.36007522 -1.58602995 -0.74706601
  C -0.36181022 -0.88626731  0.45591211
  C  0.95820297 -0.12877451  0.71129058
  C  1.16220464  0.90798290 -0.27691604
  C  1.27715513  1.76089943 -1.11054058
  H  1.39607640  2.50505335 -1.84354234
  H  1.78534907 -0.84608216  0.67438432
  H  0.92692931  0.32028693  1.70822888
  C -1.52117342  0.11696981  0.52306149
  C -2.49597091 -0.02521663  1.35316939
  H -1.40486735  0.93720111 -0.17586509
  H -0.50324775 -1.64417520  1.23772279
  H -0.15795100 -0.97741905 -1.47303462
