15
opt_min/./Product_9209_0_opt.xyz
  C  2.74185000  0.23047600  0.13243600
  C  1.71022229 -0.20187071 -0.81405978
  C  0.48881379 -0.69215909 -0.38594347
  C -0.40442276  0.03067160  0.33521987
  C -1.84053109 -0.33087529  0.42731537
  H -2.14408799 -0.75561028  1.38584304
  C -2.86585193  0.38739443 -0.34074318
  H -3.87124439  0.48761380  0.05141262
  H -2.55292694  1.17146510 -1.02126217
  O -2.47254018 -0.91095291 -0.67740849
  H -0.14047802  0.99523558  0.74823667
  H  0.11324484 -1.55997423 -0.91921128
  H  3.35432685 -0.65340702  0.32540341
  H  3.39029072  1.00272597 -0.27581444
  H  2.32810344  0.53182542  1.10214769
