14
opt_min/./Product_11713_0_opt.xyz
  C -2.32750000  0.67365800  0.69669100
  C -0.93969499  0.26273452  0.49878341
  C  0.31986640 -0.08769067  0.74861768
  C  1.46753086 -0.39499621  1.38257213
  O  2.64258603 -0.81300936  0.76598137
  C  3.06300761 -0.55706733 -0.40361307
  H  2.36995935  0.11221442 -0.99210653
  H  1.52273736 -0.40093636  2.45536951
  N -0.13807077 -0.13369439 -0.68170074
  H -0.26158621 -1.04386992 -1.13180959
  H  0.22915896  0.55901768 -1.33951925
  H -3.03715903 -0.10614273  0.39926614
  H -2.56464377  1.58356100  0.13752446
  H -2.46972240  0.87749800  1.75452013
