14
opt_min/./Product_3267_0_opt.xyz
  C  0.86163500 -1.00245700 -0.23144100
  C  2.20461845 -0.77794978 -0.73560607
  H  2.56893439  0.22687376 -0.45244528
  C  0.04120673  0.15320838  0.33759276
  H  0.62870386  0.71754523  1.06222471
  C -1.38242769 -0.17380509  0.82292085
  H -1.69825719 -1.21056114  0.67926181
  H -1.62915492  0.14188305  1.83874182
  O -1.95455096  0.69560154 -0.15877940
  C -0.67436064  1.04106990 -0.69622805
  H -0.56992841  0.72430878 -1.73699923
  H -0.47884824  2.11284898 -0.62326202
  H  1.07321466 -1.72303096  0.57375253
  H  0.28525224 -1.56838528 -0.97198491
