13
opt_min/./Product_2200_0_opt.xyz
  C  1.39584400 -0.51158400  0.48825200
  C  0.37153517  0.28234333 -0.29410689
  O  1.02819876  1.15088743 -1.16170035
  H  0.38773882  1.72109173 -1.60123267
  C -0.93697305  0.74032615  0.30188991
  H -1.42570845  1.68540490  0.40628536
  C -0.95029355 -0.29863885 -0.74589342
  H -1.44830307 -0.40772234 -1.68457751
  N -1.53514890 -0.55943868  0.55488798
  H -0.96235006 -1.15927372  1.15239917
  H  0.99814292 -1.46116148  0.83533354
  H  2.23681410 -0.70602786 -0.17235005
  H  1.74837275  0.06499893  1.34007316
