14
opt_min/./Product_3751_0_opt.xyz
  C  2.38123100  0.17606200 -0.13127100
  C  1.13095200 -0.16384663 -0.39359865
  C  0.05845001 -0.20016657  0.61067468
  H  0.36618585  0.04635959  1.62092700
  C -1.34099358  0.24356171  0.21774636
  O -1.61030128  0.62574529 -1.08937747
  H -1.29070128  1.52429708 -1.23911398
  H -1.90847473  0.79620710  0.96686379
  C -1.06474879 -1.20001788  0.45954544
  H -1.45735017 -1.67561190  1.34619673
  H -1.04295099 -1.83675254 -0.41275874
  H  0.82365787 -0.42466283 -1.39806590
  H  2.70164108  0.43763142  0.86459897
  H  3.14012146  0.19813889 -0.89419349
