14
opt_min/./Product_11111_0_opt.xyz
  C -0.87106700 -0.87566800  0.14262900
  H -1.24907581 -1.61318658 -0.56365018
  H -1.41119632 -0.97251348  1.08580967
  C -0.85890899  0.54867662 -0.44028786
  H -1.81674293  1.00184602 -0.67908538
  C  0.08731663  0.24044719 -1.59495227
  C  1.24408523 -0.13618309 -0.82748355
  H  2.20444718 -0.36372145 -1.25898133
  N  1.18008727  0.33786573  0.58108124
  C  0.03207100  1.25394841  0.58313694
  H  0.35719588  2.24638820  0.26644936
  H -0.38914098  1.31721429  1.58715975
  C  0.64301263 -0.94954466  0.30813062
  H  1.14450788 -1.81869066  0.70454497
