10
opt_min/./Product_807_0_opt.xyz
  O  3.33738117  0.10846453  0.01624262
  C  2.05791180  0.22381193 -0.30276820
  C  0.85988168  0.28434382 -0.07231562
  N -0.40387113  0.23416860 -0.19130158
  C -1.63352707  0.45225912 -0.12364500
  N -2.37902316  0.14551719  0.98149854
  H -3.34226552 -0.13450525  0.85829532
  H -2.19474382  0.89072805 -0.95206849
  H -1.54123197 -0.69224059  1.81970173
  H  3.88547488  0.46806209 -0.69470056
