10
opt_min/./Product_1903_0_opt.xyz
  C -0.89983500  0.68425400 -0.39274100
  H -1.02628401  0.85469722 -1.44970239
  H -1.33936474  1.44658378  0.23134314
  C -0.90319144 -0.75022123  0.10680132
  H -1.34007984 -0.95643635  1.06991173
  H -1.04442129 -1.53588012 -0.61835181
  C  0.33050418  0.03670667  0.05368706
  C  1.61808209  0.07744940  0.27604805
  H  2.14533141 -0.77390768  0.66861224
  H  2.18508133  0.97012921  0.06801538
