11
opt_min/./Product_2674_0_opt.xyz
  O  2.61825300  0.85219700 -0.30294200
  C  1.52522206  0.69803007  0.16614734
  C  0.58407251 -0.41920976 -0.19972790
  C -0.76329193 -0.29898747  0.43301968
  C -1.89783289 -0.23139746 -0.23960200
  H -2.84466908 -0.14499624  0.26306393
  H -1.91617411 -0.26498356 -1.31602287
  H -0.77365659 -0.26279197  1.51444469
  H  0.50062108 -0.44940271 -1.28960111
  H  1.06460257 -1.35373173  0.10851289
  H  1.13424535  1.40779167  0.92240045
