13
opt_min/./Product_3340_0_opt.xyz
  C -1.46712700 -0.53438200 -0.07716000
  H -2.02558870 -0.78340122 -0.98760364
  H -2.07455584 -0.89298779  0.76375518
  C -1.20435948  0.92859826  0.04178515
  H -1.97602309  1.67391202  0.07473677
  C  0.10741127  1.12786249  0.09647694
  H  0.66219015  2.04310553  0.19722743
  N  0.81596991 -0.09202078  0.01900834
  C  2.13657041 -0.13030979  0.06197076
  H  2.68970107  0.78323837  0.12573289
  H  2.64333266 -1.07128487 -0.00592839
  C -0.08156121 -1.07734005 -0.07857874
  H  0.19569308 -2.10667468 -0.15712732
