11
opt_min/./Product_5091_0_opt.xyz
  N -1.21754301 -2.58400999  1.77476200
  C -0.34037785 -1.89187891  1.52527771
  O  0.65011003 -1.13080487  1.29301658
  C  0.73607189 -0.52603055 -0.00963030
  C -0.44458356  0.34764410 -0.30524348
  C -0.35146912  1.62312844 -0.62713810
  H -1.22243086  2.21683293 -0.84246752
  H  0.60142901  2.12223003 -0.70258939
  H -1.40705140 -0.14088137 -0.22463165
  H  0.81535905 -1.32310311 -0.76126594
  H  1.66206515  0.04997091  0.01134645
