14
opt_min/./Product_9537_0_opt.xyz
  C  0.88614000  1.53401600  0.07598900
  C  0.09774620  0.31006273 -0.34215606
  O  0.91141472 -0.88456468 -0.36100382
  C  1.68680912 -1.08670506  0.66159801
  H  2.17802378 -2.06144588  0.45188425
  O -0.97239673  0.14967936  0.55366667
  C -1.90643937 -0.79436861  0.28923175
  N -1.99428404 -1.63849329 -0.62051111
  H -1.23356133 -1.66922693 -1.29672505
  H -2.69122406 -0.73328933  1.03947290
  H -0.28439303  0.38867955 -1.37412411
  H  1.59118061  1.81165969 -0.70309504
  H  0.19720971  2.35243288  0.26355578
  H  1.42705204  1.29274166  0.99018966
