12
opt_min/./Product_9372_0_opt.xyz
  O -2.18222701 -0.87681497 -0.43283302
  C -1.03489084 -0.28025701 -0.07255031
  C -0.50121676  0.93492168 -0.19848275
  H -0.80571338  1.86742109 -0.62825556
  C  0.76758769  0.54463239  0.54156821
  C  1.96522086  0.58593178 -0.24712347
  N  2.91445680  0.61693284 -0.88477548
  H  0.93995108  1.05959031  1.49015417
  C  0.12848408 -0.87140578  0.67740831
  H -0.07910489 -1.17445171  1.70119842
  H  0.65670321 -1.66946666  0.16005507
  H -2.77513340 -0.24473050 -0.85091170
