12
opt_min/./Product_3703_0_opt.xyz
  C  1.49212000 -0.95176800 -0.28061700
  C  0.84316308  0.11670852  0.14911255
  O  1.22900345  0.80712383  1.25616183
  H  0.46223186  1.27205625  1.61249430
  N -0.26969963  0.66780873 -0.54436505
  C -1.55020675  0.29714200 -0.28675536
  N -1.82401446 -0.48404225  0.66652579
  H -2.80929085 -0.69838412  0.76333648
  H -2.26844263  0.77670013 -0.97568491
  H -0.09198470  1.35781327 -1.25559625
  H  1.19712697 -1.45033164 -1.18279046
  H  2.32135790 -1.34805412  0.27052249
