11
opt_min/./Product_892_0_opt.xyz
  N -1.76484900 -0.04102200 -0.34526700
  H -2.36514867 -0.05994230 -1.14235073
  C -1.53014028 -0.27607199  0.91424606
  O -1.92098342 -0.70000606  1.95003217
  C -0.43018793  0.36464441  0.10642571
  C  0.73317716 -0.42198931 -0.32921322
  C  1.97215934  0.04338626 -0.33957386
  H  2.80573017 -0.56942190 -0.63291668
  H  2.19679888  1.05410521 -0.04297637
  H  0.52174284 -1.44123086 -0.62242134
  H -0.26683044  1.43518461  0.21792898
