11
opt_min/./Product_3003_0_opt.xyz
  C  1.74989900  0.10437400  0.02190400
  C  0.41527058 -0.00025706  0.02272038
  C -0.63542415  0.95549459  0.22836406
  H -0.57988333  2.01130786  0.38104602
  N -1.78657214  0.29351598  0.10236941
  H -2.72047525  0.66893657  0.19053207
  N -1.66266200 -0.98098609 -0.13435857
  N -0.32206941 -1.17672873 -0.17465716
  H  0.04277532 -2.07975515 -0.41591238
  H  2.21763529  1.05183188  0.20364117
  H  2.37585992 -0.75062700 -0.14471595
