11
opt_min/./Product_3222_0_opt.xyz
  C  1.43344400 -0.00956200 -0.25992000
  C  0.12192065  0.32290968  0.41790689
  H  0.23479820  1.13301097  1.13931212
  C -1.12331201  0.38711212 -0.43944296
  H -1.46969558  1.00692771 -1.23181607
  C -1.56723246 -0.66618996  0.25084276
  H -2.43552067 -1.29287484  0.29352593
  O -0.48775646 -0.82664195  1.08084043
  H  1.70815540  0.79984080 -0.92921583
  H  1.31856120 -0.92551631 -0.83411935
  H  2.22160346 -0.15817046  0.47143589
