17
opt_min/./Product_11055_0_opt.xyz
  C  2.50651800  0.20534600 -0.02326400
  C  1.21165597 -0.47912739 -0.46131882
  C -0.04661623  0.01227690  0.27257035
  H  0.24027580  0.55709911  1.19562504
  O -0.80831798  0.88029938 -0.58241268
  C -2.14184018  0.79954169 -0.14370813
  H -2.79051542  1.02717787 -0.99090060
  H -2.33568131  1.50954397  0.67709087
  C -2.27010848 -0.64731070  0.37053717
  H -3.10088613 -0.84075346  1.04603544
  H -2.35664014 -1.34371891 -0.48481124
  C -0.92650446 -1.05015987  0.81124144
  H  1.02948630 -0.29387655 -1.52118096
  H  1.28913154 -1.55730454 -0.31128869
  H  3.35278952 -0.46504326 -0.15562819
  H  2.46659019  0.49417524  1.02509895
  H  2.68404224  1.10255930 -0.61178321
