18
opt_min/./Product_8229_0_opt.xyz
  C -2.46987800  0.62591200 -0.18012600
  C -1.89794131 -0.76888095  0.04222794
  C -0.51052494 -0.72153467  0.66919490
  O  0.38163370 -0.09851873 -0.24863202
  C  1.65462504  0.00416192  0.14201955
  N  2.01991255 -0.42286000  1.27223653
  H  3.00667086 -0.29591845  1.47047190
  C  2.50146374  0.65450876 -0.92576692
  H  3.36001887  1.15086717 -0.48031070
  H  1.90854047  1.37064784 -1.48575662
  H  2.85602775 -0.11016310 -1.61520243
  H -0.13867399 -1.72723039  0.89161728
  H -0.51457590 -0.15462466  1.60519518
  H -2.55107890 -1.33955692  0.70397088
  H -1.83444403 -1.29366930 -0.91148116
  H -2.50829330  1.17631490  0.75696155
  H -3.47613625  0.56359725 -0.58536399
  H -1.84703875  1.17772904 -0.87844880
