12
opt_min/./Product_9157_0_opt.xyz
  C  1.93383800 -0.32901300 -0.00792000
  N  0.64366884 -0.21575453  0.00342718
  C -0.34692454 -1.11619755  0.06850554
  H -0.15994445 -2.17073079  0.12612118
  C -1.56726045 -0.44328773  0.04694174
  H -2.52263149 -0.93577321  0.08824569
  C -1.37491030  0.92381649 -0.03375300
  H -2.13354304  1.67911634 -0.06639329
  C -0.00142030  1.19690259 -0.06830722
  O  0.71324358  2.16063402 -0.13318820
  H  2.51184951  0.57707729 -0.06762453
  H  2.41026554 -1.29192385  0.04046966
