11
opt_min/./Product_2075_0_opt.xyz
  C -0.65640298  0.05665476  1.31070302
  C -0.16096633 -0.00601902 -0.10632619
  C -1.02019412 -0.18689496 -1.22619249
  O -0.68648157 -0.26713018 -2.39542788
  H -2.08340274 -0.24866276 -0.92622210
  N  1.11015782  0.08347591 -0.32331194
  C  2.23548082  0.15618810 -0.62167218
  H  3.23985785  0.24509521 -0.89904791
  H -0.15414957  0.85119406  1.86161581
  H -1.72475230  0.25335174  1.31417118
  H -0.47901183 -0.88489157  1.83422108
