15
opt_min/./Product_7144_0_opt.xyz
  O  1.11391600  1.78052600  0.05291900
  C  0.31229224  0.67338214  0.11459488
  C  0.99382084 -0.58567106  0.60713610
  C  1.89233702 -1.03193905 -0.51318137
  O  3.06459309 -0.78723258 -0.58291093
  H  1.36713900 -1.56733214 -1.32544874
  H  1.59591307 -0.35186068  1.48930687
  H  0.26330109 -1.34999087  0.85523823
  C -0.96190230  0.76326200 -0.25528554
  C -1.96934872 -0.34018380 -0.23714752
  H -1.52235574 -1.31120701 -0.42999648
  H -2.72286118 -0.15938803 -1.00038286
  H -2.48505777 -0.37740878  0.72317592
  H -1.31095224  1.73688005 -0.56443681
  H  2.03426522  1.53181772  0.19954975
