11
opt_min/./Product_4502_0_opt.xyz
  C -1.09260899 -0.59107101 -0.27262503
  C  0.02031508  0.22156461  0.39779186
  C  1.37290651 -0.41716022  0.10887941
  O  2.31471728  0.09875565 -0.40871498
  H  1.39682002 -1.47548980  0.45162125
  N -0.01152016  1.55119572 -0.04298104
  C -0.02760660  2.65061835 -0.41954868
  H -0.11581612  0.21501994  1.48837045
  H -2.06558607 -0.24936743  0.06808995
  H -0.99053840 -1.64567219 -0.03174878
  H -1.04466305 -0.47591240 -1.35216201
