17
opt_min/./Product_11063_0_opt.xyz
  C -2.31182200  0.11481300 -0.14933800
  C -0.92379547  0.60419718  0.24081279
  C  0.14723738 -0.46048114 -0.00711135
  O  0.26443824 -0.62927572 -1.40575841
  H  0.86785276 -1.36041843 -1.57452780
  C  1.48220992 -0.05838279  0.62257269
  H  1.49314369 -0.18083900  1.70428868
  C  2.34586654  0.97753514 -0.01777240
  H  2.44334460  2.01746858 -0.20896960
  C  2.76289075 -0.24706293 -0.14812297
  H  3.45335228 -0.96738514 -0.51074158
  H -0.17371064 -1.40808189  0.46148864
  H -0.90342592  0.88370749  1.29581914
  H -0.66984322  1.47848278 -0.36034928
  H -2.60225809 -0.74247746  0.45852491
  H -2.30935817 -0.19564309 -1.19153343
  H -3.05009222  0.90092042 -0.01189954
