14
opt_min/./Product_4402_0_opt.xyz
  C -0.89156300 -1.20116500  0.13006800
  C -0.35314891  0.20379759  0.40408379
  C  1.17965286  0.21022776  0.37897576
  O  1.63101266 -0.24089606 -0.87767851
  H  2.52791914  0.06808958 -1.02085478
  H  1.53370057  1.22999873  0.58857157
  H  1.55430785 -0.44901223  1.17805594
  C -0.87752920  1.21302428 -0.57472693
  C -0.57920990  2.35395574 -1.08772199
  H -1.83904566  0.95615915 -1.03097987
  H -0.66982145  0.51976334  1.40927451
  H -0.56368436 -1.53276775 -0.84998093
  H -1.97884927 -1.21200638  0.16640969
  H -0.52171559 -1.89086805  0.88272977
