12
opt_min/./Product_11813_0_opt.xyz
  N  28.42192837  16.72565651  9.60611851
  C  28.45685376  15.68195118  8.97872715
  C  28.64419496  14.53672854  8.37714334
  O  28.08458351  13.34642286  8.75254842
  C  28.02655511  12.38074733  7.73803511
  H  27.79555812  11.43983231  8.22492934
  C  27.60110620  12.68022584  6.34178413
  H  26.80878264  12.95244821  5.68872057
  C  28.87962841  12.47203786  6.52588199
  H  29.86829093  12.40425394  6.13988279
  H  29.29753135  14.52960534  7.51293818
  H  27.76664962  17.46884940  9.38141608
