12
opt_min/./Product_5636_0_opt.xyz
  C  1.25493100 -0.14128000  0.51098600
  H  1.32224750 -0.30328914  1.59058909
  H  2.21849088  0.26614489  0.19552014
  C  0.07594015  0.72189264  0.09359658
  H  0.22863140  1.77674280 -0.06232966
  C -0.70117161 -0.16314788 -0.83543138
  H -1.18758647  0.12290366 -1.75543835
  O -0.01988115 -1.40387963 -0.89678109
  C  1.03072217 -1.47301572 -0.16871626
  C -1.25954433  0.18610351  0.51348712
  H -2.10316143  0.86010721  0.54198625
  H -1.28825953 -0.59433124  1.26164589
