11
opt_min/./Product_6223_0_opt.xyz
  O -0.52020500 -1.51447000  1.29463600
  C -1.37020221 -0.91858830  0.68206461
  C -1.16623968  0.17948330 -0.26779350
  C  0.01498821  0.71746467 -0.62386672
  C  1.32173536  0.31680657 -0.13768656
  N  2.32594155  0.94075812 -0.58762065
  H  3.22429104  0.63078163 -0.22286103
  H  1.35797640 -0.49985650  0.58773463
  H  0.04204531  1.52967729 -1.33896483
  H -2.07137051  0.57328695 -0.70732601
  H -2.43966240 -1.18083458  0.80570917
