19
opt_min/./Product_11008_0_opt.xyz
  C  2.35495700 -0.27791600 -0.16531800
  C  1.32684830 -0.14436107  0.95355785
  C  0.02382389  0.52666100  0.51104859
  C -0.73050115 -0.24192483 -0.57241867
  O -1.07262591 -1.57994025 -0.07336024
  C -1.91241925 -1.82778269  0.82666266
  H -2.41610794 -0.92348667  1.24893602
  C -1.97758575  0.50356686 -1.03940989
  H -2.58549776  0.82220861 -0.19784143
  H -1.68864473  1.37939827 -1.60751755
  H -2.57510183 -0.13957254 -1.67968566
  H -0.08401416 -0.43529576 -1.43125394
  H -0.63453168  0.61850531  1.38079807
  H  0.22779043  1.53254003  0.14459702
  H  1.10218032 -1.13267283  1.35866091
  H  1.75614188  0.45692047  1.75623689
  H  3.29823318 -0.63391384  0.23951990
  H  2.02974050 -0.99128156 -0.91566104
  H  2.53075896  0.68153262 -0.64401135
