11
opt_min/./Product_5468_0_opt.xyz
  C  2.01317416 -0.39110131 -0.29235479
  N  1.00408264 -0.24670792  0.73028632
  C -0.24000656  0.04190348  0.45535212
  C -1.38410372  0.34395884  0.17859051
  C -2.70219888  0.70892910 -0.13751609
  O -3.60700401  0.89108468  0.64562665
  H -2.85249481  0.82163721 -1.23487147
  H  1.22805867 -0.54385670  1.66666155
  H  1.84830509  0.35005921 -1.07283097
  H  1.99577758 -1.38730481 -0.74793480
  H  2.99480442 -0.23127690  0.15068751
