13
opt_min/./Product_5900_0_opt.xyz
  C -1.54187200  0.09505900 -0.07009600
  C -0.24486515 -0.46546359  0.53443818
  C  1.01886090  0.27779346  0.01603970
  C  2.11695507 -0.16439119  0.85815171
  H  2.89937736 -0.62829099  0.23462299
  O  1.20636774  0.13248947 -1.38176754
  H  0.35234573  0.07861688 -1.82410650
  H  0.87438359  1.34693391  0.25608245
  H -0.25764477 -0.37884235  1.61907585
  H -0.13265333 -1.52215010  0.28923813
  H -1.34439330  0.88827073 -0.78984892
  H -2.10858941 -0.68179030 -0.57835765
  H -2.17625119  0.51710201  0.70473161
