13
opt_min/./Product_8547_0_opt.xyz
  C -1.66702900 -0.06328300 -0.32127300
  C -0.32815888 -0.56582869  0.18602960
  N -0.20777999 -0.97428206  1.51592348
  O -1.19558688 -0.87976290  2.24112831
  C  0.97927547  0.01173960 -0.36311260
  N  1.68273395  1.14650477 -0.25525082
  H  2.35916536  1.34779809 -0.97632497
  H  1.23361290  1.93761921  0.17755904
  C  0.69241336 -1.18955401 -0.75766940
  H  0.88905611 -2.05909554 -1.32769843
  H -2.39558100 -0.87360053 -0.30836070
  H -2.03491723  0.72808156  0.33276723
  H -1.57684611  0.31637011 -1.33663278
