9
opt_min/./Product_5598_0_opt.xyz
  N -1.82323700 -0.00485400 -0.14164100
  C -0.57398363 -0.12081963  0.33385413
  N  0.43092825  0.28718686 -0.31304384
  C  1.76213755  0.12969953 -0.19067367
  O  2.38100869 -0.89795406 -0.28656537
  H  2.25745547  1.12321565 -0.12128130
  H -0.51024952 -0.57632904  1.32572423
  H -2.61889429 -0.09894213  0.46230619
  H -1.94092402  0.47672602 -1.01875717
