10
opt_min/./Product_4609_0_opt.xyz
  N  1.40360200 -0.08028100 -0.27653300
  C  0.10311607 -0.12903763  0.31208402
  H  0.18288237  0.16364638  1.37885375
  C -1.09609422  0.63385036 -0.21852116
  H -1.12895153  1.68101910 -0.44630062
  N -2.09305374 -0.15516565 -0.31081620
  N -1.65570156 -1.42516420  0.07388357
  N -0.47334751 -1.45859063  0.38673203
  H  1.38117913 -0.34529899 -1.25226597
  H  1.83584939  0.82602809 -0.16585450
