13
opt_min/./Product_5005_0_opt.xyz
  O -1.29595700  1.38782000  0.31606400
  C -0.85394005  0.09215555  0.66669880
  H -1.60064533 -0.27278773  1.36943847
  C -0.54384195 -0.85725140 -0.50970152
  H -0.81447886 -0.50988843 -1.51495494
  H -0.94663605 -1.85390136 -0.35306699
  N  0.88121801 -0.84889309 -0.21002038
  H  1.48004263 -1.66198300 -0.28805705
  C  1.42928615  0.47603543  0.02923622
  H  1.05613911  1.25081994 -0.63260827
  H  2.50059588  0.47238300  0.14846306
  C  0.62995079 -0.10796029  1.15041868
  H -1.01895821  1.58648080 -0.58153884
