14
opt_min/./Product_1394_0_opt.xyz
  C -1.42755100  0.51464700  0.67019400
  C -0.71578343 -0.38117092 -0.32357064
  H -1.14005806 -0.23756037 -1.32291691
  C  0.83387766 -0.42896955 -0.32974385
  C  1.62686643  0.39597452  0.65668835
  H  2.68845282  0.18798612  0.55983375
  H  1.44207523  1.45288247  0.46970115
  H  1.31805675  0.17097409  1.67629484
  H  1.27158966 -0.37990758 -1.33434306
  O  0.71153083 -1.82499483  0.04209425
  C -0.60236235 -1.86363191  0.05512502
  H -2.48611123  0.26526540  0.66965566
  H -1.30270402  1.56596810  0.41456147
  H -1.04866245  0.35640234  1.67877298
