13
opt_min/./Product_8345_0_opt.xyz
  O -1.29673522 -1.16644567  1.83015806
  C -1.55968356 -0.40459265  0.71763227
  C -0.64769121 -0.14001552 -0.18564676
  C  0.75132563 -0.27168926 -0.63378287
  C  1.78356617  0.43539933  0.06003745
  C  2.63789891  1.04513052  0.63720228
  H  3.38753577  1.56987313  1.15070231
  H  1.07010976 -1.22988633 -1.03384746
  C -0.27811649  0.51832315 -1.43587039
  H -0.19190702  1.59755706 -1.44349425
  H -0.62104983  0.09588543 -2.37125322
  H -2.57687192 -0.04114675  0.61202150
  H -2.07678823 -1.19598669  2.39200543
