14
opt_min/./Product_6926_0_opt.xyz
  N  2.57185500 -0.01901300  0.46887300
  C  1.24293374 -0.00513213  0.26983610
  C  0.26618226  0.03249966  1.30275276
  C -0.89758989  0.01163561  0.57799554
  N -2.18838310  0.10773516  1.06293901
  H -2.86876620 -0.49958994  0.62852590
  H -2.21909931  0.06366449  2.07198448
  C -0.69394540 -0.00566672 -0.93742783
  H -1.13918762 -0.87093231 -1.43865803
  H -1.09407222  0.90968118 -1.38535614
  N  0.74131788 -0.04173865 -0.99280040
  H  1.27152765 -0.06348402 -1.84731665
  H  3.22992209 -0.10084808 -0.28540739
  H  2.90461661 -0.02670559  1.41402041
