12
opt_min/./Product_3330_0_opt.xyz
  C  2.46087600 -0.24430000 -0.31205200
  C  1.17703090 -0.07355713 -0.35083068
  C -0.10615247  0.04441352 -0.40917278
  C -1.27506381 -0.86255415 -0.70492666
  H -1.33517667 -1.21394833 -1.74082642
  H -1.41159294 -1.70635160 -0.02121543
  O -2.18339852  0.20766542 -0.44159255
  C -1.12433738  1.13747220 -0.19274893
  H -1.10209201  1.94537112 -0.93084144
  H -1.17076878  1.56051693  0.81509956
  H  2.97520579 -0.51149491  0.59695818
  H  3.08210923 -0.08038638 -1.17818638
