8
opt_min/./Product_359_0_opt.xyz
  N -0.58408200 -0.69018700  0.46036900
  H -1.20080084 -1.34579787  0.91702119
  C -0.85856963  0.56643855  0.04018782
  H -1.83619055  0.98310042  0.17787638
  C  0.29704172  1.10978167 -0.53962635
  N  1.14191527  0.05864661 -0.38040833
  H  2.10593447  0.04485877 -0.67605908
  N  0.65484078 -1.02537480  0.20833857
