13
opt_min/./Product_7975_0_opt.xyz
  N -1.45727500  1.78415800 -0.44583900
  C -1.50931466  0.55651643 -0.26489255
  O -2.55878199 -0.32198400 -0.04627160
  C -1.55543112 -1.37210933  0.04630011
  H -1.82172090 -2.38913962  0.22090204
  C -0.51758916 -0.54139909 -0.16077217
  N  0.83176607 -0.57177716 -0.26525215
  C  1.59302419  0.64351529 -0.14121827
  H  1.89666619  0.84456899  0.89460395
  H  0.96926042  1.46696704 -0.48225268
  H  2.48710054  0.57320314 -0.76225501
  H  1.28408153 -1.42863966  0.01401864
  H -2.35595900  2.25879249 -0.44277124
