15
opt_min/./Product_11785_0_opt.xyz
  C -2.24189600  0.32281500 -1.09779400
  N -0.94401635  0.38682686 -0.47289932
  C -0.58527763 -0.36624878  0.61195715
  N -1.29272780 -1.22204048  1.23221218
  H -2.19488559 -1.41375056  0.80557668
  C  0.74752194 -0.12296915  1.20690758
  O  1.68059278 -0.08026347  0.29714114
  C  3.01059299  0.10733651  0.76538475
  H  3.01170102  0.24318147  1.84921157
  H  3.59407551 -0.77466343  0.49702459
  H  3.42977804  0.98187853  0.26554447
  H -0.22476547  0.92205826 -0.92919122
  H -2.38735722 -0.62031419 -1.63700016
  H -2.34511866  1.14928951 -1.79650674
  H -3.01888901  0.41044933 -0.33305229
