16
opt_min/./Product_3946_0_opt.xyz
  C  2.37914200  0.41442400 -0.99838700
  C  1.15360729  0.25130921 -0.10064871
  C  0.22701476 -0.77822151 -0.63865576
  C -1.11740147 -0.65653219 -0.61182480
  C -1.74364399  0.53870096 -0.18576341
  C -3.08964980  0.41880299  0.39859361
  H -3.76440462  1.00432272 -0.23372814
  H -3.08984820  0.93486720  1.36257466
  H -3.49047985 -0.59519738  0.52770583
  H -1.71238242 -1.49839114 -0.97436065
  H  0.68968482 -1.69302597 -0.99354962
  H  1.48421780 -0.04079103  0.90171331
  H  0.60231487  1.19283174 -0.01514677
  H  2.07317447  0.75735595 -1.98567563
  H  3.06676319  1.14477817 -0.57822600
  H  2.90579614 -0.53220345 -1.11171302
