10
opt_min/./Product_9380_0_opt.xyz
  O  0.75452880 -1.13475699  1.85563674
  C  0.63176289 -0.51943651  0.83739536
  C -0.33166354 -0.85271465 -0.28044880
  C -0.90022886  0.32941143 -0.90240104
  C -1.34168008  1.31937235 -1.40776550
  H -1.73496514  2.18207786 -1.85587649
  H -1.11435337 -1.50337356  0.11976122
  H  0.22710302 -1.41724540 -1.03904470
  N  1.41376983  0.59271788  0.56166770
  C  2.06793429  1.53091293  0.32354236
