13
opt_min/./Product_4734_0_opt.xyz
  C  1.92763300  0.37584900 -0.24342700
  C  0.47851432  0.58089499  0.12707528
  H  0.31989171  1.08766584  1.07602553
  O -0.40495402  0.97399280 -0.88643321
  C -0.57713547 -0.31204783 -0.35816448
  C -1.83294858 -0.56956253  0.44261950
  H -2.69402240 -0.58687092 -0.21987974
  H -1.98293406  0.21670177  1.17456466
  H -1.76866822 -1.52637263  0.95409817
  H -0.29657773 -1.11962547 -1.02887829
  H  2.42768730  1.33747440 -0.31142519
  H  2.43088098 -0.23249907  0.50219883
  H  1.99721538 -0.11199423 -1.21031568
