11
opt_min/./Product_743_0_opt.xyz
  O  0.65714133 -1.18265804  0.70306796
  C  0.56359464 -0.01059397  0.48702161
  H  1.43363767  0.66624871  0.57865739
  C -0.70794252  0.67387817  0.02818808
  H -0.60662235  1.75566912  0.09786129
  H -1.53994072  0.34542067  0.65405446
  C -0.98768191  0.23033187 -1.42610084
  H -1.46203802 -0.75451451 -1.43091163
  H -1.64379897  0.94218760 -1.93095655
  C  0.25480081  0.11774060 -2.15263223
  N  1.24683633  0.01717783 -2.71036394
