14
opt_min/./Product_5738_0_opt.xyz
  C  2.94919900  0.05693400  0.50045800
  O  1.72106848 -0.61960508  0.37740231
  C  0.65061504  0.18532020  0.08289446
  C -0.59540709 -0.25407811  0.20575120
  O -1.66480002  0.51951252 -0.16681551
  C -2.91461679  0.02719155  0.25427610
  H -3.66382297  0.71734450 -0.13238603
  H -2.98314917 -0.00740733  1.34737635
  H -3.10545825 -0.97559055 -0.14357253
  H -0.80085849 -1.25214074  0.56856354
  H  0.86273908  1.17881369 -0.29006459
  H  3.70522365 -0.71095123  0.65806642
  H  3.18725936  0.62148166 -0.40818557
  H  2.94455458  0.74380350  1.35395764
