16
opt_min/./Product_6863_0_opt.xyz
  C  3.25316300  0.07259000 -0.70980200
  N  1.88416409  0.27028362 -1.05681556
  C  0.99415023  0.25509691 -0.17778896
  C -0.43811663  0.47780741 -0.51371571
  H -0.73170729  1.52556267 -0.48226215
  C -1.46978673 -0.52551314 -0.22606597
  C -2.88163377 -0.13161041  0.13411522
  H -3.09357693  0.87777747 -0.20470682
  H -3.58293457 -0.80813994 -0.34301561
  H -3.01790701 -0.18172282  1.21035981
  H -1.15365936 -1.48437167  0.17693374
  O -1.03832049 -0.26683968 -1.53396794
  H  1.21150983  0.09673627  0.89725958
  H  3.61733727 -0.78582208 -1.26894102
  H  3.42297039 -0.08227805  0.36500190
  H  3.80867214  0.94411518 -1.04725836
