12
opt_min/./Product_3460_0_opt.xyz
  N -2.09345200  0.21548900  0.78801000
  C -1.02836935  0.41634678 -0.02543993
  O -0.95444259  1.35382248 -0.77794555
  C  0.07951699 -0.62455756  0.17528485
  N  1.06881016 -0.51254689 -0.84724969
  C  2.04049214  0.26145092 -0.70346766
  H  2.22658872  0.86733842  0.18798614
  H  2.75025066  0.34774122 -1.51174419
  H  0.48506116 -0.46682035  1.18812619
  H -0.36650760 -1.62306684  0.10331658
  H -2.15034368 -0.56272595  1.42153512
  H -2.87325474  0.85162057  0.73194881
