15
opt_min/./Product_11587_0_opt.xyz
  C -0.46769511 -1.32421394  0.15209423
  C -0.35206451  0.19892324  0.27367431
  N  0.91787919  0.66602858 -0.27910308
  C  2.05034862  0.50382794  0.61605037
  H  2.33555515 -0.54720619  0.62444208
  H  1.82249300  0.82270162  1.64252751
  H  2.87841140  1.09126117  0.23167836
  H  0.82515866  1.63078551 -0.58029818
  C -1.44276551  0.84354323 -0.43826031
  N -2.29102543  1.34615309 -1.03869499
  O -3.17506272  1.86005766 -1.64579051
  H -0.46055882  0.48568004  1.34417482
  H -1.28721179 -1.68442367  0.76854635
  H -0.66895839 -1.61267591 -0.87694333
  H  0.46433137 -1.78194083  0.46190834
