12
opt_min/./Product_3873_0_opt.xyz
  C  2.19044200 -0.03020400 -0.24094400
  C  0.86721717 -0.10515595 -0.26619666
  H  2.68324345  0.92334884 -0.22901544
  O  0.20242265 -1.30970297 -0.29192294
  C -1.13746170 -1.04256956 -0.27686502
  H -1.76969392 -1.91114554 -0.28802259
  C -1.42703912  0.25106178 -0.24987794
  H -2.39909310  0.70046445 -0.23320414
  C -0.13905893  1.02197637 -0.25563879
  H -0.04705238  1.64442620 -1.15108590
  H -0.02005660  1.66960775  0.61494658
  H  2.79891801 -0.91495401 -0.26111390
