16
opt_min/./Product_3539_0_opt.xyz
  C -1.77639300  0.76791400 -0.54382300
  C -1.10817804 -0.36779505  0.22056233
  C  0.10350011 -0.95249109 -0.50128290
  C  1.25956999  0.04299967 -0.67286637
  C  1.71540292  0.55472393  0.65268375
  O  2.95700319  0.41997791  0.89772137
  H  3.52004454 -0.02313788  0.20463621
  H  0.90366561  0.89986161 -1.24795183
  H  2.08050599 -0.43889821 -1.24222246
  H  0.46921453 -1.81153849  0.06748966
  H -0.19891670 -1.31180613 -1.48869654
  H -1.83311485 -1.17263967  0.36450515
  H -0.79461475 -0.00702718  1.20022153
  H -2.69453138  1.06403988 -0.04245791
  H -1.12589946  1.63687811 -0.59265337
  H -2.02441164  0.45600175 -1.55712408
