14
opt_min/./Product_9322_0_opt.xyz
  C -49.37718198  15.99949217  1.51923576
  C -48.42479901  15.04211200  0.87985835
  C -47.14734504  15.22559182  1.62602624
  O -47.43816715  15.15383444  3.02594620
  C -46.47765662  15.17879800  3.81653375
  C -45.37150684  15.27988022  2.87604868
  N -44.31133117  14.94657520  2.52155084
  H -46.72912523  16.22062211  1.43158932
  H -46.40057564  14.47071659  1.36061928
  H -48.77479147  14.01316629  0.96755424
  H -48.26792886  15.26409275 -0.17580927
  H -50.33662012  15.98305077  1.00396528
  H -48.99285772  17.01665688  1.47637646
  H -49.55225179  15.73810010  2.55856496
