12
opt_min/./Product_4359_0_opt.xyz
  O  2.39095400 -0.63177600 -0.11879200
  C  1.53135622  0.37886924 -0.49759919
  C  0.23416256  0.28864687 -0.25663847
  C -0.70789837 -0.67832425  0.39302713
  H -0.77962325 -1.64908040 -0.09549872
  H -0.56781029 -0.80683670  1.46507985
  C -1.76517786  0.34822563 -0.02000872
  H -2.28858524  0.85674610  0.79412730
  H -2.48302372  0.01043146 -0.77338122
  O -0.76230376  1.19253414 -0.60251445
  H  1.95259097  1.22275431 -1.01908855
  H  3.29654594 -0.33091730 -0.22852754
