13
opt_min/./Product_7925_0_opt.xyz
  C -0.88733700  0.90235600 -0.34959700
  H -0.75616739  1.73045997 -1.01005967
  C -2.01376870 -0.10967331 -0.18820098
  H -2.63951427 -0.28202967 -1.05693878
  H -2.52186045 -0.19072319  0.76235362
  C -0.59272271 -0.51483528 -0.27389663
  N  0.43275829 -1.32005800 -0.68933606
  C  1.51064601 -0.83650500 -0.21438893
  H  2.46973583 -1.24505837 -0.48828952
  C  1.31530825  0.40695541  0.63257724
  H  1.78819917  0.34900023  1.61242979
  H  1.73881643  1.25895334  0.08058993
  N -0.13022597  0.46285985  0.80247744
