11
opt_min/./Product_2719_0_opt.xyz
  C -1.23884500 -0.46419400  0.42070000
  C -0.52478235  0.54205351 -0.41661591
  C  0.79900292  0.64867257 -0.57668746
  C  1.79695636 -0.21187407  0.04400076
  O  2.98864152 -0.11374898 -0.12637463
  H  1.39695415 -1.00613192  0.70571717
  H  1.20005197  1.42154195 -1.21643075
  H -1.15460268  1.24194510 -0.95207349
  H -0.79504724 -0.53673526  1.40941079
  H -1.18688572 -1.44658214 -0.04556698
  H -2.28494107 -0.19883012  0.53071947
