13
opt_min/./Product_877_1_opt.xyz
  O  2.56178700 -0.82441800 -0.33579400
  C  1.54312791 -0.57482024  0.62366417
  C  0.57555713  0.47604049  0.18300222
  N -0.66914398  0.19694614 -0.03836699
  C -1.90666462  0.81323077 -0.48356338
  H -1.98228090  1.08666350 -1.53641334
  H -2.35570569  1.55896294  0.17287172
  C -1.71564684 -0.57494115 -0.06289589
  H -2.06886047 -1.54819962  0.12956852
  H  0.92641144  1.46868174 -0.04399744
  H  1.01948062 -1.52458133  0.74423315
  H  2.01750761 -0.30054067  1.58033092
  H  2.96486069  0.02072732 -0.56567566
