13
opt_min/./Product_704_0_opt.xyz
  C -1.40258600  0.00182300  0.47587500
  N -0.20645294  0.35933721 -0.29701031
  H -0.49996089  0.91194407 -1.11000816
  C  0.92611600  0.93823531  0.44294861
  H  0.87654864  1.86728647  0.96840089
  C  1.83762476 -0.03152936  0.11112778
  O  3.00325693 -0.33479285  0.27021477
  C  0.68464430 -0.77671783 -0.69116000
  H  0.80404039 -0.89045558 -1.76556325
  H  0.36590319 -1.71320364 -0.23907345
  H -1.08895171 -0.53263194  1.37034959
  H -1.93588363  0.90447262  0.77102531
  H -2.06725959 -0.63029511 -0.11366261
