13
opt_min/./Product_2088_0_opt.xyz
  C -1.61241500 -0.31809800  0.51964800
  C -0.49020967  0.12303847 -0.43701274
  H -0.93666107  0.62713844 -1.30125104
  C  0.55907988  1.00350378  0.17468393
  H  0.33394937  1.93497543  0.65992959
  C  1.75020986  0.42302195 -0.01905933
  H  2.72269092  0.77165007  0.27720160
  C  1.47844686 -0.82121174 -0.71623123
  H  2.22484089 -1.53485034 -1.02760803
  N  0.23945405 -1.01118272 -0.95959210
  H -1.43682023  0.06538822  1.52151617
  H -2.58198025  0.03227572  0.17647798
  H -1.63401673 -1.40472565  0.55045768
