9
opt_min/./Product_2214_0_opt.xyz
  N  2.38485393  0.05901564  0.13356932
  C  1.13369398 -0.06875031 -0.16555753
  N  0.00975187 -0.20764452 -0.47662474
  C -1.26593384 -0.27845949 -0.75604666
  N -2.06187146  0.72058821 -0.37241359
  O -3.27868823  0.62877392 -0.65135271
  H -1.59520867 -1.16606384 -1.29596379
  H  2.73429112 -0.23020608  1.03643197
  H  3.00679105  0.58152249 -0.46858782
