13
opt_min/./Product_8349_0_opt.xyz
  O  2.83862100  0.97495600  0.74476700
  C  2.13762244  0.10873268 -0.07711999
  C  1.02860697 -0.48251309  0.24781174
  C -0.10972248 -1.04341051  0.55026270
  C -1.38662946 -0.48945208  0.20753695
  C -2.60583260 -0.12409588  0.48297898
  H -3.41415183 -0.01010882  1.16089607
  C -2.16961977  0.10978956 -0.92998271
  H -2.52786702 -0.54128497 -1.72146414
  H -1.95731342  1.12181854 -1.26455632
  H -0.13896769 -1.98646028  1.08155747
  H  2.63261467 -0.11888586 -1.01947151
  H  2.55484272  1.87922563  0.57800363
