13
opt_min/./Product_10718_0_opt.xyz
  C  2.31980300  0.05806600  0.19671400
  O  1.10407053  0.18610527  0.94527289
  C  0.01124204  0.07048696  0.19686606
  C -1.35967809  0.55918702  0.29105567
  O -0.43404547  1.07913225 -0.65120826
  H -1.87109505  1.20077997  0.98102610
  C -1.76476298 -0.80683017 -0.27167573
  H -2.30115356 -1.44093609  0.43327228
  H -2.23496060 -0.79784761 -1.25518280
  O -0.38170825 -1.18763953 -0.34201287
  H  3.11182227 -0.02166202  0.93763703
  H  2.28735819 -0.83813259 -0.42442188
  H  2.46698025  0.94141720 -0.42920890
