10
opt_min/./Product_3704_0_opt.xyz
  C -2.11824100 -0.14115500 -0.21904300
  H -2.87369488  0.30753419  0.41173142
  H -2.42448378 -0.39561568 -1.22424143
  C -0.72500563  0.00804606  0.10072636
  N  0.28854899  0.70989130  0.15920559
  C  1.55633917  0.37520459  0.57202418
  N  2.23558779 -0.50110977 -0.01994731
  H  3.20315344 -0.57112662  0.28320170
  H  1.89075878  1.07659687  1.35271953
  O -1.28892741 -1.14340662  0.43706855
