10
opt_min/./Product_434_0_opt.xyz
  O  1.97586800  0.01348400 -0.89815600
  C  0.91664468  0.33751391 -0.18095226
  C  0.38192714  0.71205695  0.94649530
  H  0.43845474  1.03982716  1.95187429
  C -0.56865464  0.47589956 -0.20635272
  N -1.37871520 -0.74774295 -0.19075233
  N -2.35327139 -0.95864415 -0.82935755
  H -0.94365710 -1.45350269  0.49192522
  H -1.07620133  1.26439434 -0.75395694
  H  1.73287360 -0.20088853 -1.80923634
