16
opt_min/./Product_8008_0_opt.xyz
  C  3.46013400  0.05411800 -0.19686300
  C  2.19816981 -0.34538313  0.02066439
  C  1.06080264  0.42918562  0.30098231
  C -0.15884034  0.25653119 -0.48885754
  C -1.43148444  0.47755012  0.31023028
  H -1.35075307  1.25762530  1.05822861
  C -2.74731011  0.22643171 -0.31856354
  H -2.77473849 -0.12422431 -1.34482344
  H -3.60151846  0.82345701 -0.02943904
  N -2.23800903 -0.64367159  0.72085648
  H -1.90517973 -1.54366044  0.38435684
  H -0.23032207 -0.66930374 -1.08320234
  H -0.06245796  1.09029480 -1.20280702
  H  2.01218390 -1.41648121  0.11581275
  H  4.26513645 -0.65079978 -0.30220827
  H  3.68800507  1.08848997 -0.38856219
