16
opt_min/./Product_5039_0_opt.xyz
  C  1.98374000  0.21883800  0.02521000
  C  0.86306854 -0.81659329 -0.00659742
  C -0.47249202 -0.21768809  0.29586512
  C -0.94571536  1.18009888  0.51809877
  H -0.28872525  2.00201199  0.26370886
  H -1.56893745  1.38983547  1.38336115
  C -1.54159925  0.36309116 -0.58637478
  H -1.52021519  0.48984936 -1.64699081
  C -1.82751847 -0.84759885  0.24815965
  H -2.49183151 -0.72379236  1.09829277
  H -1.93243553 -1.80822411 -0.24051239
  H  0.83697848 -1.28749176 -0.99068883
  H  1.07571869 -1.60265555  0.72555164
  H  2.94235824 -0.26043684 -0.15907675
  H  1.81894092  0.97639129 -0.73812811
  H  2.02790347  0.70887602  0.99521867
