12
opt_min/./Product_3764_0_opt.xyz
  C -1.66537700 -0.43098000  0.01897200
  C -0.30310516  0.16088326 -0.18514894
  N  0.78370642 -0.55177043  0.13758414
  C  2.05653702 -0.22986562  0.05985530
  H  2.79860729 -0.94356072  0.35264843
  H  2.33806019  0.73516136 -0.31271318
  H  0.57691434 -1.47895752  0.50302727
  C -0.17315485  1.44291594 -0.69398010
  N -0.05390824  2.51420948 -1.10762017
  H -1.58729069 -1.49052224  0.26219450
  H -2.19454810  0.07040252  0.83231188
  H -2.27398371 -0.32779367 -0.87958326
