12
opt_min/./Product_3455_0_opt.xyz
  N  2.33079000 -0.04751900 -0.11185400
  C  0.98894023 -0.07430257  0.02201955
  N  0.31772932 -0.91279474  0.69650149
  C -1.08084376 -0.62273482  0.46177218
  H -1.51384113 -1.42791796 -0.14378937
  H -1.63149064 -0.56285812  1.40042617
  C -1.05474640  0.73091490 -0.30565400
  H -1.35434486  1.56156789  0.34234410
  H -1.67742011  0.72966673 -1.20106179
  O  0.30871070  0.88795043 -0.67498077
  H  2.76580713  0.75150867 -0.53516792
  H  2.87157332 -0.66076675  0.46771374
