16
opt_min/./Product_8935_0_opt.xyz
  C -0.79491400 -1.19978600 -0.54071300
  N -0.70301603 -0.02108832  0.29626250
  C  0.53521732  0.69849525  0.07803365
  C  1.70116112 -0.09997162  0.63311924
  C  2.53606707 -0.73584462 -0.12153343
  O  3.32074182 -1.23047303 -0.82862654
  H  1.68898128 -0.29674016  1.69110386
  H  0.48329468  1.63969000  0.62402295
  H  0.72440898  0.90718828 -0.98655510
  C -1.87108045  0.84202879  0.28217432
  H -2.13628326  1.11769865  1.30368550
  H -2.72010554  0.31428918 -0.14735226
  H -1.71888340  1.75718846 -0.29679118
  H -1.80112082 -1.60520074 -0.51033259
  H -0.10439621 -1.95467065 -0.17459237
  H -0.54416715 -0.98073899 -1.59315732
