13
opt_min/./Product_1202_0_opt.xyz
  C  2.22173000  0.47342100  0.33619000
  C  0.85891691 -0.13442789  0.24174963
  O  0.68969518 -1.19021372  1.06773983
  H -0.21354145 -1.53039368  1.01217114
  N -0.00715404  0.34860623 -0.52977411
  C -1.27725246 -0.16787625 -0.73062945
  C -2.38396624  0.41678029 -0.28898618
  H -2.34338055  1.29381382  0.33225410
  H -3.36187499  0.04397743 -0.53254805
  H -1.33176505 -1.04573442 -1.37120053
  H  2.19037203  1.33700581  0.99173305
  H  2.92226159 -0.25230807  0.73681832
  H  2.53740144  0.79985917 -0.64815805
