8
opt_min/./Product_3772_0_opt.xyz
  N  1.31658900 -0.01100400 -0.01913700
  H  2.31843635 -0.09217671 -0.03226740
  C  0.63379307  1.14293608 -0.03179757
  N -0.65105222  0.68178829 -0.00384001
  H -1.45611818  1.28270310 -0.00382634
  C -0.65408421 -0.68496145  0.02308902
  H -1.53422288 -1.29070137  0.04794208
  N  0.55488609 -1.13386198  0.01414724
