16
opt_min/./Product_7636_0_opt.xyz
  C -1.57308100  0.37462900 -0.96019400
  C -0.62690032 -0.04136037  0.14429818
  H -1.14395637 -0.09400965  1.10504834
  C  0.72235597  0.79057456  0.23720820
  C  0.84297523  1.49431628  1.49812700
  H  0.10443070  2.31770091  1.51107532
  H  0.79224139  1.43463516 -0.64671366
  C  1.49191016 -0.51936783  0.03200816
  H  2.42011619 -0.63648474 -0.50598075
  N  1.05966131 -1.45227977  1.05502501
  H  1.59943898 -2.31391971  1.03481690
  C  0.22963073 -1.28249578 -0.11934115
  H -0.00708156 -2.07238729 -0.81413835
  H -1.04870369  0.47422276 -1.90894915
  H -2.35151524 -0.38035791 -1.07181350
  H -2.05028224  1.32385252 -0.72316850
