15
opt_min/./Product_10998_0_opt.xyz
  C -1.46448700  0.74954800  0.12208200
  C -0.51052132 -0.39767017  0.36507971
  O -1.02379006 -1.45264510  1.11834285
  H -1.77340024 -1.85235387  0.65662213
  C  0.50585712 -0.73222845 -0.70470560
  H  0.53072009 -0.09840258 -1.58018842
  H  0.75118758 -1.76905454 -0.88749995
  C  0.94520441 -0.14104848  0.60334469
  O  1.42316103  1.20048200  0.67703236
  C  2.16228634  1.74977705 -0.18238510
  H  2.41148312  1.07634397 -1.04691347
  H  1.46505452 -0.76537819  1.31946435
  H -2.15202037  0.51988713 -0.69245894
  H -2.04389044  0.93239827  1.02601008
  H -0.91519951  1.65341462 -0.13149369
