13
opt_min/./Product_6007_0_opt.xyz
  C  0.78598700 -1.15206200 -0.10016200
  H  0.52901508 -1.89871041  0.66536762
  H  1.43905399 -1.62151150 -0.84564577
  N -0.40284353 -0.65917629 -0.75509509
  C -1.41431252 -0.16955860  0.16679783
  H -2.42599356 -0.23424752 -0.20762733
  H -1.30716735 -0.37641119  1.22423012
  C -0.46427627  0.75768180 -0.47789066
  H -0.78327192  1.40712518 -1.28003153
  C  0.76003698  1.13380945  0.33434962
  H  1.38335938  1.86097440 -0.19459559
  H  0.49651508  1.53702365  1.31934779
  O  1.48539536 -0.07357241  0.50526673
