12
opt_min/./Product_7475_0_opt.xyz
  N  0.34010224  1.73978726  0.84745400
  C -2.86294932 -22.26697705  4.38839320
  C -10.27666516  1.74393704  9.38453266
  N  5.65405751  3.72103596  0.68706462
  H  17.21623570 -25.70623911  6.12231982
  N  0.06400734  65.90425281 -26.01238445
  C -21.32439390  1.81231674 -21.83941603
  O  7.07311266 -18.17439962 -8.70202154
  H  2.51361992 -70.80651112  55.65702715
  H  44.76949839  5.35225826  0.68814132
  H  5.65317244  13.51979831 -6.20691502
  H -7.52419807  8.62739058 -0.57113245
