13
opt_min/./Product_10715_0_opt.xyz
  C  2.74738300  0.09337500  0.52384900
  O  1.40232224 -0.03271936  0.97305001
  C  0.44596396  0.06535462  0.05656666
  O -0.73421484 -0.09503593  0.65824685
  C -1.87821141  0.02624609 -0.19248823
  C -3.05692260 -0.56095803  0.38702691
  H -3.91991221 -0.34019218 -0.25830430
  H -1.95831650  1.06590828 -0.54544011
  H -1.70113245 -0.57716196 -1.10497892
  O  0.60021260  0.24380745 -1.12013663
  H  3.13180918  1.07073329  0.81906192
  H  3.32206661 -0.69432652  1.00752793
  H  2.79539488 -0.00538830 -0.56182080
