8
opt_min/./Product_4802_0_opt.xyz
  N -1.37998200 -0.67911900 -0.47126400
  C -0.74535735  0.18382288  0.18231116
  C  0.72553530  0.23359746  0.14983391
  N  1.38998104 -0.58412479 -0.53147316
  H  2.40062690 -0.47327311 -0.49298245
  H  1.15769242  1.04001022  0.76849536
  H -1.20391460  0.95967386  0.82028757
  H -2.39344430 -0.63830437 -0.38929080
