13
opt_min/./Product_7973_0_opt.xyz
  N  0.88420698  2.68503300  0.30550201
  C  0.60685664  1.57877297  0.22064416
  C  0.30538303  0.18503000  0.14588407
  C -1.16621192 -0.16115383  0.32506242
  O -1.92870730  0.70919041 -0.47894064
  H -2.83741935  0.39816520 -0.51060803
  H -1.30814073 -1.21174741  0.05207697
  H -1.42427279 -0.04272724  1.38770354
  C  1.20167191 -0.66267889 -0.69689193
  H  2.00706468 -0.18828735 -1.24137662
  H  0.77557693 -1.52094595 -1.19141508
  N  1.24525968 -0.74809992  0.73661756
  H  2.06311768 -0.32776148  1.16403697
