12
opt_min/./Product_6402_0_opt.xyz
  C -1.82513300  0.06030900  0.26351900
  C -0.44487948 -0.19512369 -0.27761549
  O -0.24593475 -0.67235030 -1.36711882
  C  0.69529900  0.20833061  0.63726166
  N  1.93425533 -0.43931147  0.25889313
  H  1.89035513 -0.70951119 -0.71961830
  H  2.72726341  0.17557700  0.39276543
  H  0.73303477  1.31235676  0.57150553
  H  0.45172905 -0.05855092  1.67265086
  H -1.99213168 -0.57071697  1.13455702
  H -1.91791422  1.10053715  0.56968102
  H -2.57651780 -0.16488387 -0.48946073
