13
opt_min/./Product_6688_0_opt.xyz
  C -2.01504100  0.40934000  1.10367200
  C -0.78618506  0.12493811  0.68417045
  C -0.51776858 -0.35349293 -0.65854572
  N  0.60272189 -0.65458703 -1.15042176
  C  1.84895862 -0.60550917 -0.54593199
  N  2.51294844  0.56949111 -0.77775454
  H  3.50607799  0.56505968 -0.60783887
  H  2.15922770  1.22913462 -1.44881693
  O  2.32931898 -1.53026474  0.06448902
  H -1.38136628 -0.47949029 -1.31029173
  H  0.06731983  0.22727421  1.34191394
  H -2.20747987  0.75260123  2.10532011
  H -2.86679213  0.30221614  0.45143587
