9
opt_min/./Product_5588_0_opt.xyz
  N -1.99188200  0.74604200  0.77883500
  C -1.44826377  0.12451553 -0.17444567
  N -0.09947262  0.17247215 -0.38655937
  C  0.76909835  0.03477255  0.51822207
  O  2.05625568  0.20130342  0.28319671
  H  2.18304570  0.50597246 -0.62966149
  H  0.56645113 -0.28394522  1.54295462
  H -1.96803303 -0.42187353 -0.97290704
  H -3.00783112  0.71625016  0.78309684
