14
opt_min/./Product_5732_0_opt.xyz
  C  1.50971800 -0.43995000 -0.27433200
  C  0.31957400  0.12858590  0.47815444
  H  0.58951028  0.32980019  1.51690701
  C -0.42886202  1.31054280 -0.20475711
  H -0.54223901  2.19567271  0.41964481
  H -0.02118810  1.59984658 -1.17167791
  C -1.62896461  0.39851201 -0.25235691
  H -2.62129662  0.55422813 -0.63301534
  C -0.98643851 -0.61186493  0.32969244
  O -1.27416451 -1.87145614  0.72038271
  H -2.17496182 -2.10263951  0.46733909
  H  1.24482637 -0.63827044 -1.31008417
  H  1.83326045 -1.37197392  0.18255696
  H  2.33807331  0.26511898 -0.25502481
