13
opt_min/./Product_5993_0_opt.xyz
  C  2.08619700  0.16537900  0.02695100
  C  0.61154739  0.26519360 -0.08857443
  C -0.11649369  1.37120246 -0.64455482
  C -1.41389289  0.96013306 -0.48036417
  H -2.29903468  1.49748074 -0.77538179
  C -1.54595375 -0.40961582  0.14684231
  H -2.08634113 -0.45336582  1.09527697
  H -2.03971705 -1.07922631 -0.56588379
  N -0.16065371 -0.74427975  0.32181557
  H  0.16887806 -1.61052152  0.72646592
  H  2.53295689  0.25048703 -0.96292445
  H  2.45460154  1.00548567  0.61384747
  H  2.40304867 -0.76911744  0.48869268
