10
opt_min/./Product_749_1_opt.xyz
  C  1.84688700  0.02502700 -0.01441400
  C  0.55667257  0.00715954  0.55263263
  H  0.50684743  0.08789822  1.63433068
  C -0.53181510  0.80970024 -0.21044889
  H -1.14719960  1.44892049  0.40516360
  H -0.23172677  1.25690513 -1.14657887
  C -0.67426998 -0.63923238 -0.11795775
  H -0.47413145 -1.24446229 -0.99130187
  H -1.40620211 -1.05828723  0.55564169
  H  1.78848075 -0.10641700 -1.11144775
