10
opt_min/./Product_4119_0_opt.xyz
  C  1.57605300  0.09795900 -0.20868900
  O  0.79593702 -0.63677155  0.51471172
  C -0.48735212 -0.61551877  0.60031240
  C -1.35943374  0.32419194 -0.16106164
  H -1.35224775  0.10891086 -1.23367913
  H -1.01437526  1.35379288 -0.03720436
  H -2.37979370  0.25053489  0.19922368
  H -0.90024251 -1.37604805  1.23932365
  H  1.21464522  0.87549394 -0.85964074
  H  2.62687500 -0.05864177 -0.06667920
