13
opt_min/./Product_6510_0_opt.xyz
  C  1.61398700  1.72752200  1.12931700
  C  1.06366397  0.88265874  0.48245451
  C  0.38357029 -0.12142746 -0.28039733
  H  0.87646677 -0.27967226 -1.24165105
  C -1.17809805  0.06638483 -0.43220738
  C -1.45019426  0.39758419 -1.78855256
  H -1.90705602 -0.44461747 -2.32931815
  H -1.53011916  0.84675936  0.25243286
  O -1.40135257 -1.25453289  0.13313949
  C -0.02381825 -1.42912815  0.42532872
  H  0.17134074 -1.44189708  1.50218178
  H  0.37816502 -2.33833920 -0.03172546
  H  2.09752162  2.46901236  1.69507378
