16
opt_min/./Product_1513_0_opt.xyz
  C -0.04464500  1.33982800 -0.75142500
  C -0.09513622  0.00275406 -0.04706459
  C  1.27439866 -0.63345965  0.07880970
  C  2.14733234 -0.05189026  1.08187739
  H  3.19261415 -0.34935810  0.88329273
  H  1.18073098 -1.60311803  0.61147800
  H  1.69184260 -0.86496486 -0.91414770
  C -1.28389845 -0.88795862 -0.25596077
  H -1.13739197 -1.95738846 -0.30151048
  H -2.07555206 -0.53854459 -0.90182482
  C -1.08636163 -0.19124884  1.05994552
  H -0.79232299 -0.77568892  1.91761462
  H -1.74526836  0.62581822  1.30865357
  H  0.56418164  2.03480127 -0.17624555
  H -1.04143220  1.75654951 -0.86580295
  H  0.39972100  1.23493330 -1.74137526
