13
opt_min/./Product_6500_1_opt.xyz
  O  3.40604300 -1.00513300  0.55422600
  C  2.46379891 -0.35877576  0.35948879
  N  1.63637016  0.45232243  0.09749533
  C  0.24917566  0.74158567  0.09121195
  C -0.60058005 -0.47274793 -0.30587234
  C -2.04364543 -0.09217672 -0.39658235
  N -2.88355560 -0.62918307  0.35997375
  H -3.84800120 -0.32383906  0.24731267
  H -2.26573908  0.67383363 -1.15256182
  H -0.26412738 -0.83274856 -1.28202045
  H -0.48841517 -1.26581185  0.43402299
  H -0.04515358  1.09310353  1.08739698
  H  0.10459180  1.55851253 -0.62363365
