15
opt_min/./Product_7588_0_opt.xyz
  C -0.71090400  1.21462700 -0.58890500
  C -0.41763189 -0.16993254 -0.06257357
  C  0.88385452 -0.31069459  0.73124722
  C  2.04773000  0.05044854 -0.15649849
  O  2.45088056  1.16444218 -0.33055825
  H  2.49960384 -0.80747195 -0.69226278
  H  0.85014249  0.36690820  1.58475837
  H  0.98075087 -1.34112719  1.06946863
  C -1.51307186 -1.09305183  0.24967113
  H -2.54069086 -0.79062567  0.08687463
  H -1.38445802 -1.85105559  1.01463677
  O -0.72843675 -1.24984952 -0.89996374
  H -1.68383087  1.23383252 -1.07078532
  H -0.70661222  1.92829306  0.23169686
  H  0.04400105  1.51472214 -1.30987490
