17
opt_min/./Product_11166_0_opt.xyz
  C  1.34152400 -0.77814200 -0.35111300
  C  0.71938534  0.57232591 -0.05140178
  H  1.45721012  1.36951541 -0.00996077
  C -0.60585445  1.01516385 -0.60402663
  H -0.72510767  1.94301635 -1.13922793
  C -1.58417838 -0.15082117 -0.68284481
  H -2.59036031  0.16395351 -0.94884873
  H -1.29331140 -0.97651685 -1.33253012
  C -1.41060124 -0.38177569  0.83100006
  H -2.31976685 -0.18863309  1.39628425
  H -1.01643534 -1.35422786  1.12782831
  C -0.43455763  0.78666310  0.88236805
  H -0.39494505  1.50805441  1.68278019
  C  2.77755924 -0.96641244 -0.32886374
  H  3.28186485 -0.11999748  0.17656482
  H  1.12719652 -1.49636138  0.46625275
  H  0.91211324 -1.24890590 -1.24166228
