14
opt_min/./Product_9536_0_opt.xyz
  C  2.43725800  0.48409800  0.34702200
  C  0.99166273  0.36046965 -0.06499877
  O  0.46685970 -0.77888846  0.41762785
  C -0.89824925 -1.03775694  0.10233908
  C -1.81385543  0.06245428  0.55362082
  N -2.88067985  0.27163143 -0.06566939
  H -3.46204939  1.02155581  0.30159752
  H -1.46108446  0.60321179  1.44429022
  H -1.03077047 -1.19022766 -0.97186895
  H -1.13109703 -1.95978743  0.64368322
  O  0.37369877  1.15910420 -0.71362420
  H  2.92123849 -0.48673953  0.31800439
  H  2.94098053  1.18710624 -0.31025210
  H  2.48165121  0.85871602  1.36774920
