12
opt_min/./Product_10068_0_opt.xyz
  N  0.38993200  0.99823000 -0.18245800
  H  0.85451582  1.88665881 -0.21913048
  C -0.90172288  0.86077905  0.19406474
  O -1.65340661  1.73668760  0.52615199
  C -1.16953872 -0.63521791  0.10207137
  H -1.97098006 -0.85463497 -0.60564175
  H -1.45101928 -1.03132631  1.08373383
  O  0.04279331 -1.22157602 -0.34879999
  C  1.04598050 -0.25140720 -0.48700669
  O  2.12892612 -0.49605637  0.32175299
  H  1.83893107 -0.60530686  1.23771852
  H  1.45022498 -0.25890443 -1.51124631
