13
opt_min/./Product_2264_0_opt.xyz
  C  0.97015900 -0.77516200 -0.42545300
  H  0.67057481 -0.90448800 -1.46609614
  H  1.46860059 -1.67982825 -0.07785597
  C  1.67413544  0.52255684 -0.12959084
  H  2.63493978  0.88638215 -0.44755586
  C  0.70501583  0.99771721  0.64269639
  H  0.55257032  1.91146945  1.18472934
  C -0.15376367 -0.23943785  0.50157168
  N -1.45158769 -0.05481041 -0.11038118
  C -2.34771546  0.69094736  0.44466971
  H -3.26198769  0.70611086 -0.18151153
  H -1.55437606 -0.55735627 -1.00125925
  H -0.26258102 -0.80226410  1.43418730
