12
opt_min/./Product_4697_0_opt.xyz
  C -1.71229300  0.05113800  0.12791800
  C -0.30406408 -0.36755649  0.51174272
  C  0.76515325  0.52419989 -0.07957771
  C  0.64296090  1.60565551 -0.78893951
  C  2.14169987  0.03398325  0.25035912
  O  2.33778048 -0.96229729  0.88237704
  H  2.94510176  0.64151488 -0.17407801
  H -0.17703102 -0.34194248  1.59997353
  H -0.10054752 -1.38986686  0.17313031
  H -1.98466661  0.98265193  0.62454497
  H -2.41787948 -0.72414558  0.42835831
  H -1.79453322  0.19870154 -0.94881286
