11
opt_min/./Product_415_0_opt.xyz
  O  1.56880714 -1.52395197 -0.08263824
  N  1.29455154 -0.26381596  0.52982172
  C  0.07781950  0.28642240  0.15169057
  C -0.47095757  1.49092353 -0.05422187
  H -0.25334370  2.53757393 -0.04811269
  O -1.76160808  1.01739652 -0.31638899
  C -1.26815292 -0.32293343 -0.13024951
  H -1.76527789 -0.82302440  0.69937812
  H -1.34702578 -0.91475624 -1.04129488
  H  2.07889613  0.35736794  0.34034340
  H  1.49637849 -2.18424159  0.62047177
