14
opt_min/./Product_11339_0_opt.xyz
  C  1.62868100 -0.77168500 -0.06483300
  C  0.50954736  0.19623613 -0.11163591
  C -0.90295693 -0.06792192 -0.16523762
  C -1.52226487 -1.24233439  0.10107042
  H -2.58499201 -1.34784057 -0.02994697
  H -0.99721879 -2.07746985  0.53526191
  C -1.54062647  1.24306142 -0.16600830
  H -2.60124947  1.38485308 -0.11879306
  C -0.57765878  2.17397533 -0.01152188
  N  0.64535096  1.51537209 -0.17677966
  H  1.52891780  2.00088617 -0.21489213
  H  2.55655258 -0.27653080  0.21369453
  H  1.42091076 -1.56389068  0.65294040
  H  1.76252705 -1.23817905 -1.04156000
