14
opt_min/./Product_9388_0_opt.xyz
  C -1.48293600  1.16978300 -0.19730000
  N -0.10054801  0.81992732 -0.26885289
  C  0.32316957 -0.35545622 -0.19711152
  O  1.69971006 -0.55288255 -0.29297041
  C  2.53151832  0.14425288  0.47352589
  O  2.26104473  0.89010569  1.36004487
  H  3.56550983 -0.13326849  0.19730587
  C -0.43259996 -1.64957339 -0.05979968
  H  0.25747266 -2.48685026 -0.03093309
  H -1.02530657 -1.62888473  0.85224979
  H -1.10298528 -1.77917953 -0.90873071
  H -2.17141718  0.36884970 -0.48581909
  H -1.70227814  1.47898109  0.82565305
  H -1.63474623  2.03390653 -0.84397602
