10
opt_min/./Product_1755_0_opt.xyz
  C  2.01555100 -0.72040500  0.21604700
  N  1.37550860  0.19951572  0.79168262
  N  0.68419176  1.18803842  0.48126448
  C -0.57765341  1.28420856  0.17618364
  N -1.38514620  0.26442953 -0.12334509
  N -1.22821717 -0.88081975  0.36973837
  H -1.84052135 -1.54807273 -0.11466686
  H -0.96524229  2.27236572 -0.00548955
  H  2.64863653 -1.34785155  0.81949078
  H  1.96491112 -0.90482315 -0.85308708
