10
opt_min/./Product_5478_0_opt.xyz
  C -1.75120900 -0.22927200  0.22242800
  C -0.56438569  0.60141903  0.18776746
  N -0.02291058  1.74391353  0.18948096
  N  0.78217779  0.45170835  0.14860474
  C  1.90413130 -0.25799395  0.10390349
  O  1.90715777 -1.46563317  0.08697131
  H  2.80316386  0.37667194  0.08958432
  H -1.90491339 -0.57010851  1.24828211
  H -1.59957156 -1.10841462 -0.40304570
  H -2.62691405  0.33412301 -0.09650242
