14
opt_min/./Product_7019_0_opt.xyz
  C -1.73018500 -0.54225300  0.05558900
  C -0.30549835 -0.33807501  0.55970251
  H -0.33473922 -0.14561377  1.63979902
  C  0.63901812 -1.52372533  0.38296877
  C  1.72325166 -0.97959841 -0.20581132
  H  2.64892836 -1.42511828 -0.51757573
  N  1.57318988  0.42247018 -0.47052033
  H  2.27801737  1.00355580 -0.91196894
  C  0.40432353  0.82831678 -0.06252676
  O -0.07710862  2.06497506 -0.15677106
  H  0.54019247  2.67198691 -0.58743620
  H -2.32599663  0.35673525  0.20056042
  H -2.18035103 -1.36820044  0.59649316
  H -1.71530490 -0.79344482 -1.00210539
