15
opt_min/./Product_5824_0_opt.xyz
  C  1.73464400 -0.46625000 -0.09691700
  C  0.54644282  0.30205179  0.46106917
  N -0.54082386  0.29749381 -0.48679478
  C -1.84174715  0.75809837 -0.03107431
  H -2.33580932  1.38594610 -0.77453346
  H -1.77037770  1.29885408  0.91817069
  C -2.53824684 -0.57668586  0.14239694
  O -2.61242921 -1.18569697  1.17481986
  H -2.87096389 -1.03598389 -0.81088338
  H -0.28579024  0.58854516 -1.41669003
  H  0.18353284 -0.18362558  1.37139613
  H  0.85885739  1.32948634  0.72825219
  H  1.49159588 -1.52084522 -0.19421698
  H  2.59015925 -0.36236381  0.56540297
  H  2.00902334 -0.08425117 -1.07838468
