16
opt_min/./Product_8230_0_opt.xyz
  C  2.34786900  0.28362500  0.18826400
  C  1.77891064 -0.13063161 -1.12800496
  C  0.48602465 -0.40544600 -1.30606480
  N -0.39902855 -0.43615627 -0.24278605
  C -1.60217096 -0.06604774 -0.30339694
  O -2.21667362  0.52453304 -1.35570214
  H -1.60718154  0.63022842 -2.09710683
  C -2.51182324 -0.23713233  0.87065646
  H -3.38640917  0.39551291  0.75412865
  H -1.98934172  0.01054611  1.78674526
  H -2.83858965 -1.27112829  0.93014952
  H  0.11726142 -0.70250546 -2.28712507
  H  2.44840165 -0.18012727 -1.97196020
  H  1.90224420 -0.30543653  0.98708204
  H  3.42538174  0.15917998  0.20649431
  H  2.11904280  1.32769607  0.39261024
