15
opt_min/./Product_8450_0_opt.xyz
  C -2.08269900 -0.43496500 -0.15643900
  H -1.69550390 -1.31002147 -0.66735348
  H -3.15959023 -0.53286579 -0.00401422
  C -1.30199802  0.01413136  1.07001560
  H -1.69485585  0.03243775  2.07189785
  C  0.11054897  0.10012824  0.72477393
  O  0.64081713 -0.78529040 -0.19048397
  C  1.96513697 -0.52104952 -0.59616029
  H  2.55248679 -0.07392237  0.21360309
  H  1.97993596  0.15560355 -1.45894512
  H  2.40500018 -1.47839983 -0.87901554
  H  0.82692208  0.43931533  1.47627692
  C -0.83536725  1.26141940  0.25926150
  H -0.59344683  2.26230094  0.58722548
  C -1.80970068  0.94418193 -0.74596931
