12
opt_min/./Product_1953_0_opt.xyz
  C  1.34672400 -0.39447800  0.03794800
  H  2.27380998 -0.62716543  0.54276241
  H  1.34289364 -0.62658404 -1.02286672
  N  0.15408067 -0.63020850  0.81442930
  C  0.52689211  0.75104907  0.50391670
  H  0.85670562  1.42187574  1.28150156
  C -0.47443400  1.17636308 -0.50807490
  H -0.49848537  2.15300738 -0.96022604
  N -1.30491284  0.27594138 -0.81255995
  C -1.03245907 -0.88900277 -0.00020219
  H -0.90157037 -1.77061087 -0.63285442
  H -1.88719616 -1.06181996  0.66359838
