14
opt_min/./Product_5574_0_opt.xyz
  C -0.82096300 -0.26943000  0.66730100
  C -0.04347784  0.90348248  0.14259902
  C  1.18326737  0.85363546 -0.34917579
  C  2.04269963 -0.36805029 -0.45317983
  H  1.56758082 -1.12933179 -1.06588501
  H  3.00057178 -0.12074055 -0.90073295
  H  2.23472664 -0.79005637  0.53107377
  H  1.62140016  1.77596975 -0.69925793
  H -0.58093245  1.83903560  0.16550756
  C -2.08179285 -0.42439745 -0.15037313
  O -2.92242282  0.41931926 -0.27431555
  H -2.17571661 -1.38755806 -0.69042178
  H -1.12341315 -0.05816675  1.69585786
  H -0.22949869 -1.18189907  0.64838404
