11
opt_min/./Product_2179_0_opt.xyz
  N  2.75799405  0.23170739  0.37009778
  C  1.45482388 -0.03135021  0.16653243
  C  0.30022535 -0.26209373 -0.06886503
  C -1.09348553 -0.51311102 -0.36952701
  C -2.02138947  0.56413696  0.12831243
  O -1.72582533  1.53516230  0.76114630
  H -3.07424938  0.36869147 -0.17227438
  H -1.41671351 -1.44971018  0.10234404
  H -1.25451092 -0.62210230 -1.44906221
  H  3.23865560 -0.45369425  0.93830846
  H  2.92378549  1.17949016  0.68438132
