15
opt_min/./Product_9047_0_opt.xyz
  N  1.90291100  0.45930400 -0.46281400
  C  0.82705107  0.37641233  0.48455605
  H  1.19308809  0.76635341  1.43835149
  C -0.49554427  1.05351748  0.12876783
  N -0.75324249  2.25944334 -0.06973880
  H -1.74230862  2.47537219 -0.18728247
  C -1.27331982 -0.21081440  0.31419563
  H -2.25252883 -0.28175223  0.75467217
  C  0.01994174 -0.92819795  0.67920441
  H  0.17854120 -1.63969561  1.47257590
  C -0.68558396 -1.26350236 -0.58922132
  H -1.21433520 -2.20462975 -0.62487710
  H -0.26441626 -0.96374552 -1.53831576
  H  2.72272354 -0.03670270 -0.13169754
  H  1.63259556  0.07729178 -1.36237353
