9
opt_min/./Product_4605_0_opt.xyz
  O  1.79405100 -0.51340800 -0.32064600
  C  0.65475384  0.10373255 -0.11396372
  N  0.50017067  1.36314899  0.13591849
  N -0.84476380  1.58369928  0.28367693
  N -1.53467297  0.57288657  0.14572814
  C -0.69425570 -0.56636621 -0.12791565
  H -0.80922370 -1.31003876  0.66354446
  H -0.96014495 -1.04139233 -1.07157997
  H  2.53099047  0.11357623 -0.27118428
