8
opt_min/./Product_2734_0_opt.xyz
  O -2.02221677 -0.55921358  1.02429057
  C -0.94910658 -0.04103682  0.88888653
  C  0.10920640 -0.59282539  0.02693346
  C  1.29499273 -0.07532283 -0.10995335
  C  2.45915671  0.46861409 -0.20181495
  C  3.60514747  1.01700680 -0.29873433
  H -0.17180263 -1.49859830 -0.49282559
  H -0.67664106  0.89190716  1.40404248
