11
opt_min/./Product_10265_0_opt.xyz
  C  0.16300904  1.02054101 -2.93211900
  C  0.08414968  0.70433826 -1.77690157
  C  0.00032744  0.32821684 -0.42273064
  C  0.12964758 -0.95376664  0.05997996
  H  0.31088979 -1.87681321 -0.45462629
  N -0.00985111 -0.91733948  1.40420257
  H  0.02711537 -1.67544137  2.06598829
  N -0.22807406  0.41944775  1.72452730
  H -0.36198245  0.68028972  2.68903357
  C -0.23671101  1.23019797  0.68418326
  H  0.22299340  1.31152225 -3.93810148
