13
opt_min/./Product_8023_0_opt.xyz
  O  2.62697561 -0.88905415  0.77888011
  C  1.33384858 -0.56003412  1.07052043
  C  0.35130460 -0.53898171  0.20285261
  C -0.06994075 -0.73240248 -1.18713695
  H -0.17250479 -1.73755786 -1.58313326
  H  0.21315361  0.00581233 -1.92881861
  C -1.06480930 -0.29649955 -0.10937624
  C -1.56487480  1.04691027 -0.12353057
  C -1.96965002  2.17277753 -0.14872405
  H -2.33266178  3.15910668 -0.16234237
  H -1.79526575 -1.02965186  0.21924262
  H  1.22430379 -0.32048051  2.11640104
  H  2.70236927 -1.08367351 -0.16646282
