12
opt_min/./Product_2853_0_opt.xyz
  O  2.36452600 -0.79627600 -0.43041400
  C  1.55119177  0.09230796 -0.84827256
  C  0.41195543  0.41866771  0.06651073
  O -0.15698852  1.68342338 -0.19664926
  H  0.04773850  1.90748351 -1.11259565
  C -0.66599627 -0.67958151 -0.15851739
  O -1.72412706 -0.51828756  0.73822472
  H -1.99126727  0.41107576  0.70699486
  H -0.25063741 -1.67448899  0.01911696
  H -1.01375920 -0.61945058 -1.19872196
  H  0.66711556  0.41226181  1.13780736
  H  2.23320760 -1.17204879  0.47707685
