14
opt_min/./Product_9493_0_opt.xyz
  C  2.47334700 -0.34887700 -0.02909900
  N  1.43269974  0.63721242  0.04996096
  C  0.11344428  0.34606637 -0.03198475
  C -0.92355346  1.34249248  0.11560136
  C -2.13238277  0.50814240 -0.07949206
  H -2.74769561  0.48316888  0.82090591
  H -2.74229134  0.91084601 -0.89340576
  N -1.65480292 -0.82629343 -0.42770772
  H -2.16397840 -1.67018662 -0.20483102
  N -0.33047148 -0.88136172 -0.28698452
  H  1.67641025  1.59141013  0.25820540
  H  2.04196395 -1.26131791 -0.43956837
  H  2.89449367 -0.57358457  0.95792726
  H  3.27655972 -0.00255233 -0.68347205
