16
opt_min/./Product_7261_0_opt.xyz
  C -0.96528900  1.26953500 -0.28122700
  C -0.15450059 -0.04852930 -0.22168076
  C -1.06280446 -1.21241643 -0.67224853
  H -1.53359033 -0.99257726 -1.62694140
  H -1.83439634 -1.38271081  0.07191513
  H -0.47504380 -2.12213778 -0.77180800
  C  0.54101531 -0.28852949  1.09285197
  H  0.11821804 -0.38605487  2.06566585
  O  1.86997959 -0.29001412  0.95198772
  C  2.19139780 -0.10851595 -0.28531140
  H  3.19368147 -0.07031401 -0.64352236
  N  1.04761236  0.03590292 -1.04071538
  H  1.03548628  0.21281055 -2.02637702
  H -0.42609516  2.05999362  0.23671316
  H -1.11950804  1.57061251 -1.31420697
  H -1.93071389  1.14247521  0.19714386
