11
opt_min/./Product_4208_0_opt.xyz
  O  1.72433700  1.50289100  0.80051200
  C  0.55126866  0.93005160  0.70091726
  N  0.50761615 -0.11886563 -0.09655182
  C -0.69393259 -0.86868319 -0.33312490
  H -0.52145667 -1.94314366 -0.28436752
  C -1.76700258 -0.30715893 -1.21312585
  H -2.05480398 -0.07457704 -2.20863084
  C -1.99934966 -0.27753108  0.06850528
  H -2.61746575 -0.00985256  0.88766737
  H  1.34468430 -0.45572717 -0.60117431
  H  2.44025266  1.09709608  0.25990228
