10
opt_min/./Product_140_0_opt.xyz
  O  1.96739500 -1.06431700 -1.14347100
  C  1.21114380 -0.50535721 -0.41523312
  C  0.64408926  0.74171880  0.09136699
  H  0.01520480  1.31746147 -0.58248488
  H  1.18783078  1.36010977  0.79069814
  C  0.12382993 -0.62274049  0.55671073
  O -1.20674250 -1.08104331  0.15652229
  C -2.10043374 -0.40338106 -0.36823019
  H -1.85877754  0.66754754 -0.56932178
  H  0.30165214 -0.96450721  1.56670029
