17
opt_min/./Product_10796_0_opt.xyz
  C -1.95505400  1.20297800  0.60753500
  O -1.72184649 -0.08849652  0.10524717
  C -0.38986736 -0.51913942  0.30398447
  C -0.28807497 -1.90910953 -0.35558187
  H -1.16342994 -2.48101019 -0.05990190
  H -0.29621125 -1.79339593 -1.43672398
  H  0.61491346 -2.42381976 -0.03869368
  C  0.59011255  0.33999569 -0.40210617
  C  1.96060215  0.23646130  0.09284364
  O  2.79062947  1.26803098 -0.36859699
  H  3.71124287  1.05213756 -0.18723542
  H  2.06157238  0.11368492  1.18944889
  H  2.26121900 -0.73414488 -0.36322839
  H -0.21029887 -0.62069454  1.39792570
  H -2.99819529  1.43804754  0.40618837
  H -1.30686887  1.93650618  0.11273743
  H -1.77151886  1.24268335  1.69042520
