16
opt_min/./Product_6818_0_opt.xyz
  C  1.58607800 -0.74167300 -0.11447800
  C  0.45072508  0.07234770  0.49983009
  H  0.54748180  0.06245053  1.59107441
  C  0.22696875  1.49238457 -0.07455017
  H  0.90572088  1.75280958 -0.88209283
  H  0.24370733  2.28040948  0.67423929
  C -1.18584631  1.09044686 -0.53872861
  H -1.34704958  1.09916766 -1.61744638
  H -2.00938414  1.63196111 -0.07338448
  C -0.93254229 -0.26791725  0.02928263
  N -1.63089386 -1.34720471  0.06265505
  O -2.80130686 -1.52700712 -0.37619126
  H -1.19162878 -2.17465517  0.50653493
  H  1.38424886 -1.80770532 -0.02527415
  H  1.69428925 -0.50719144 -1.17068689
  H  2.52719535 -0.52691873  0.38461396
