14
opt_min/./Product_5319_0_opt.xyz
  O  2.40141300 -0.03623400  1.18945000
  C  1.85095212  0.38359686 -0.02979287
  C  0.40745968 -0.09306265 -0.19814198
  O -0.36030326  0.54244999  0.80754463
  C -1.69100120  0.29088175  0.83624581
  C -2.39949303 -0.49478312  0.04204144
  H -3.45779410 -0.59365310  0.19174480
  H -2.14255778  0.85253229  1.64343002
  H -1.96980946 -1.06243971 -0.76556591
  H  0.35616169 -1.18297051 -0.07755965
  H  0.03332721  0.17729640 -1.19360766
  H  2.47611875 -0.04485998 -0.81591193
  H  1.87304978  1.47985411 -0.10997624
  H  1.79829645  0.24011550  1.89046560
