17
opt_min/./Product_11066_0_opt.xyz
  C -2.24372900  0.51669300 -0.00277900
  C -0.74991835  0.56322144  0.34534373
  C -0.07187620 -0.77254233  0.11117425
  H -0.60032245 -1.58660465  0.62193672
  O  0.03851397 -1.11193456 -1.29420581
  C  1.34419508 -1.21300074 -1.32298330
  C  1.47569028 -0.88390403  0.16828823
  C  2.28493412  0.34625750  0.53782212
  H  3.34509112  0.11766844  0.46403955
  H  2.06889870  1.17053325 -0.13807325
  H  2.05937604  0.65245196  1.55802593
  H  1.80715600 -1.74804035  0.75285121
  H -0.24269487  1.32203631 -0.25359970
  H -0.60027844  0.82575461  1.39606861
  H -2.46657410  1.18610916 -0.82946818
  H -2.53439703 -0.48759214 -0.30369624
  H -2.85168761  0.80879100  0.84959648
