13
opt_min/./Product_10207_0_opt.xyz
  C -1.78187100 -0.64623200  0.00391400
  C -0.90088495  0.56917987 -0.03648224
  O -1.33939411  1.70699334 -0.08418764
  C  0.55365471  0.38694400 -0.01848512
  O  1.27623224  1.55772681 -0.06533530
  H  0.61185875  2.27011886 -0.11462427
  C  1.20831074 -0.78679613  0.02373120
  O  2.54548942 -0.88801312  0.02881919
  H  2.92049229  0.00615195 -0.00977141
  H  0.70616892 -1.73848212  0.06380645
  H -1.61427836 -1.25719095 -0.88045662
  H -2.82246633 -0.32811198  0.02765694
  H -1.56376875 -1.24032033  0.88848502
