8
opt_min/./Product_4383_0_opt.xyz
  N -1.81519981  0.31596524 -0.72193374
  N  4.07465727  7.11562655  10.73747514
  C -0.34618330  17.37594895 -14.61235558
  C -12.91780839 -3.19828082  17.84895315
  N  9.44148704  3.13739194  2.61789424
  H  10.88435119  4.14305211 -0.21018206
  H  1.74587274 -1.55312313 -13.65283556
  H  19.41419445  16.91363543 -3.25771583
