11
opt_min/./Product_11660_0_opt.xyz
  O  0.01144100  1.15731100  0.65790100
  C  0.71740949  0.22304126 -0.11457589
  O  1.76826559  0.41218133 -0.95179668
  C  1.92169332 -0.54762745  0.09873086
  H  2.60464086 -0.25325821  0.88448039
  H  1.96520346 -1.57935512 -0.22629475
  C -0.70495845  0.25939579 -0.14820051
  C -1.95620484 -0.44703792  0.01049003
  H -2.03988473 -1.47507978 -0.31812714
  H -2.65591570 -0.11498187  0.76588343
  O -1.70579446  0.50224402 -1.03122655
