12
opt_min/./Product_1955_0_opt.xyz
  C  1.89491400  0.12182900  0.12317600
  N  0.58822713  0.21462386  0.00559417
  C -0.17239145  1.29429827 -0.26140815
  H  0.23065590  2.27159916 -0.42328473
  N -1.48843393  1.01611713 -0.30088314
  C -1.65077677 -0.24076760 -0.06903058
  H -2.60451596 -0.72515830 -0.03532827
  C -0.31916505 -0.91481475  0.15759771
  H -0.10371681 -1.68284337 -0.59121465
  H -0.23316244 -1.36074220  1.15081149
  H  2.49421500  0.99909853 -0.01058867
  H  2.33809581 -0.82754898  0.34365914
