10
opt_min/./Product_6535_0_opt.xyz
  O  2.84095700 -0.11192900  0.12359500
  C  1.64273319 -0.08492960  0.07263707
  N  0.96988993  1.14596040 -0.02565991
  N -0.30853866  1.14593389 -0.07839235
  H -0.72993583  2.07571300 -0.14905588
  C -1.08855212  0.07652189 -0.04928305
  H -2.15869490  0.17976485 -0.09934092
  C -0.41272294 -1.16713196  0.04985788
  H -0.99436464 -2.08051060  0.07820509
  N  0.86706689 -1.25258329  0.10754329
