10
opt_min/./Product_5741_1_opt.xyz
  C -0.10669100 -0.56640700 -0.23266300
  C -1.48826336 -0.05508974  0.03547579
  H -1.67598880  0.87899449 -0.49037931
  H -1.63440361  0.12469453  1.09927854
  H -2.22808516 -0.78124945 -0.28772638
  C  0.99713047  0.08955096  0.08803033
  O  2.24626970 -0.42082249 -0.14941010
  H  2.90818666  0.25502827  0.02426273
  H  0.95907179  1.06011818  0.57119908
  H -0.01380054 -1.52883485 -0.71289478
