13
opt_min/./Product_5015_0_opt.xyz
  O  2.26529714  0.43809670  0.06492126
  C  0.92308492  0.73906566 -0.25486097
  H  0.87202007  1.64715848 -0.87499653
  C  0.16239065 -0.45965011 -0.86193485
  H  0.74014103 -1.38359487 -0.84804277
  H -0.28977858 -0.32027430 -1.84346382
  N -0.77283113 -0.36113284  0.25441645
  C -1.85422184 -1.05022859  0.48717654
  H -2.15097960 -1.81420147 -0.20387594
  H -2.43209931 -0.87077416  1.37099850
  C -0.10596288  0.64142540  0.83018907
  H -0.32582893  1.18269260  1.72303882
  H  2.73022287  1.24846929  0.28963619
