11
opt_min/./Product_4430_0_opt.xyz
  C -1.21459700 -0.38135600  0.45459800
  H -2.23580207 -0.10578630  0.23038167
  H -1.10302412 -0.94122553  1.37859920
  C -0.12765028  0.56728354  0.05729469
  O -0.17681456  1.87656168 -0.34843388
  H  0.07865943  2.45747296  0.37853450
  C  0.98901931 -0.42747654  0.03491554
  H  1.20054884 -0.98954730  0.94015583
  H  1.86832428 -0.20439801 -0.55378449
  C -0.29689454 -0.70846877 -0.68843855
  H -0.49955772 -0.89698742 -1.71898204
