12
opt_min/./Product_1658_0_opt.xyz
  O  2.60019500  0.65672300 -1.17125100
  N  1.36147791  0.12734743 -1.14539074
  C  0.91069354 -0.36330532 -0.07819892
  C -0.49246620 -0.89219770 -0.05579916
  N -1.42767157  0.21619645  0.10349607
  C -1.19094031  1.14922321  0.96515976
  H -2.00476158  1.89985572  0.94373299
  H -2.25080335  0.15120797 -0.50812102
  H -0.60763322 -1.59052357  0.77867048
  H -0.70323882 -1.40822964 -0.99608205
  H  1.48125163 -0.38701647  0.85539267
  H  3.02114262  0.64966911 -0.28643534
