13
opt_min/./Product_11087_0_opt.xyz
  C -2.34560100  0.49882600 -0.32450800
  C -1.08719199  0.11112786 -0.09063914
  C  0.17401769  0.62985237 -0.54056383
  H  0.28800892  1.46826511 -1.19998111
  C  1.15154133 -0.14122469  0.00965298
  N  2.49288003 -0.05147700 -0.15278895
  H  3.08985049 -0.63886535  0.39893767
  H  2.89756049  0.71605777 -0.65785023
  C  0.55008802 -1.21387818  0.86460387
  N -0.74605699 -0.98461787  0.73530137
  H -1.45290897 -1.53390584  1.20232037
  H -3.18638536 -0.01382624  0.11011608
  H -2.55773774  1.34602108 -0.95146105
