10
opt_min/./Product_1961_0_opt.xyz
  O -0.06248800  1.49150500  0.64087100
  C -0.22542078  0.21180389  0.28367566
  C -1.58255048 -0.25120396  0.22166446
  O -2.51122365  0.48653184  0.53411609
  H -1.74032589 -1.29941569 -0.07411223
  C  0.87021943 -0.54758784 -0.17723983
  C  2.16230274 -0.46317494  0.09203712
  H  2.99471119 -0.75748265 -0.51806056
  H  0.52636296 -1.39422913 -0.78094784
  H -0.96471297  1.85515413  0.76726209
