15
opt_min/./Product_9211_0_opt.xyz
  C  2.11212900  0.57102300  0.50511300
  C  0.67874757  0.33126726  0.16765166
  C -0.35943595  1.07478272  0.44207237
  C -1.72226079  0.71808650 -0.08266714
  H -2.55116663  1.24854157  0.37873813
  H -1.68947546  0.96976166 -1.14776046
  C -1.78949230 -0.71118384  0.18217346
  H -2.45941847 -1.11056342  0.93839806
  O -0.77450917 -1.54692441 -0.03395350
  C  0.35442557 -0.98208215 -0.61271675
  H  0.17351131 -0.67276321 -1.65298641
  H  1.15149461 -1.72906754 -0.57788028
  H  2.52327984 -0.26773747  1.06702110
  H  2.70243246  0.68232611 -0.40691704
  H  2.20517723  1.47768023  1.09580839
