12
opt_min/./Product_1079_0_opt.xyz
  N  1.82968300 -0.25004100 -0.08463700
  C  0.54307763  0.15171816  0.40578636
  H  0.58148830  0.91166969  1.21329911
  C -0.32304017 -0.91297955  1.03037221
  C -1.54192880 -0.78286388  0.34357854
  H -2.40884024 -1.38053807  0.55890907
  C -1.46258179  0.17782821 -0.64873182
  H -2.22945946  0.50131907 -1.33868345
  N -0.26858602  0.75319504 -0.66578221
  H  0.09695261  1.37806586 -1.36248962
  H  2.55637922  0.43219238  0.09805229
  H  2.10040651 -1.13431055  0.32541048
