12
opt_min/./Product_2804_0_opt.xyz
  C  1.92963800  0.24479200  0.16356600
  H  2.11014160 -0.09486945  1.18017709
  H  2.53417168  1.08672748 -0.15890243
  C  0.61520696  0.02708133 -0.45375456
  C -0.49063372 -0.61136874  0.32144314
  H -0.16531553 -1.34716212  1.06177539
  C -1.76230569  0.07325854  0.57356626
  H -1.92693875  1.05946450  0.15025431
  H -2.31189139 -0.15280234  1.48283800
  O -1.66374731 -0.96975345 -0.35039697
  H  0.26652688  0.72852563 -1.21391299
  O  1.72063866 -0.75667363 -0.78986098
