15
opt_min/./Product_10623_0_opt.xyz
  O  2.90486600 -1.42253500 -0.45938800
  C  2.01110964 -0.74031339 -0.03029461
  C  1.08789872  0.03885024 -0.86084198
  H  1.27805537 -0.07410587 -1.92126217
  C -0.36168554  0.29485999 -0.46320532
  C -0.95683108 -0.26307855  0.76209962
  C -2.25343880 -0.48938349  0.89732699
  H -2.95067859 -0.29854234  0.09793962
  H -2.67242563 -0.87288783  1.81007675
  H -0.29208212 -0.46763690  1.58775136
  H -1.05558401  0.33209693 -1.29422991
  C  0.64279271  1.40052231 -0.37586262
  H  0.96606478  1.70316165  0.60823177
  H  0.61020147  2.19806728 -1.10036076
  H  1.86654821 -0.63113479  1.06356715
