13
opt_min/./Product_3638_0_opt.xyz
  O  2.56399300  0.16115200 -0.66237100
  N  1.66834619 -0.73224809  0.00121265
  C  0.34541486 -0.32346524 -0.02673696
  C -0.40302296  0.50693238 -0.75704549
  H -0.20863456  1.18880875 -1.56215431
  C -1.68419816  0.09302046 -0.07967406
  H -2.41430758 -0.40201161 -0.71956905
  H -2.18234496  0.87170543  0.49617289
  C -0.80927015 -0.87356463  0.76138032
  H -1.01445252 -1.93043119  0.59607161
  H -0.79430487 -0.67726824  1.83293211
  H  2.04966974 -0.86114188  0.93345988
  H  2.53771602 -0.08420023 -1.59627648
