9
opt_min/./Product_9221_0_opt.xyz
  N -0.01909434  0.17975782  1.55870701
  C  0.36017520 -0.61459381  0.58666250
  O -0.00626314 -0.09137604 -0.63555074
  C  0.34612163 -0.78386125 -1.73027124
  O  0.96805601 -1.79214414 -1.77704878
  H -0.05393707 -0.25779491 -2.61352075
  N -0.65989329  1.35530460  1.45512221
  C -1.20875866  2.37049354  1.31040999
  H  0.24027000 -0.08762154  2.50302218
