9
opt_min/./Product_4606_0_opt.xyz
  O -1.94106800 -0.55068000 -0.42059500
  C -0.66271759 -0.21948035 -0.20599879
  C -0.12698096  1.06409304  0.03635962
  H -0.62075059  2.00676252  0.10810120
  N  1.17849158  0.92632327  0.18851114
  N  1.40625324 -0.35203083  0.03088473
  H  2.32828444 -0.74968328  0.08946808
  N  0.33719950 -1.09259045 -0.20972401
  H -1.98615793 -1.50872291 -0.51911882
