15
opt_min/./Product_9806_0_opt.xyz
  C -1.04452000  0.38002600  0.57027600
  H -1.40523555  0.84033403  1.49403094
  H -1.90062171  0.26645580 -0.09642866
  C -0.53225586 -1.01114375  1.01209590
  H -1.39664330 -1.62238387  1.28876781
  H  0.09132445 -0.88477859  1.90992366
  O  0.17776811 -1.82498244  0.09112691
  C  1.28373336 -1.23619694 -0.45966429
  H  1.71897799 -1.83319638 -1.24221065
  C  1.78077517 -0.14191537  0.07950577
  C  1.33060652  1.02183293  0.48091225
  H  1.79664574  1.67025132  1.20123650
  C -0.02717340  1.34459444 -0.09568244
  H -0.34285329  2.37572123  0.07614801
  H -0.01056913  1.16303592 -1.17088125
