12
opt_min/./Product_971_0_opt.xyz
  C  1.71813501  0.31822903 -0.09070986
  C  0.24935723  0.17603678  0.01449298
  C -0.82139600  0.94434739 -0.17883344
  H -1.00315263  1.93998912 -0.53065715
  C -1.80295100 -0.17567366  0.20177101
  H -2.71692561 -0.09246065  0.75991219
  C -0.63121893 -1.03147582  0.41688795
  H -0.45377638 -1.83232346  1.11548725
  O -1.51941445 -1.24970992 -0.64995289
  H  2.19813226 -0.65904068 -0.09335681
  H  1.99551511  0.87015635 -0.98839631
  H  2.08438911  0.87697767  0.77453816
