14
opt_min/./Product_1174_0_opt.xyz
  C -1.64155200  0.40156300 -0.13349500
  C -1.07819281 -0.97767042  0.21136562
  O -0.15799272 -0.93841527  1.31315608
  C  1.03580694 -0.46723116  1.21807434
  O  1.33077641 -0.02123361 -0.01876451
  C  2.64067756  0.46891817 -0.19496330
  H  3.19929650 -0.22171133 -0.83017566
  H  3.14659954  0.56481833  0.76813314
  H  2.57468287  1.44118501 -0.68465343
  H -1.87081001 -1.65561403  0.53750733
  H -0.56895168 -1.42542606 -0.64809499
  H -1.50257718  0.62982573 -1.18577331
  H -1.14145812  1.17030255  0.45155903
  H -2.70246491  0.45486923  0.09776163
