12
opt_min/./Product_1070_0_opt.xyz
  N  2.22421800 -0.34175500 -0.03075500
  C  0.83007038 -0.33108718  0.10809747
  C -0.03847852 -1.36063160  0.40513257
  C -1.39174864 -0.69083330  0.26726624
  H -1.93729550 -1.20112162 -0.53034920
  H -1.99978128 -0.80778136  1.16498119
  C -1.13933822  0.72390645 -0.08208961
  H -1.82663312  1.53431487 -0.22692329
  N  0.16960149  0.85795988 -0.16898986
  H  0.64405608  1.72156428 -0.41214489
  H  2.68920732  0.43361073  0.42803713
  H  2.60220890 -1.22333223  0.28565783
