17
opt_min/./Product_10388_0_opt.xyz
  C -1.76027700  1.14934700  0.27151800
  C -1.23470005 -0.22165172 -0.01971268
  C -1.99352900 -1.30332243 -0.06102019
  H -3.05378268 -1.25763468  0.11969938
  H -1.59032227 -2.27781634 -0.27749455
  C  0.24721197 -0.28387790 -0.28651417
  O  0.93305825  0.20395971  0.85431749
  C  2.28211354  0.17842243  0.82908659
  C  3.08911818 -0.20379854 -0.14850154
  H  2.73061856 -0.56486867 -1.09589049
  H  4.15319542 -0.16778956 -0.01676711
  H  2.66465431  0.54166316  1.77460742
  H  0.49226092  0.34189004 -1.15870362
  H  0.55843471 -1.31424077 -0.49907041
  H -1.78228259  1.74234826 -0.64308420
  H -1.10677248  1.65017406  0.98182907
  H -2.76607490  1.10158399  0.67881853
