8
opt_min/./Product_9178_1_opt.xyz
  O  2.42424365  1.11931107 -0.42173576
  C  32.40331766 -2.80235176 -17.22507766
  C  4.35576460 -17.95073782  5.69961489
  C -6.06099844 -14.28222591  17.51580681
  N -0.93599604  3.26769481  4.10208228
  H -0.91667432  20.27335286  7.84942900
  H  10.99342652 -22.06554291  35.72890583
  H  24.90772695 -22.07248585  14.56134539
