14
opt_min/./Product_2044_0_opt.xyz
  C -1.57829400 -0.41671200 -0.28343800
  C -2.54650424  0.37314011  0.14444593
  H -2.39835198  1.05296529  0.96778284
  H -3.52485637  0.35871895 -0.30513068
  C -0.20596342 -0.44926377  0.30897615
  O  0.74352708 -0.24206739 -0.73187425
  C  2.06592512 -0.23716205 -0.30259457
  O  2.39386756  0.86853568  0.47666547
  H  2.19011567  1.66977317 -0.02068051
  H  2.65990081 -0.27475278 -1.22633085
  H  2.28972428 -1.11701812  0.31794087
  H -0.01467321 -1.43292262  0.76321382
  H -0.10050183  0.32123448  1.08098686
  H -1.73547255 -1.08704772 -1.11410089
