8
opt_min/./Product_1692_1_opt.xyz
  N -1.24636800 -0.06925600  0.04433300
  N  0.08859502 -0.47864185 -0.15142278
  C  1.13433158  0.34635920  0.04024226
  O  1.04953683  1.48602518  0.42504776
  H  2.09315039 -0.14194284 -0.21742766
  H  0.20905324 -1.41013385 -0.51786668
  H -1.31437564  0.89941508 -0.26479626
  H -1.45974964 -0.08407158  1.04196599
