16
opt_min/./Product_7668_0_opt.xyz
  C  2.52087100  0.35494300 -0.63958900
  O  1.21448386  0.08413927 -1.07410937
  C  0.29159899 -0.01287796 -0.01399370
  C -1.10231678 -0.17536655 -0.60977817
  N -1.73441494  1.05119018 -1.07012243
  O -1.19378178  2.10488661 -0.83266155
  C -2.11380666 -0.78596887  0.36702140
  H -1.80210661 -1.79158736  0.64671887
  H -3.09537269 -0.83367840 -0.09962026
  H -2.17777633 -0.17108717  1.26339357
  H -1.04513939 -0.80343871 -1.50864254
  H  0.53487854 -0.87756185  0.62553431
  H  0.32146500  0.89679270  0.60972983
  H  3.14099106  0.40548859 -1.53454688
  H  2.89258675 -0.43958129  0.02128475
  H  2.57116413  1.31296005 -0.10316631
