12
opt_min/./Product_10014_0_opt.xyz
  O -0.52420600  0.96887300  1.20905900
  C  0.42529958  0.98816445  0.16181402
  H  0.97889961  1.90581383  0.02598805
  C  1.13578831 -0.40016635  0.18536831
  H  2.18372746 -0.60310437  0.31149386
  C  0.02766235 -1.30149840  0.54655579
  C -1.07252929 -0.18387441  0.54771662
  H -2.10077520 -0.40498369  0.79229333
  C -0.53033547  0.27108325 -0.80883042
  H -1.11786632  0.68637633 -1.61854019
  N  0.47794305 -0.76827316 -1.08769907
  H  0.22868438 -1.73189231 -1.30856057
