14
opt_min/./Product_815_0_opt.xyz
  C -1.53793100 -0.24637400  0.41022600
  C -0.31769585  0.01135865 -0.47963637
  H -0.65822240  0.05495418 -1.51990562
  C  0.47027671  1.28053765 -0.09380901
  H -0.00994546  1.85598109  0.69798757
  H  0.58059338  1.96505711 -0.94067320
  C  1.85260428  0.89234285  0.31248153
  C  1.88204740 -0.54359539  0.14390671
  H  2.75653557 -1.14085907  0.35244342
  C  0.71502603 -1.04780527 -0.30998526
  H  0.50588652 -2.08489316 -0.52491790
  H -2.02852076 -1.17448362  0.12478103
  H -1.23249430 -0.31727843  1.45216964
  H -2.25330021  0.56704844  0.30970110
