18
opt_min/./Product_8109_0_opt.xyz
  C  3.11589500  0.13294300 -0.40501000
  C  1.66275521  0.57956057 -0.39836793
  O  0.86857217 -0.49803598  0.08428996
  C -0.45136777 -0.29162306  0.14245594
  N -0.93938186  0.82303666 -0.20401356
  C -2.35652132  1.05171578 -0.14881255
  H -2.75785737  0.90344725  0.85702732
  H -2.89447777  0.39741474 -0.83904063
  H -2.53240334  2.08436134 -0.44609353
  C -1.19899205 -1.50052041  0.64145316
  H -1.91063877 -1.82352211 -0.11414441
  H -0.51034371 -2.30867063  0.85719465
  H -1.74965218 -1.24992826  1.54519213
  H  1.32098920  0.84904080 -1.40365455
  H  1.51197288  1.44876263  0.24903950
  H  3.73943935  0.93857397 -0.77607588
  H  3.43315802 -0.13056432  0.59895304
  H  3.23554592 -0.73873190 -1.03945573
