13
opt_min/./Product_8859_0_opt.xyz
  N  2.13984800 -1.07523600  0.49661900
  C  2.31220837  0.00128235 -0.11812138
  H  3.03243091  0.75325396 -0.33164609
  C  0.97073052 -0.52898111 -0.26785955
  C -0.19601446  0.04663364  0.48707063
  H  0.15183988  0.62004031  1.34883998
  C -1.29103739  0.74182878 -0.37578509
  H -1.58860440  1.73210466 -0.03593183
  H -1.11951441  0.75990575 -1.44857274
  C -2.10497861 -0.38667711  0.16010021
  H -3.13488417 -0.67778079  0.02985591
  N -1.22120001 -0.95772616  0.88010190
  H  0.69293861 -1.06835266 -1.16726977
