9
opt_min/./Product_3662_1_opt.xyz
  C -0.14997900  0.84461800 -0.29352200
  N  1.07013826  1.10929689 -0.13102547
  O  1.92728305  0.16673646  0.35517780
  H  1.46551411 -0.67260663  0.53587914
  C -0.89662401 -0.43121439 -0.03098951
  H -0.28848002 -1.31187478 -0.24411855
  H -1.79277834 -0.47053158 -0.64162851
  H -1.19630321 -0.47071683  1.01858209
  H -0.72256785  1.68645311 -0.65895536
