10
opt_min/./Product_6599_0_opt.xyz
  C -1.46771600  0.18461300  0.16711600
  N -0.05106115  0.21762612  0.03035774
  C  1.11709753  0.79259456 -0.05594055
  O  1.74558127  1.79157778  0.08299880
  C  1.05940130 -0.67414118 -0.30091288
  H  1.09929789 -1.02582529 -1.33023723
  H  1.39969828 -1.39405828  0.42993938
  H -1.82652409 -0.79195577 -0.15848124
  H -1.75211584  0.34240828  1.21134840
  H -1.92734843  0.96012791 -0.44697159
