8
opt_min/./Product_9618_0_opt.xyz
  C -0.95240481 -0.86233272  0.00326919
  O -1.01256025  0.56444926  0.05542381
  C  0.10095873  1.20079891 -0.11744454
  N  1.26635636  1.29991367 -0.07718157
  O  2.37858525  1.73176839 -0.18676063
  H -0.60133560 -1.19587983 -0.97532157
  H -1.97196629 -1.20757229  0.17099242
  H -0.29194825 -1.25610023  0.78026737
