12
opt_min/./Product_2661_0_opt.xyz
  C -1.73300900 -0.40717400  0.05672800
  N -0.35716323 -0.55329254  0.42877763
  C  0.55661289  0.20840460 -0.02395236
  N  0.42028702  1.32326535 -0.82182506
  H  1.24895343  1.64250230 -1.29181433
  H -0.43700750  1.42087233 -1.34098207
  C  1.93851807 -0.27580580  0.15127059
  O  2.22084691 -0.59021112  1.39073576
  H  3.10256013 -0.99777267  1.45709021
  H -2.32806491 -0.92821309  0.80758643
  H -1.91299372 -0.89082180 -0.90974885
  H -2.07924249  0.63166653 -0.00682836
