13
opt_min/./Product_96_0_opt.xyz
  C -1.86263900 -0.84081500 -0.59940500
  C -0.55536381 -0.76575723 -0.44439367
  C  0.26415690  0.45047256 -0.74286003
  C  0.94316797  1.01549182  0.49459849
  H  1.24916748  2.05163224  0.39559683
  C  1.60440191  0.17172078  1.46794117
  H  2.42375801 -0.43676966  1.76620817
  N  0.48837621  0.59138538  1.86110041
  H  1.03657133  0.19547736 -1.47701843
  H -0.37127697  1.22515250 -1.17573697
  H -0.00258912 -1.61792105 -0.06871778
  H -2.41178127 -1.73648750 -0.36929063
  H -2.43829542 -0.00573415 -0.96517355
