17
opt_min/./Product_7400_0_opt.xyz
  C -2.30818000  0.20267800  0.62846800
  C -0.90417643  0.71850577  0.51209779
  O -0.02423158 -0.17652467  1.04287976
  C  1.35674130  0.04511392  0.90893946
  C  1.88263780 -0.15085540 -0.51741239
  O  2.07153783 -1.53167593 -0.73465286
  H  2.18759406 -1.69631300 -1.67543168
  H  2.83939924  0.38401563 -0.61837915
  H  1.16710912  0.26479056 -1.23542847
  H  1.62621451  1.04310086  1.27805714
  H  1.82605549 -0.71068416  1.54204318
  C -0.62104153  1.90409033 -0.01527562
  H -1.40409537  2.53391361 -0.39177452
  H  0.37350157  2.30088482 -0.08934034
  H -3.02145761  0.93138365  0.26031562
  H -2.52204012 -0.01917903  1.67180009
  H -2.41061998 -0.72402241  0.06636623
