9
opt_min/./Product_2724_0_opt.xyz
  C  0.09290474  0.96702308  0.08017229
  H  0.08768894  1.57408749 -0.82650029
  H  0.71896759  1.43253535  0.84062444
  O -1.24877396  0.72043918  0.55377590
  C -1.17613922 -0.62522240  0.36595679
  O -1.98396156 -1.46758861  0.55673264
  C  0.25484047 -0.53826645 -0.13860180
  N  1.09682828 -1.36186129 -0.52645722
  H  2.00474628 -0.99550439 -0.80755952
