15
opt_min/./Product_9870_0_opt.xyz
  C -1.33231100 -0.49635500 -1.13085000
  H -0.80424340 -1.38671783 -1.44201103
  H -2.21819274 -0.27549416 -1.71073932
  C -1.37124620 -0.13141187  0.31922971
  H -2.27661802  0.14932791  0.82983021
  C -0.11793154 -0.65742552  1.01401473
  H  0.00130224 -0.26379166  2.02504683
  H  0.03792025 -1.73506879  1.01663391
  C  0.70701915  0.12356546 -0.00205750
  C  2.05962106  0.66486806  0.09600179
  H  2.64130198  0.45770456  0.98909874
  H  2.28865272  1.60104633 -0.40410371
  O  1.77082043 -0.42534965 -0.73288375
  C -0.53762076  0.68216536 -0.64892736
  H -0.67008147  1.68853292 -1.00482576
