17
opt_min/./Product_7819_0_opt.xyz
  C  1.69517800  1.00610400  0.34548100
  C  0.94464016 -0.28237604  0.13474640
  C  1.46944212 -1.31244314 -0.50693334
  H  0.92719584 -2.22856847 -0.62759199
  H  2.46094032 -1.25862215 -0.92214969
  C -0.44825381 -0.32421220  0.73501214
  C -1.30914991  0.72665313  0.06724208
  C -1.84339871  0.55469903 -1.12919448
  H -1.67178392 -0.35002673 -1.68610026
  H -2.46041308  1.30259079 -1.59336004
  H -1.48402966  1.64141871  0.61727357
  O -0.99365721 -1.62388567  0.61472583
  H -1.94526653 -1.54013994  0.50777637
  H -0.35861949 -0.07874930  1.80903636
  H  2.44401948  0.87656525  1.12130251
  H  2.20645953  1.29784735 -0.56459215
  H  1.03175757  1.81034605  0.64480014
