11
opt_min/./Product_629_0_opt.xyz
  O -2.06703804 -0.62857109  0.72693381
  C -1.24842008 -0.67593943 -0.14570507
  C -0.16538325  0.38008200 -0.34160981
  N -0.21380992  1.47297265  0.61588933
  H -0.06245552  1.11503853  1.55195035
  H -1.13403363  1.89473038  0.60344452
  C  1.12172612 -0.29840418 -0.29172742
  C  2.18054945 -0.85361514 -0.23565306
  H  3.11101866 -1.33336959 -0.17209726
  H -0.28211237  0.80240561 -1.35176227
  H -1.21650616 -1.51312637 -0.87441260
