15
opt_min/./Product_9895_0_opt.xyz
  C  0.88468780 -1.87332312 -0.79152293
  C -0.13283609 -0.75491390 -0.79393683
  C  0.52980353  0.60850813 -0.76013664
  C -0.12456001  1.73627174 -1.31968455
  N -0.63991934  2.64439545 -1.79260485
  H  1.61602188  0.74479983 -0.71292811
  N -0.03652802  0.02384581  0.47091854
  C -1.23651088  0.56981145  1.07934521
  H -0.99893312  1.40082091  1.74576456
  H -1.90310728  0.91432411  0.29093156
  H -1.73962034 -0.21860349  1.63867521
  H  0.67492157 -0.21343194  1.17117747
  H  0.43566712 -2.76914353 -0.36275155
  H  1.15618712 -2.10159297 -1.81993246
  H  1.80827114 -1.65193597 -0.23192167
