17
opt_min/./Product_11930_0_opt.xyz
  C  2.27311000  0.27246300 -0.24321100
  C  0.79305081  0.26819090 -0.04148380
  C  0.04403912  1.37151706 -0.03094757
  H  0.48963195  2.34339031 -0.19061987
  C -1.38361733  1.31179510  0.21135388
  H -1.90435469  2.23720100  0.40891743
  C -2.03072022  0.14910908  0.17677141
  H -3.09906468  0.09287537  0.32621648
  C -1.31222497 -1.12555509 -0.15643584
  H -1.79499666 -1.97135055  0.33745735
  H -1.40106996 -1.29067455 -1.23810810
  C  0.16131134 -1.07097269  0.24725904
  H  0.71656706 -1.85883868 -0.26691214
  H  0.25712824 -1.25730339  1.32453057
  H  2.64681772  1.28611831 -0.36769101
  H  2.77190264 -0.18818786  0.60958528
  H  2.54091490 -0.30427670 -1.12952895
