10
opt_min/./Product_11954_1_opt.xyz
  C -1.54232300 -0.34725000  0.02651600
  O -2.13430496  0.86109286  0.03011104
  H -1.45595874  1.54429536  0.13327954
  C -0.23858321 -0.57894355  0.14060736
  O  0.65170293  0.48796240  0.28716548
  C  1.94245719  0.21307214  0.40002564
  O  2.46060496 -0.86450116  0.39013822
  H  2.49593875  1.16237436  0.50789416
  H  0.19826288 -1.56267892  0.13022629
  H -2.24101811 -1.16100254 -0.08506262
