17
opt_min/./Product_6440_0_opt.xyz
  C -2.39044000 -0.35993600 -0.29191600
  C -0.91727266 -0.57179150  0.03130781
  C -0.06008405  0.52330791 -0.57601573
  H -0.62166818  1.17034111 -1.25019223
  C  1.35041491  0.28816688 -0.97720581
  H  1.80353704  0.63136285 -1.89399591
  C  2.06401888 -0.64313206 -0.04593421
  H  3.04273466 -1.01031126 -0.35490968
  H  1.45483739 -1.45430608  0.33948610
  C  2.16470754  0.71440602  0.59392912
  C  0.95530270  1.33147987  0.21439985
  H  0.84013023  2.40652328  0.22719066
  H -0.79180978 -0.58681769  1.12061442
  H -0.61119876 -1.55101782 -0.35006859
  H -2.99004419 -1.15397651  0.15034989
  H -2.54680107 -0.35947425 -1.37244885
  H -2.74110623  0.59057396  0.10572364
