14
opt_min/./Product_9406_0_opt.xyz
  O -1.86768100 -1.15818200 -0.38588100
  C -0.98688467 -0.08990267 -0.15932149
  C -1.67833591  1.04539527  0.57764026
  O -1.27375038  2.16238074  0.69251821
  H -2.64116397  0.71079402  1.02449693
  C  0.26838426 -0.54831616  0.61528362
  N  1.21442992  0.51618662  0.69972562
  C  2.38719201  0.36266440  0.29542715
  H  3.06740850  1.19805909  0.36830630
  H  2.77944853 -0.55977333 -0.15188695
  H  0.67034968 -1.44832413  0.11667566
  H -0.02480796 -0.80844642  1.64116416
  H -0.68362088  0.27133669 -1.15071687
  H -2.06897020 -1.59433083  0.45411549
