13
opt_min/./Product_3405_0_opt.xyz
  N -1.02221000  0.48483500 -0.22062000
  C -2.31738622  0.22754535  0.02030780
  O -2.75421667 -0.82914390  0.40055438
  H -2.95977659  1.10701666 -0.17935876
  C  0.00054907 -0.53162012 -0.01679704
  C  1.34120000 -0.01876694 -0.42792206
  C  2.39668954  0.01412024  0.36369217
  H  3.34861038  0.38357735  0.02309125
  H  2.35229496 -0.33933770  1.38014748
  H  1.40746609  0.33664887 -1.44831863
  H  0.00191159 -0.83445836  1.03551668
  H -0.27064905 -1.41114770 -0.61479501
  H -0.72670988  1.39196290 -0.54158110
