14
opt_min/./Product_10981_0_opt.xyz
  O  3.08717000  0.75271900  0.88642500
  C  2.40410196  0.01426984  0.16597280
  C  1.03305949  0.00059462  0.07586888
  C -0.07934616  0.78516321  0.72179212
  H -0.10781566  1.85363364  0.49673270
  H -0.20027018  0.66209421  1.80012780
  N -1.03189108  0.02018232 -0.05016959
  C -2.32699344  0.02930711 -0.12886104
  H -2.89475649  0.71555084  0.47304776
  H -2.83029444 -0.64866787 -0.79450577
  C -0.00502359 -0.76775555 -0.69847143
  H -0.00533910 -0.65315178 -1.78482032
  H -0.08952405 -1.83206401 -0.46325090
  H  2.89640414 -0.73520723 -0.49597409
