15
opt_min/./Product_6502_0_opt.xyz
  O  3.24655100 -0.52338200 -1.06059600
  C  2.09678751 -0.09696223 -0.55934207
  N  1.25008497 -0.54924639  0.33056459
  C  0.00443177  0.14374733  0.60600515
  C -1.02507165 -0.05639212 -0.50993280
  C -2.33874910  0.66995131 -0.19966097
  H -2.21647520  1.34369298  0.64516729
  H -3.12931178 -0.03382731  0.04609748
  H -2.66652355  1.25985667 -1.05035502
  H -0.59457826  0.31380701 -1.44145673
  H -1.20603967 -1.12610103 -0.63274005
  H -0.38396043 -0.23654217  1.55274643
  H  0.22336915  1.20970099  0.71542075
  H  1.40713786 -1.46661435  0.71720543
  N  2.44150261  0.79516934 -1.36637974
