15
opt_min/./Product_7356_0_opt.xyz
  C  1.62019200  0.42776900  0.58779000
  H  1.88304928  0.16492104  1.60112598
  H  1.73719902  1.47321042  0.33903848
  C  1.81799694 -0.58841157 -0.46189481
  H  2.19055920 -1.56640747 -0.19884973
  H  2.04635343 -0.27035505 -1.46832257
  C  0.40144516 -0.27168122 -0.00764607
  C -0.73475954  0.40269889 -0.74051177
  H -0.69371216  1.48580081 -0.87703172
  H -0.96221715 -0.08043461 -1.68781713
  C -1.61835132 -0.14722766  0.41043353
  O -2.81058959 -0.80215304  0.10150597
  H -3.44378260 -0.15689364 -0.23594922
  H -1.77477728  0.62291447  1.18221579
  C -0.44957361 -1.00860007  0.92044561
