15
opt_min/./Product_7034_0_opt.xyz
  C  1.68935300  0.05240500  0.46144900
  C  0.35211908 -0.13104421 -0.20546485
  C -0.63044619  1.04441717 -0.38223221
  H -0.42415979  1.87641579  0.28732387
  H -0.69120352  1.40937401 -1.40543706
  C -1.79092459  0.13705943  0.05813914
  H -2.23941695  0.41964682  1.00717207
  H -2.57666001 -0.00696389 -0.68118545
  C -0.81459753 -1.04805053  0.20480958
  H -0.86458573 -1.66320202  1.09493435
  C -0.56529909 -1.70859599 -1.15570864
  O  0.42097420 -0.88180910 -1.43803474
  H  1.97625883 -0.84864161  1.00059061
  H  2.44108948  0.25784675 -0.29921241
  H  1.66092590  0.89014865  1.15475925
