11
opt_min/./Product_8689_0_opt.xyz
  O  2.92570600  1.50685900 -0.53328500
  C  1.75334651  1.17786876 -0.59528202
  C  1.17107173  0.23046746  0.26361713
  C  0.99252137 -0.70549642  1.18216645
  H  1.36389417 -1.34633150  1.94858492
  N -0.16818976 -0.45610264  0.53954356
  C -1.42761450 -0.68635020  0.20171530
  N -1.96495144 -0.05216803 -0.76027327
  H -2.93425751 -0.28659839 -0.93313813
  H -1.91211964 -1.44540915  0.83897250
  H  1.06203203  1.60562415 -1.33706146
