16
opt_min/./Product_9850_0_opt.xyz
  O  2.34231000  0.37304000  0.33576400
  C  1.72498326 -0.54317480 -0.52695229
  C  0.36869256 -0.05550977 -1.06922447
  C -0.66194797 -0.06245247  0.02464209
  C -0.85336819  0.65121724  1.28660042
  H -0.23207958  1.57264233  1.26705558
  N -1.92117134  0.72845904  0.10758902
  H -2.05713321  1.41269385 -0.62890184
  C -1.97991387 -0.71285420 -0.10081538
  H -2.29517109 -1.04063644 -1.08876029
  H -2.41664107 -1.23892638  0.73682922
  H  0.05886690 -0.73950781 -1.86574535
  H  0.49340503  0.94681317 -1.49973751
  H  1.58025476 -1.45669181  0.05728851
  H  2.37972954 -0.76995559 -1.38141499
  H  2.75255290  1.07683931 -0.17788780
