14
opt_min/./Product_9317_0_opt.xyz
  C -1.21790399 -1.04464183 -0.42912310
  C  7.81970477  0.35903159 -3.18573911
  C  7.92045490 -10.00946905 -2.52052112
  C  21.90749599  16.15108834  7.86575369
  H  6.45893346  23.83453979  20.65401182
  O -8.46948326  8.93933618 -6.15518104
  H -2.44028736  5.71387355  31.00427711
  C  40.75855363  9.65063146 -2.97405939
  N -9.43995128  11.00038898  17.37724093
  H -8.85369479 -10.32574857 -12.79028710
  H  8.03702110  17.61777288  0.19001505
  H -20.03603929 -13.21423326 -23.33513680
  H -6.83171453 -2.48160186  4.94468864
  H  30.48067687  0.38515159 -10.67802589
