15
opt_min/./Product_6674_0_opt.xyz
  C -2.41235700  0.25916400  0.08694700
  C -0.95680946  0.06218195  0.36252244
  C -0.26914102 -1.28429345  0.18995617
  C  1.20260500 -0.89724353 -0.02990196
  C  1.07434021  0.57463311 -0.34176074
  O  2.15369106  1.41122924 -0.27644109
  H  1.83995091  2.32328019 -0.27655975
  H  1.68639264 -1.44591856 -0.83711035
  H  1.80343831 -1.02799340  0.87532249
  H -0.41677261 -1.93420296  1.05254672
  H -0.66788187 -1.80404440 -0.68985746
  O -0.11229645  1.02399897 -0.03341412
  H -3.00871243 -0.07629450  0.93459642
  H -2.74338055 -0.30343126 -0.79289749
  H -2.60643456  1.31473254 -0.08051288
