14
opt_min/./Product_11458_0_opt.xyz
  O -2.24717700 -0.29799000  0.52522300
  C -1.35777196 -0.01572205 -0.49965013
  C -0.32024422  1.06952345 -0.19385004
  H -0.28963982  1.43371179  0.84646639
  H -0.25553625  1.92361261 -0.86718967
  N  0.80516768  0.08394230 -0.46026360
  C  1.69407378  0.02179091  0.70186770
  O  1.59277406 -0.83928972  1.54528226
  H  2.33329827  0.91019006  0.75896591
  H  1.33262447  0.34021774 -1.29270166
  C -0.18120924 -1.01611695 -0.67226932
  H -0.07111391 -1.77810200  0.10699499
  H -0.07745830 -1.47459671 -1.65529640
  H -1.80693475 -0.59739861  1.33898909
