18
opt_min/./Product_5516_0_opt.xyz
  C -1.87926700  0.29842300 -0.56066500
  C -1.20044228 -0.90593747  0.07518032
  C  0.00110465 -0.50077619  0.94156794
  C  1.06162265  0.22358936  0.15552403
  C  1.92562367 -0.64208494 -0.71247201
  H  2.34825128 -0.07981173 -1.54184178
  H  1.35503494 -1.47516182 -1.11783361
  H  2.74608297 -1.05932392 -0.12905860
  C  1.23494784  1.53143707  0.24629512
  H  0.62730922  2.14464591  0.88873131
  H  1.99192713  2.04353919 -0.32430118
  H  0.43176510 -1.39093216  1.40159561
  H -0.35538533  0.15478169  1.74103677
  H -0.87099123 -1.59614942 -0.70393228
  H -1.91299879 -1.43638031  0.70978464
  H -2.17031900  1.00965406  0.21087990
  H -1.20275534  0.80702620 -1.24214305
  H -2.76972340 -0.00988169 -1.10130527
