13
opt_min/./Product_10854_0_opt.xyz
  C -1.56320400  0.19193300  0.21159800
  C -0.22466461 -0.43081215  0.03264682
  C  0.70066195 -0.30700326 -1.13127538
  H  1.11754268 -1.18224288 -1.61069611
  H  0.52055562  0.53197837 -1.78861835
  C  1.17529869  0.08521217  0.27697768
  O  1.60043800  1.34805199  0.60679279
  H  2.56243151  1.38793900  0.54123413
  C  1.36059590 -1.21919303  1.04416150
  O  0.16235012 -1.65934166  0.70198686
  H -1.87711261  0.09404739  1.24939791
  H -2.30560448 -0.28066209 -0.43059288
  H -1.48609562  1.24797751 -0.03684106
