17
opt_min/./Product_9528_0_opt.xyz
  C  1.17566605  0.22585283  1.62217747
  C  0.72434002  0.55958359  0.23139982
  C  0.05510590 -0.23454550 -0.60611498
  C -0.49160559 -1.60563179 -0.37989276
  C -0.11326218 -2.54412287 -1.52476656
  H  0.96803103 -2.63622345 -1.59716811
  H -0.53487338 -3.53346294 -1.36156923
  H -0.48870489 -2.16155726 -2.47147698
  H -1.58299256 -1.53267297 -0.32539699
  H -0.14167652 -2.02691765  0.56385533
  C  1.03311784  1.87412449 -0.20806977
  C  1.20297454  3.00324440 -0.57908899
  H  1.41746480  3.97966935 -0.89706290
  H -0.19503201  0.17287568 -1.58000566
  H  2.25151716  0.37084428  1.71055579
  H  0.69230784  0.89054600  2.33837529
  H  0.93554927 -0.80090076  1.87998845
