17
opt_min/./Product_11060_0_opt.xyz
  C -2.31202700  0.90101200  0.52452300
  O -0.92479601  0.75381610  0.37402867
  C -0.54758154 -0.31804113 -0.44349956
  H -1.33714069 -1.05813017 -0.55921168
  C  0.35018042 -0.09079359 -1.61814706
  H  0.16350588 -0.61937559 -2.53974563
  H  0.73921022  0.90952532 -1.72746529
  C  0.85735178 -0.86571782 -0.41346959
  C  1.97037570 -0.32595890  0.39292427
  C  1.95087156  0.78153633  1.11426779
  H  1.06866388  1.39143774  1.18445705
  H  2.81878268  1.11012888  1.66075297
  H  2.87552322 -0.91972425  0.34107638
  H  0.91840491 -1.94050694 -0.54770916
  H -2.80741430  1.11033202 -0.43100218
  H -2.76659658  0.01001012  0.97351590
  H -2.45067458  1.75046882  1.19196189
