11
opt_min/./Product_499_0_opt.xyz
  O  0.02452900  1.72526200 -0.14544800
  C -0.18671323  0.55887286  0.00564153
  C  0.89213916 -0.51380942  0.27143809
  C  2.19070650  0.08110304  0.59736300
  H  2.77863022  0.26391815 -0.31929138
  H  0.53473931 -1.07899930  1.14024777
  H  0.85636900 -1.16083193 -0.61717650
  C -1.56408416 -0.04690121 -0.12545160
  H -1.69569477 -0.92603069  0.49842893
  H -2.30656493  0.70726342  0.12622950
  H -1.71884906 -0.33506183 -1.16473819
