12
opt_min/./Product_7015_0_opt.xyz
  C -1.72518900 -0.19659800 -0.00891900
  C -0.25478963 -0.08126541 -0.00670431
  C  0.73145750 -0.98131418 -0.10367700
  H  0.66664799 -2.04484970 -0.22275662
  C  1.99017129 -0.22794766 -0.01282879
  H  2.97130142 -0.67524541 -0.05500233
  N  1.84602434  1.03213091  0.12654960
  C  0.44384487  1.27510973  0.13486875
  O -0.07777758  2.34612196  0.22089685
  H -2.06340524 -0.94858676 -0.71892942
  H -2.17650795  0.76511272 -0.24380131
  H -2.07218799 -0.49653650  0.98141124
