9
opt_min/./Product_4245_0_opt.xyz
  O -0.19021292 -0.45316994 -1.34260903
  C -0.73240033 -0.47218006 -0.03771672
  C -1.39875514  0.71498383  0.40163557
  N -1.93106540  1.66257125  0.75306676
  H -1.20193436 -1.39509208  0.28529090
  C  0.72895858 -0.41587388 -0.32961266
  O  1.43691925  0.74824278 -0.18723495
  H  1.73060144  0.86773317  0.72166801
  H  1.31484168 -1.32258543 -0.18126496
