16
opt_min/./Product_4279_0_opt.xyz
  C -1.15788500  0.27340400 -1.12361800
  C -0.72823601 -0.06394537  0.27916244
  C -1.54997307  0.07300874  1.30861220
  H -2.55975126  0.42149835  1.17617151
  H -1.24237613 -0.15762675  2.31044974
  C  0.69740745 -0.54111871  0.47363305
  O  0.96974513 -1.71863827 -0.26125738
  H  1.07125304 -1.48500710 -1.18873581
  C  1.69257006  0.57268594  0.13931196
  H  1.50618506  1.44188307  0.75904641
  H  2.70734764  0.22669918  0.31053939
  H  1.59758668  0.86904420 -0.90348488
  H  0.82492688 -0.84005647  1.51895469
  H -2.16102941 -0.09415941 -1.30829363
  H -0.49905167 -0.16413316 -1.86602621
  H -1.16303800  1.35019493 -1.26486643
