9
opt_min/./Product_4241_0_opt.xyz
  O  0.82990103 -0.64939778  0.99331618
  C  0.15461426 -0.23729179 -0.13732904
  C -1.14850751  0.48544452  0.21523445
  O -1.42673346  0.74992434  1.34761093
  H -1.76537621  0.77521649 -0.64897714
  N  0.90967793  0.68643400 -0.90723636
  C  1.54800024  1.43812038 -1.52225704
  H -0.05479680 -1.10738587 -0.77938272
  H  0.52324531 -0.11440773  1.74551071
