18
opt_min/./Product_11582_0_opt.xyz
  C -2.94523300 -0.08136400  0.24997400
  C -2.16174463 -0.73173119 -0.89211387
  O -0.77290855 -0.69544655 -0.68223691
  C -0.19399488  0.55347844 -0.87601389
  N  1.05388384  0.74048908 -0.47968458
  C  1.86410637 -0.04479202  0.22745873
  C  3.27991929  0.35678261  0.45452397
  H  3.96468399 -0.09264974 -0.27574097
  H  3.61215264  0.03967314  1.44358765
  H  3.38787138  1.44022388  0.38880107
  H  1.53774739 -1.04773549  0.42663831
  H  1.43527878  1.65478876 -0.70606326
  H -0.72203641  1.30178105 -1.43558897
  H -2.41058497 -1.79471991 -0.96082296
  H -2.41557520 -0.24863650 -1.84700646
  H -2.49751229 -0.36840829  1.19819957
  H -3.97941561 -0.41597151  0.23021851
  H -2.92422974  1.00319228  0.17149789
