12
opt_min/./Product_9794_0_opt.xyz
  N  2.45106800 -0.05352200 -0.09570200
  C  1.11281188  0.03257040 -0.03429847
  C  0.34591908  0.99436349  0.63576828
  C -0.91728573  0.50323730  0.40452389
  O -2.09218637  1.01932922  0.79074121
  H -1.91984054  1.81119455  1.31843463
  C -0.92178255 -0.78803462 -0.39372451
  H -1.30610389 -1.63602117  0.17932752
  H -1.46907713 -0.70536938 -1.33564962
  O  0.44992563 -0.98847102 -0.65796311
  H  2.83853861 -0.68745644 -0.77755446
  H  2.97833869  0.77961763  0.11049897
