14
opt_min/./Product_3792_0_opt.xyz
  C -1.17752200 -1.19708800  0.00621900
  C -0.40157677  0.07385413  0.39963264
  C  1.07335878 -0.21510392  0.45523482
  C  2.05424800  0.44819238 -0.12573198
  H  3.07881144  0.14109493  0.00426583
  H  1.89923154  1.30890562 -0.75109109
  H  1.31271078 -1.07514938  1.07043326
  C -0.85924803  1.16845591 -0.53182428
  O -0.23939730  1.71891183 -1.39470373
  H -1.93187793  1.41902169 -0.37522934
  H -0.73273998  0.35944818  1.40731946
  H -0.92098543 -1.49102471 -1.00837510
  H -2.25013581 -1.02764936  0.05968669
  H -0.91813954 -2.00817379  0.68062446
