7
opt_min/./Product_4204_0_opt.xyz
  O  1.76671400 -0.12878000  0.70875900
  N  0.46781815  0.19304201  0.70206962
  C -0.22333108  0.00026489 -0.33960836
  N -1.53125294  0.32086836 -0.34845933
  C -2.66483222  0.59941489 -0.38256234
  H  0.17327207 -0.42982097 -1.27167380
  H  2.06743879 -0.50487618 -0.14506798
