13
opt_min/./Product_2203_0_opt.xyz
  C -1.81294300 -0.53254000 -0.14117000
  C -0.66383939  0.40591957  0.12776119
  O -1.00904432  1.71049997  0.48784058
  H -0.83370478  2.31243216 -0.24381870
  C  0.59764162  0.02689485  0.07751774
  C  2.05299783  0.25131541  0.18188546
  H  2.56900285  0.79062473 -0.60982802
  H  2.50627635  0.36212988  1.16237721
  N  1.44465965 -0.99873270 -0.15193131
  H  1.56599685 -1.96330611 -0.34469681
  H -2.00896492 -1.17091091  0.71955953
  H -2.70874310  0.04773025 -0.34279503
  H -1.59543738 -1.16894727 -0.99623030
