13
opt_min/./Product_4550_0_opt.xyz
  O  2.93158000  0.99083100  0.60682100
  C  1.85112886  0.59098966  0.17915993
  C  0.92656629 -0.17683552  0.85924308
  N -0.33568022 -0.58807591  0.35397349
  H -0.59242061 -1.50324633  0.72613820
  C -1.51794622  0.31891050  0.17790268
  H -1.30821098  1.35581431  0.39638515
  H -2.48484096 -0.04276975  0.49398881
  C -0.84686184 -0.30846078 -0.98043954
  H -0.19851043  0.29139922 -1.60254048
  H -1.32318099 -1.13401415 -1.49334563
  H  1.09070320 -0.45758782  1.88464286
  H  1.56552709  0.83107616 -0.88130386
