13
opt_min/./Product_4983_0_opt.xyz
  C  0.48242200 -0.76158100 -0.38447200
  H  0.38008127 -0.74471853 -1.47216858
  H  0.97721011 -1.68705314 -0.09147810
  C  1.29146630  0.45007157  0.05566139
  H  2.25562985  0.50245430 -0.45426945
  H  1.45980676  0.43051440  1.13799673
  O  0.61486010  1.67531084 -0.27049139
  C -0.68878156  1.77229911 -0.31368134
  N -1.40592666  0.69066189 -0.04109196
  H -2.40700211  0.80163148 -0.06853299
  C -0.89936787 -0.64592581  0.25305243
  H -0.82728868 -0.79188487  1.33905499
  H -1.58579318 -1.39321439 -0.15170003
