9
opt_min/./Product_4754_1_opt.xyz
  N -1.82787073  0.99220589 -1.44232157
  C -1.20205470  0.10791295 -0.85726502
  O -1.21608348 -0.82617046  0.08834904
  C  0.02075509 -0.64250833 -0.68600202
  C  1.14389453 -0.08995662  0.00392005
  C  2.07582870  0.37277531  0.59754425
  H  2.89682756  0.78269631  1.10560254
  H  0.23891368 -1.47070167 -1.35383917
  H -2.78296118  1.14097946 -1.12754316
