12
opt_min/./Product_6326_0_opt.xyz
  C  1.99698100 -0.07064700  0.30016500
  O  0.71430991 -0.41158042  0.79135984
  C -0.32504802  0.06763223  0.10313868
  N -0.14192693  0.77238662 -0.92918984
  H -0.99146213  1.08388729 -1.37953143
  C -1.65077694 -0.33704030  0.70335882
  H -2.22320323 -0.90008528 -0.02527328
  H -1.49442729 -0.93780779  1.59457436
  H -2.20259163  0.55813000  0.98024048
  H  2.71600281 -0.49236709  0.99855615
  H  2.15330101 -0.50319690 -0.68933613
  H  2.10689451  1.01044669  0.23927499
