14
opt_min/./Product_9535_0_opt.xyz
  C  2.20599600 -0.16856400 -0.39952300
  C  1.00520508  0.35885770  0.34626234
  H  1.28043555  1.08140465  1.12843749
  O -0.03711911  0.89545867 -0.46313266
  C -0.87342360 -0.07266026  0.12547137
  C -2.27823404  0.15171912  0.50690549
  H -2.72460103  1.09168579  0.21055440
  H -2.69955037 -0.27891159  1.39932337
  N -1.87235524 -0.80694253 -0.52698372
  H -2.06604031 -0.55593113 -1.48575396
  O  0.14672955 -0.64555436  0.88823161
  H  2.80071491 -0.77973228  0.26913815
  H  1.87076531 -0.76613313 -1.24142806
  H  2.80000295  0.66428588 -0.76199659
