16
opt_min/./Product_3955_0_opt.xyz
  C  2.96733805 -0.44194272  0.01916010
  C  1.74541469 -0.24416591 -0.36241351
  C  0.50842140 -0.03607940 -0.68725953
  C -0.59771501  0.22558490  0.30760624
  C -1.37895017 -1.06956245  0.55500629
  H -1.93891389 -1.00691494  1.48540924
  H -0.69441611 -1.91316541  0.62260059
  H -2.07877064 -1.26428458 -0.25609548
  C -1.50712895  1.36450813 -0.18052314
  H -1.67800497  2.09203225  0.60943495
  H -2.47429887  0.98397804 -0.50157043
  H -1.05436785  1.88728209 -1.02049984
  H -0.13041965  0.52275128  1.25239273
  H  0.21473623 -0.08418556 -1.72987823
  H  3.32814057 -1.43117222  0.25326627
  H  3.67750087  0.36765368  0.07741445
