11
opt_min/./Product_10205_1_opt.xyz
  C  1.08477900 -0.62174200 -0.10611800
  C  0.03989914  0.45982304 -0.09896669
  O  0.50823796  1.75642915 -0.02948812
  H  1.39244700  1.75175012  0.34998399
  C -1.27528202  0.28235380 -0.18242678
  O -1.93956690 -0.90398190 -0.31765251
  H -1.31141015 -1.63032094 -0.37213311
  H -1.95490105  1.11743825 -0.16322515
  H  1.46099727 -0.80506904  0.90158549
  H  1.92192667 -0.32183046 -0.73291408
  H  0.70042231 -1.55954173 -0.49652317
