12
opt_min/./Product_3454_0_opt.xyz
  N  1.84399600  1.17955600  0.01839500
  C  1.15375742  0.14352946  0.24507023
  O  1.75276453 -0.98013623  0.69511421
  H  2.69581122 -0.78928791  0.78044274
  N -0.17253954 -0.02099347  0.08892440
  C -1.30108028 -0.86603859  0.19715662
  H -1.39151210 -1.68124798 -0.51104333
  H -1.64117860 -1.10644392  1.19800752
  C -1.40844054  0.54427787 -0.28351419
  H -1.57022868  0.73619945 -1.34002985
  H -1.84442061  1.29979767  0.36221322
  H  1.31813851  1.97527782 -0.31724368
