16
opt_min/./Product_6773_0_opt.xyz
  C  2.52898300  0.01775500 -0.58626200
  N  1.25629259  0.56370772 -0.16806225
  C  0.14878404 -0.33524644 -0.13955074
  H  0.51901862 -1.37755590 -0.20741483
  O -0.57527684 -0.14377274  1.04574887
  C -1.93739342 -0.32264792  0.73755756
  H -2.21175401 -1.39003243  0.78696701
  H -2.51476114  0.25931543  1.45511189
  C -2.02710553  0.18874932 -0.70156875
  H -2.18600669  1.27501228 -0.73269665
  H -2.77707546 -0.32330551 -1.30617516
  O -0.75493621 -0.13890646 -1.22192696
  H  1.01643352  1.39731777 -0.69451988
  H  2.54510009 -0.30809610 -1.63559488
  H  2.77149709 -0.83307426  0.05131923
  H  3.29131041  0.78378719 -0.43674149
