13
opt_min/./Product_4540_0_opt.xyz
  C -2.12731000  0.53748300  0.26885200
  C -0.82305361 -0.19253813  0.11058850
  C  0.39347680  0.71938780 -0.05553200
  N  1.59396291  0.09141212  0.40884202
  C  2.07632776 -0.87112483 -0.23264404
  H  1.68661062 -1.25052302 -1.17938466
  H  2.94621059 -1.36540281  0.17232757
  H  0.24900213  1.64317618  0.50883732
  H  0.42812060  0.94548533 -1.13213636
  O -0.73052046 -1.39099643  0.10445234
  H -2.17077244  0.95526125  1.27363041
  H -2.95905636 -0.15071108  0.14274408
  H -2.20082151  1.35233592 -0.44703709
