10
opt_min/./Product_4909_0_opt.xyz
  N  2.26753600  0.01138500  0.33938000
  C  1.02069612  0.14668679  0.73752065
  O  0.20028488 -0.47695747 -0.15714200
  C -1.16874084 -0.38140533  0.13896534
  O -1.77605676  0.65109492 -0.56600516
  H -1.75295602  1.46470791 -0.05062099
  H -1.63101726 -1.31734074 -0.19520999
  H -1.29016649 -0.26087999  1.22630822
  H  2.51397952 -0.49399838 -0.51122977
  H  3.00874006  0.43627474  0.86928998
