14
opt_min/./Product_11015_1_opt.xyz
  C -1.66439600  0.63573300 -0.58541400
  C -1.64484158 -0.76428289 -0.17272664
  H -2.50487985 -0.92926428  0.50141069
  H -1.85005677 -1.41325747 -1.03624827
  O -0.43564584 -1.13144370  0.46431230
  C  0.41544104  0.00044679  0.55514754
  C  1.76870174 -0.28157313 -0.10779507
  H  2.57605500  0.19347286  0.44583866
  H  1.94844734 -1.35025911 -0.12215647
  H  1.80358716  0.10869461 -1.12012957
  H  0.57515002  0.22536686  1.62200225
  C -0.37715985  1.16973560 -0.10046369
  H  0.15955503  1.66704627 -0.90597027
  H -0.64187226  1.94658339  0.62389440
