12
opt_min/./Product_333_0_opt.xyz
  C  1.04200500  0.67787900  0.22592800
  H  1.31408384  0.86562427  1.25272983
  H  1.27529559  1.48160483 -0.45710043
  C  1.05241132 -0.71011394 -0.28538105
  H  1.30754535 -0.89759514 -1.31734459
  H  1.31495065 -1.50874100  0.39442648
  C -0.27131425 -0.03560795 -0.01894465
  C -1.35395304 -0.34968910  0.93464283
  H -1.50990501 -0.71109004  1.92227525
  O -2.27987053  0.03016529  0.03944070
  C -1.38464050  0.34931221 -0.91318515
  H -1.58568602  0.72496756 -1.88598624
