14
opt_min/./Product_7791_0_opt.xyz
  C  2.23408900  0.17108500  0.03237500
  C  0.76597159  0.40793692 -0.03351196
  C  0.13856172  1.60827256 -0.19786084
  N -1.25001344  1.24645407 -0.15848809
  H -1.97668182  1.94312480 -0.26371775
  C -1.50002023 -0.02026329  0.01053855
  O -2.74769903 -0.51476832  0.05344373
  H -2.74477720 -1.46106194  0.24145335
  C -0.21042841 -0.74808121  0.10343212
  H -0.12339182 -1.45751122 -0.72465987
  H -0.09781429 -1.30085780  1.03657898
  H  2.54266632 -0.61255728 -0.66140525
  H  2.54210718 -0.12947268  1.03723923
  H  2.75376004  1.09277231 -0.21608897
