13
opt_min/./Product_8531_0_opt.xyz
  O  1.80138700 -0.86990900 -0.90152500
  C  0.69259700 -0.45077147 -0.21614172
  C  2.02442597 -0.02684866  0.21509590
  H  2.35848952  0.97717569 -0.02123286
  H  2.47022000 -0.50198641  1.07822237
  O -0.13298394 -1.35809830  0.47520375
  C -1.29647418 -0.70074212 -0.02993245
  H -2.15148902 -1.29582148 -0.29278990
  C -1.30729732  0.73131719  0.40704401
  H -0.81115213  1.00389910  1.32709312
  H -2.20490911  1.29014807  0.18758903
  C -0.47775692  0.31656138 -0.78001862
  H -0.55670277  0.71232779 -1.77411700
