14
opt_min/./Product_776_0_opt.xyz
  C -0.85388500  1.30230800  0.11243400
  C -0.37640263 -0.13277055  0.11920954
  C  1.10650799 -0.32071857  0.41132505
  C  2.00876326  0.54700812 -0.32593551
  H  3.03385060  0.13953397 -0.24619740
  H  1.35989518 -1.38768607  0.46821633
  H  1.28971991  0.06233272  1.43500323
  C -1.05037962 -1.15615043 -0.69386355
  H -0.49394983 -2.01185225 -1.06200369
  H -1.91848881 -0.88243173 -1.28555980
  O -1.21821074 -1.09393111  0.69589598
  H -1.58477195  1.47234229 -0.67716494
  H -1.31872618  1.54746425  1.06657714
  H -0.00062680  1.95902467 -0.05936642
