9
opt_min/./Product_1644_0_opt.xyz
  C  2.39007198  1.65724996  0.18342119
  C  1.45184265  0.91787832 -0.03814451
  C  0.58370690 -0.13076127 -0.25938708
  O -0.67288992  0.14711254 -0.49566665
  C -1.52532892 -0.96635288 -0.72486498
  H -1.38560370 -1.72916272  0.04373230
  H -2.54695792 -0.58832584 -0.69533855
  H -1.32130565 -1.40076751 -1.70524521
  H  3.24952290  2.22963832  0.37645075
