15
opt_min/./Product_8168_0_opt.xyz
  O  1.70202500 -0.32433800 -1.88623200
  C  0.92770528 -0.12173644 -0.99596081
  C  0.78700322  1.12141146 -0.11695067
  H  1.70505763  1.32759191  0.43199542
  H  0.54515737  1.99947993 -0.71450139
  C -0.36707521  0.63032288  0.75379715
  H -0.73461657  1.30117310  1.52891319
  C -1.30628562  0.01729669 -0.29735383
  H -1.55473552  0.61819543 -1.16916048
  H -2.20531620 -0.42073415  0.12504502
  C -0.16126644 -1.00977981 -0.43993126
  H -0.30936885 -1.99208141 -0.88181269
  C  0.07427961 -0.80631680  1.07317203
  H  1.08460190 -0.95867701  1.44674601
  H -0.63826639 -1.35629109  1.68069327
