8
opt_min/./Product_5764_0_opt.xyz
  O -1.52109300 -1.24514800  1.76905600
  C -0.97368713 -0.43040530  1.05487696
  C  0.05046692 -0.72469391  0.10598666
  N  0.59086386  0.18609693 -0.62071367
  C  1.05927275  1.04610649 -1.25406861
  H  1.47044566  1.81445208 -1.83306732
  H  0.39836471 -1.73531838 -0.02762365
  H -1.24674402  0.64479582  1.09589651
