15
opt_min/./Product_11888_0_opt.xyz
  C -2.16854000  0.14998800  0.45160400
  C -0.67426296 -0.05615704  0.43386336
  H -0.18736748 -0.06491076  1.40851553
  N  0.05617720  0.55700212 -0.65704630
  C  1.45211278  0.84670523 -0.36800150
  H  1.92005736  1.25631144 -1.27059107
  H  1.56534533  1.56926618  0.44193664
  C  2.03164899 -0.51838659 -0.06212060
  H  3.03573935 -0.69651863  0.28308627
  N  1.21840956 -1.46853462 -0.24471462
  C -0.03319256 -0.90971915 -0.59840323
  H -0.62000440 -1.44692638 -1.32703851
  H -2.46874199  0.66255745  1.36143059
  H -2.68803194 -0.80581035  0.40186311
  H -2.46333206  0.74616360 -0.40865769
