12
opt_min/./Product_6201_0_opt.xyz
  C  1.53108800 -0.86472400  0.76163500
  H  2.17162994 -1.53735449  0.18592608
  C  1.55354584  0.49171519  0.30286333
  H  1.21887292  1.28671208  0.95975475
  H  2.19381460  0.85892011 -0.50335039
  C  0.27611924 -0.44098210 -0.00283959
  C -0.92594783  0.06816647  0.39903092
  O -1.44820448  1.01056808  1.20307207
  C -2.32693797  0.35086496  0.26691967
  H -2.69106972  0.99063555 -0.52968192
  H -3.06006725 -0.30783056  0.71723851
  H  0.19079360 -1.00874719 -0.92642174
