10
opt_min/./Product_6353_1_opt.xyz
  C  1.58784300 -1.13835300  1.00458800
  O  0.88059365 -0.74928100  0.00295324
  C -0.19823819  0.12260575  0.24526130
  O -0.46218793  0.49751467  1.38635310
  C -0.83644210  0.44096614 -0.94305483
  O -1.88530982  1.27266255 -0.94613733
  H -2.04881082  1.53982146 -0.02462822
  H -0.53350069  0.06193531 -1.90313210
  H  1.33642668 -0.80048691  2.00104649
  H  2.41319803 -1.79411317  0.79587569
