10
opt_min/./Product_3167_0_opt.xyz
  N -0.41448553 -0.52318694 -1.14384917
  C -0.48601526  0.14404439  0.14485231
  C  0.62896862 -0.23996467  1.00106227
  C  1.55704634 -0.54963995  1.69024782
  H  2.36867875 -0.82391886  2.29582539
  N -0.43463473  1.54514623 -0.07469009
  C -0.38637881  2.69039810 -0.26251692
  H -1.43128246 -0.04810358  0.69490053
  H  0.03554859 -1.42645345 -1.07165537
  H -1.32622237 -0.63157941 -1.56941140
