17
opt_min/./Product_10888_0_opt.xyz
  C  1.34742000 -1.11239400 -0.08859100
  H  0.79280243 -1.92209068 -0.56179878
  H  2.23253743 -1.55972664  0.36280279
  C  1.82434972  0.00405797 -0.97890637
  C  1.21854220  0.98934640 -0.01252020
  H  1.82457953  1.82987050  0.30457037
  C -0.21605101  1.31789553 -0.50905624
  H -0.37513888  1.11210357 -1.56487959
  H -0.50610800  2.34416270 -0.30555615
  C -0.79447920  0.26807002  0.45218218
  C -1.70725857 -0.78260501 -0.16037002
  H -1.90776690 -1.58078105  0.54853656
  H -2.64505321 -0.32676195 -0.46040860
  H -1.24811573 -1.22155652 -1.04330444
  H -1.30572403  0.72481386  1.29976370
  C  0.63962842 -0.14091415  0.86043081
  H  0.82025176 -0.25990322  1.92783759
