8
opt_min/./Product_4793_0_opt.xyz
  C  1.11162000  0.66881500  0.00801400
  N  0.42022797 -0.21265864  0.56036704
  C -0.84989969 -0.58692081  0.03044737
  H -1.15615049 -0.02814989 -0.86433217
  H -1.59745828 -0.46697490  0.81345832
  H -0.80178033 -1.64925893 -0.21520448
  H  2.07458425  0.90631520  0.43385064
  H  0.82322369  1.22315982 -0.89931579
