14
opt_min/./Product_11112_0_opt.xyz
  C  1.05738000  0.86429700 -0.18618700
  H  0.77130327  1.37556399 -1.10759635
  H  1.95554067  1.30825383  0.23319549
  C  1.14612605 -0.64543379 -0.20508496
  H  2.05107046 -1.19855042 -0.42205549
  C -0.19172798 -1.31065360 -0.17166924
  H -0.19910958 -2.38961779 -0.24968236
  C -1.38467568 -0.52585491 -0.54271951
  H -2.12391735 -0.88844482 -1.23230088
  C -1.34735911  0.61760309  0.13410515
  H -2.02887651  1.44568555  0.10754991
  C -0.04884192  0.65712779  0.88196509
  H -0.01168871  1.26247976  1.78227021
  N  0.39398170 -0.77117828  1.05025450
