14
opt_min/./Product_2383_0_opt.xyz
  C -2.19459000  0.61414500  0.46458500
  C -0.71909312  0.46710747  0.29661054
  O -0.20237055 -0.67294166  0.61447479
  C  1.03112885 -1.10494834  0.60587597
  C  2.23423005 -0.46345803  0.20641012
  C  2.42107727  0.63732123 -0.53904551
  H  3.42016834  0.96875136 -0.76424275
  H  3.11786844 -0.99898491  0.53501629
  H  1.09026640 -2.10825436  1.00495818
  H  1.62821581  1.20985495 -0.98463951
  H -0.11732650  1.31844921  0.02438416
  H -2.69127562 -0.32659682  0.23442650
  H -2.57094322  1.39024435 -0.19579501
  H -2.45844317  0.88845235  1.48986251
