16
opt_min/./Product_10725_0_opt.xyz
  N  3.39601000  0.40539500 -0.04310100
  C  2.36172259  0.49353816 -0.86076323
  O  1.49230699 -0.50917026 -0.58358194
  C  0.33667443 -0.54399266 -1.39287789
  C -0.90900334 -0.68582257 -0.52156357
  C -1.11121336  0.54047467  0.37102858
  O -2.23406380  0.42313117  1.21133489
  H -3.01277017  0.26027738  0.66760004
  H -1.18902321  1.44306589 -0.25394251
  H -0.25598948  0.65804319  1.03991288
  H -0.81017719 -1.57148078  0.10861659
  H -1.77758106 -0.81821495 -1.17225903
  H  0.28831167  0.37189603 -1.99495724
  H  0.41653543 -1.40527297 -2.06920581
  H  3.49168576 -0.32395291  0.66165083
  H  4.13858560  1.07782174 -0.11925736
