9
opt_min/./Product_10421_0_opt.xyz
  C  0.05947800 -0.08716693  0.14129491
  C -0.82579793  0.88349103 -0.07916306
  O -1.52591041  1.53804160  0.87372776
  H -1.29239465  1.19954662  1.74808504
  H -1.06952145  1.24411694 -1.06798750
  C  0.76132457 -0.73929812 -0.89355437
  C  1.36320883 -1.31139294 -1.76067868
  H  1.89831158 -1.82135375 -2.50470100
  H  0.28287346 -0.42607264  1.14778313
