13
opt_min/./Product_6247_0_opt.xyz
  O  1.20151600  1.03583700 -0.12613300
  C  1.61341760 -0.21439214  0.13655083
  H  2.69232400 -0.29075326  0.09502396
  N  0.95125116 -1.24968926  0.38476006
  C -0.49124137 -1.16695366  0.38333525
  H -0.83014965 -1.06725514  1.41943172
  H -0.87411709 -2.11625867  0.00561777
  C -0.98477322  0.01352632 -0.45940125
  H -0.76401337 -0.18706902 -1.50980165
  H -2.05401715  0.17491558 -0.35617979
  C -0.20196640  1.24926838 -0.02402561
  H -0.41690235  2.11308456 -0.65610016
  H -0.44420450  1.50493757  1.01419280
