13
opt_min/./Product_9684_0_opt.xyz
  C  2.18588200 -0.22944500  0.05985800
  C  0.71655516 -0.07029391  0.08996236
  N -0.14249923 -0.95595584 -0.22318336
  C -1.44455287 -0.37845412 -0.00735266
  O -2.36981557 -0.55896434 -1.02233068
  H -1.93543880 -0.42408630 -1.87390237
  H -1.87759548 -0.86569161  0.88223807
  C -1.08495150  1.05262688  0.39364018
  H -1.79149381  1.83167656  0.61180945
  N  0.17576914  1.18643609  0.48145278
  H  2.54510546 -0.06545702 -0.95659052
  H  2.46372343 -1.24181820  0.34456220
  H  2.64466631  0.49590718  0.72394136
