16
opt_min/./Product_1860_0_opt.xyz
  C -2.29289100 -0.00045000 -0.26242700
  C -1.12304577 -0.19968738 -1.22537939
  C  0.17398976  0.23893170 -0.60796003
  O  0.36039574  1.59551604 -0.48878262
  H -0.36892304  2.05634863 -0.91835304
  C  1.10227759 -0.60355595 -0.16780585
  C  2.38078770 -0.17154665  0.47579987
  H  3.18966877 -0.85096287  0.21349540
  H  2.63352035  0.83786928  0.15813894
  H  2.27728381 -0.16796720  1.56273467
  H  0.92354832 -1.66450873 -0.26272750
  H -1.05459870 -1.25501894 -1.49393758
  H -1.30036673  0.37347071 -2.14372083
  H -3.21814687 -0.35854282 -0.71224095
  H -2.11662878 -0.55351977  0.65865860
  H -2.42551484  1.05010754 -0.00293553
