10
opt_min/./Product_6017_0_opt.xyz
  C -0.78142300 -0.67174600  0.20240800
  H -0.91832520 -1.15420841  1.18639026
  H -1.58831712 -0.99031597 -0.47195333
  O  0.46713428 -0.96797350 -0.32551880
  C  1.25495433  0.24235793 -0.31355651
  H  1.68153267  0.40232635 -1.30866950
  H  2.08090481  0.15092682  0.40014338
  C  0.35047824  1.37310058  0.05353082
  N -0.76815932  0.78833135  0.35770833
  H -1.62673911  1.30171693  0.48936053
