10
opt_min/./Product_3825_0_opt.xyz
  C  1.40734375  1.10108091 -0.37090131
  C  0.36962990  0.30919496 -0.44625856
  N -0.21767536 -0.78245414 -1.04450012
  H  0.13705658 -1.71220904 -0.85224461
  C -0.96981207 -0.07441006  0.01532459
  C -1.09426287 -0.66970202  1.30344275
  N -1.15309959 -1.17549962  2.32895440
  H -1.84979832  0.46107750 -0.32828246
  H  2.27538732  0.93061355 -0.98340904
  H  1.41474244  1.95304426  0.28345338
