13
opt_min/./Product_8474_0_opt.xyz
  N  1.64756700  0.67319900  0.12744300
  C  0.46822530  0.23325131 -0.57043992
  H  0.56078744  0.50023166 -1.63355909
  C -0.85689387  0.88817448 -0.09948501
  O -0.96249246  2.21603977 -0.14728031
  H -0.10005048  2.60538974 -0.35042006
  C -1.80567652 -0.03488278  0.29648442
  C -1.12150612 -1.24067053  0.13031874
  H -1.49744180 -2.22213593  0.37469717
  N  0.10760076 -1.16001720 -0.43156823
  H  0.73064312 -1.92703336 -0.62454459
  H  1.73260267  0.21306770  1.02514461
  H  2.49832328  0.52530220 -0.40656708
