14
opt_min/./Product_6928_0_opt.xyz
  N  2.91315700  1.10911000  0.26054500
  C  1.81512293  0.68665232 -0.37350818
  N  1.16327784 -0.26199245  0.28576961
  C -0.01989305 -0.89635288 -0.22346569
  H  0.14421081 -1.34754292 -1.20098137
  C -1.03434817 -1.44850341  0.72599580
  H -1.24229453 -2.19369939  1.45026445
  C -1.36173432 -0.33460930  0.11746260
  N -2.19804076  0.68942239 -0.10229872
  H -1.87463124  1.46479107 -0.65297099
  H -2.95712625  0.84829974  0.53757107
  H  1.48987675 -0.60087928  1.20090684
  H  3.44137376  1.87152019 -0.12275652
  H  3.19838465  0.77179609  1.18401826
