9
opt_min/./Product_19_0_opt.xyz
  O -0.93092647  0.25929838  1.36695867
  C  11.53214740 -17.55599894  9.64089523
  N -7.01438667 -8.26108029 -11.18829101
  C -37.90944380 -0.43246951  11.49210963
  H -8.19223980 -1.73969253  4.43219703
  N  34.58775053 -7.30753455 -2.02049268
  N  25.35001455 -17.05729249  7.34191551
  H  7.41543921 -3.65114358 -18.71748121
  H  3.10564965 -10.09749041  7.66126369
