14
opt_min/./Product_8733_0_opt.xyz
  C -2.33551300  0.05338100  0.20171400
  C -1.03247136 -0.72081047  0.27012094
  O -0.98930285 -1.89104310  0.51146749
  C  0.17487362  0.16858355 -0.00238973
  C  1.54589970 -0.50631245 -0.00174296
  O  1.77783600 -1.64649550  0.29625763
  N  2.54210075  0.39324465 -0.25321023
  H  2.34183175  1.33075926 -0.55432715
  H  3.48741880  0.05346326 -0.31742488
  H  0.01985158  0.66323567 -0.96457025
  H  0.18773983  0.95268413  0.76073040
  H -3.16209638 -0.60326236  0.45516607
  H -2.31223214  0.89672896  0.88590257
  H -2.48110251  0.43606056 -0.80583808
