10
opt_min/./Product_9472_0_opt.xyz
  C -1.44439900  0.96518700 -0.21873200
  H -1.72919977  1.97016488 -0.40760361
  C -1.69792828 -0.31169842 -0.28876116
  H -2.32403168 -1.11796727 -0.57860694
  C -0.37639048  0.05928240  0.28657908
  O  0.77839065 -0.12042475 -0.53606062
  C  1.93016862 -0.34309240  0.05819430
  O  2.14996534 -0.41717685  1.23179267
  H  2.71194350 -0.45405816 -0.71547595
  H -0.15486447 -0.04385232  1.34189432
