13
opt_min/./Product_2322_0_opt.xyz
  O  3.00038700  0.71897900  1.05929000
  C  2.22138641  0.22963968  0.29208997
  C  0.72868980  0.32519262  0.40629195
  N  0.03594457 -0.38825183 -0.62258142
  C -1.33179416 -0.47245990 -0.68714411
  C -2.19660745  0.06295969  0.16881824
  H -3.25183160 -0.06923782  0.02788023
  H -1.89067794  0.63949425  1.02225094
  H -1.68713893 -1.04207005 -1.53465822
  H  0.57996767 -0.81327853 -1.35323397
  H  0.44158305 -0.04996864  1.40032979
  H  0.46842408  1.39663634  0.39414332
  H  2.57618772 -0.34130211 -0.59240222
