13
opt_min/./Product_2273_0_opt.xyz
  C -2.20813500  0.57287800  0.08473500
  C -0.89791937  0.65934636 -0.05693772
  C -0.01800297 -0.51155281 -0.21468314
  H -0.53422886 -1.42815627 -0.49880345
  C  1.41305169 -0.40946440 -0.68454112
  H  1.93957549 -0.71650751 -1.56005555
  N  1.80628686  0.55748170  0.35133938
  H  2.81625540  0.51566133  0.52432800
  C  1.17414489 -0.72860165  0.69797907
  H  1.42167274 -1.41062498  1.48030799
  H -0.38950005  1.61182278 -0.03722451
  H -2.82607707  1.44503867  0.21437262
  H -2.71766339 -0.37782981  0.06742545
