14
opt_min/./Product_6049_0_opt.xyz
  C  2.23790500  0.40352900  0.17428600
  O  2.00727527 -0.90145598 -0.31034092
  C  0.77231675 -1.31349260 -0.52526107
  C -0.41855129 -0.73347986 -0.21526562
  C -0.54579193  0.56480203  0.33314462
  C -1.90461024  0.87070446  0.84327527
  H -2.33064280  1.56411793  0.11120917
  H -1.84240612  1.42074340  1.78203691
  H -2.59051682  0.01883660  0.95068294
  H -1.29531672 -1.35483265 -0.42886808
  H  0.78949124 -2.31077714 -0.95851204
  H  3.29306764  0.44019062  0.44947441
  H  2.02005970  1.14516111 -0.59561197
  H  1.59091365  0.61507817  1.03112324
