14
opt_min/./Product_9542_0_opt.xyz
  C -1.96926300  0.72426000 -0.07066600
  C -0.98077068 -0.34048685  0.39887090
  H -1.42378547 -0.92275146  1.22840976
  O -0.66944381 -1.23977952 -0.65688468
  C  0.68879171 -1.13099809 -0.85216705
  H  1.13975566 -1.70727721 -1.62879156
  C  1.23259465 -0.27056107  0.00181901
  N  2.53770484  0.15864048  0.16974294
  H  2.77989112  0.20655995  1.15247427
  H  2.70297371  1.06482139 -0.25436458
  O  0.22375199  0.23359606  0.85016606
  H -2.28181505  1.33275912  0.77116375
  H -1.49513829  1.35837359 -0.81465125
  H -2.82955091  0.23528703 -0.51359990
