14
opt_min/./Product_2827_0_opt.xyz
  C -0.08706900  1.49971200 -0.15961900
  C  0.04704536  0.03381865  0.20381186
  C  1.46400146 -0.34356904  0.54099407
  O  2.17719892 -0.40222430 -0.57129420
  H  3.10215737 -0.62827772 -0.37804198
  C -0.83188296 -0.96883040 -0.49660274
  H -0.42406112 -1.93641787 -0.74586494
  H -1.54663428 -0.60520957 -1.22016603
  C -1.05904621 -0.63634099  0.95324403
  H -0.79378761 -1.37774008  1.69178792
  H -1.92741414 -0.05184702  1.21577885
  H  0.11631437  2.12556781  0.70774101
  H -1.09097878  1.70763619 -0.51963242
  H  0.62261105  1.76367185 -0.94358685
