7
opt_min/./Product_497_1_opt.xyz
  C  0.81131100  0.14502300  0.12304300
  C -0.64781003 -0.14220031 -0.04238010
  H -1.13265665 -0.26367351  0.92127289
  H -0.74784080 -1.07960186 -0.58687796
  H -1.12408155  0.64862528 -0.61465517
  O  1.44152055  0.93623745 -0.51915937
  H  1.30789236 -0.46741327  0.90335256
