11
opt_min/./Product_10255_0_opt.xyz
  C -1.49063200  0.44815500 -0.08949700
  H -2.55268638  0.58169077 -0.15746265
  C -0.51822472  1.31889677 -0.00476258
  C  0.75266014  1.47026115  0.08362009
  C  1.82586768  0.71197238  0.13815029
  H  2.86223967  0.99222409  0.21378065
  N  1.55025320 -0.66739593  0.08845235
  H  2.30867748 -1.32900602  0.12424937
  N  0.33995684 -1.32873842 -0.00733417
  C -0.85581971 -0.93107522 -0.07824535
  H -1.56280590 -1.75406639 -0.14405606
