15
opt_min/./Product_1744_0_opt.xyz
  C  2.44851200  0.46698400 -0.11236200
  O  1.42221521 -0.48624237 -0.10584004
  C  0.16170423  0.07421683  0.17974643
  C -0.85215786 -1.01869174  0.17070575
  N -2.14664505 -0.77144366  0.07947191
  C -2.80460762  0.37726266  0.08409966
  H -2.27312358  1.30622856  0.08804548
  H -3.86173285  0.36817948 -0.08810254
  H -2.73676244 -1.59744080  0.03549342
  H -0.50471996 -2.03187919  0.19405224
  H -0.09396998  0.84336443 -0.57588152
  H  0.19783041  0.59274021  1.16104238
  H  2.53739218  0.96039375  0.86538706
  H  2.27491122  1.23610575 -0.87762708
  H  3.37252259 -0.06384338 -0.33504047
