10
opt_min/./Product_7654_0_opt.xyz
  N  2.72388300 -1.26037900  0.32147097
  C  1.72565607 -0.70784071  0.20387988
  C  0.48236807 -0.08314887  0.06610117
  C  0.19553151  1.22692730  0.05409683
  H  0.82012349  2.09582470  0.12939601
  O -1.16082071  1.42393072 -0.08827772
  C -1.82616071  0.31349099 -0.17165868
  C -0.82917999 -0.80371106 -0.08863243
  H -1.06120057 -1.48417811  0.73289246
  H -0.88231612 -1.39728999 -1.00719300
