12
opt_min/./Product_7499_0_opt.xyz
  O  1.04931580  1.88135571  0.34935378
  C  0.77738784  0.78011757 -0.07333965
  C  1.63281114 -0.36274269  0.05730790
  C  2.35850363 -1.31507597  0.17065217
  H  2.97849270 -2.15795850  0.26732186
  C -0.55743050  0.45384271 -0.71866120
  N -1.50947298  0.09535907  0.36274402
  C -2.00325980 -1.04024397  0.67107398
  H -1.63967967 -1.84091535  0.00536560
  H -1.75677160  0.90028149  0.93088778
  H -0.47346393 -0.38828031 -1.40713279
  H -0.93618738  1.33848613 -1.23563493
