15
opt_min/./Product_7159_0_opt.xyz
  O  2.68327600  0.07932500  0.68363900
  C  1.75695056  0.59354662 -0.22843260
  C  0.63292006 -0.39483814 -0.61322068
  C -0.11490693 -0.89899394  0.55123948
  C -1.57967013 -0.97743729  0.36133823
  C -2.09113922  0.44500554  0.48137489
  O -2.76515401  0.85247253  1.37673890
  H -1.77020203  1.08811837 -0.35959219
  H -2.05460499 -1.59462083  1.12646155
  H -1.84873869 -1.30390017 -0.65211005
  H  0.04984082  0.03359433 -1.44773251
  H  1.11961440 -1.30903913 -0.98936778
  H  1.31684051  1.46538171  0.26190669
  H  2.25907287  0.91267319 -1.15392777
  H  3.04226965 -0.74837855  0.33798852
