11
opt_min/./Product_11505_0_opt.xyz
  N  2.38328100 -0.38136100 -0.18462600
  H  2.97797828 -0.10002906 -0.94042070
  C  2.17154763 -0.59495470  1.04678017
  C  0.96460197 -0.52039587  0.06761271
  N  0.27924860  0.66382039  0.04918129
  C -0.98278906  0.82472414  0.03091487
  C -2.02930709 -0.20709109  0.04516807
  O -3.20899986  0.03375770 -0.01330007
  H -1.66961413 -1.24968395  0.12562902
  H -1.32720510  1.85228471  0.01417376
  H  0.53876700 -1.47587781 -0.23279197
