12
opt_min/./Product_830_0_opt.xyz
  C -1.04355300 -0.17064000 -0.38801100
  H -2.04322220 -0.34178240 -0.72718978
  C  0.07297792 -1.03960775  0.14261890
  H -0.07092083 -2.08501658  0.37314046
  C  1.35955174 -0.52938444 -0.40298637
  H  2.21178901 -1.14188045 -0.62131906
  C  1.18606534  0.78175147 -0.55599860
  H  1.85961044  1.53611594 -0.91309916
  C -0.20502636  1.05464358 -0.10011418
  H -0.62559937  2.04901724 -0.11892256
  C -0.55280998  0.05430768  0.97813040
  H -1.09120162  0.09115647  1.90068517
