17
opt_min/./Product_7410_0_opt.xyz
  C -1.74144900 -0.78308900 -0.80182800
  C -1.07883375 -0.13586317  0.42291212
  O  0.25495122  0.27392522  0.08583717
  C  1.28899808 -0.25069668  0.88636723
  C  2.60879369  0.34169873  0.40583323
  H  2.96702367 -0.17794369 -0.47736396
  H  3.35939288  0.26520576  1.18699210
  H  2.46744570  1.38984970  0.15829763
  H  1.30476399 -1.34586692  0.79832174
  H  1.11610519  0.00484463  1.94228276
  C -1.95664689  1.05978186  0.74880763
  O -1.44527367  2.15761315  0.34158737
  H -0.52129651  2.03785433 -0.00919477
  H -1.07534853 -0.84158571  1.25847105
  H -1.50254090 -0.19954932 -1.68644772
  H -2.81992561 -0.80101980 -0.66733079
  H -1.38341159 -1.79911770 -0.93758299
