16
opt_min/./Product_494_0_opt.xyz
  C  2.40162700 -0.03864600  0.35944000
  C  0.91923051  0.10805370  0.32092733
  C  0.16786564 -0.16862573 -0.73495638
  C -1.33398685  0.01693366 -0.77273306
  C -2.02735560 -0.69113502  0.39650784
  H -1.69717346 -0.27330534  1.34610056
  H -1.79232560 -1.75338208  0.37803400
  H -3.10422864 -0.55749032  0.31767330
  O -1.68427218  1.39045062 -0.80361458
  H -1.25375736  1.83758253 -0.06623712
  H -1.72268169 -0.38640410 -1.71356899
  H  0.63065092 -0.51197508 -1.64917967
  H  0.46973040  0.46984138  1.23713105
  H  2.78551712 -0.42701900 -0.58220501
  H  2.68864261 -0.71531459  1.16501988
  H  2.86739919  0.92984380  0.55776208
