14
opt_min/./Product_6187_0_opt.xyz
  O  0.26718600  1.53077100  0.75320400
  C  0.00506961  0.33580451  0.07214829
  C  1.25344186 -0.23892439 -0.59363678
  C  2.36505634 -0.69905274  0.22596802
  H  2.05665333 -0.78384398  1.28223675
  H  0.99824061 -1.18161965 -1.10064519
  H  1.62815686  0.41985897 -1.38651323
  C -0.99829335 -0.59557403  0.68887603
  H -0.81480294 -1.65842030  0.63931033
  H -1.47236850 -0.27750835  1.60327099
  C -1.33209550  0.14293590 -0.57901108
  H -2.05407639  0.94372659 -0.50842197
  H -1.38079523 -0.40940483 -1.50499813
  H  0.04465179  2.28764929  0.20039235
