12
opt_min/./Product_2502_0_opt.xyz
  C  1.70629000  0.10272700  0.19162700
  N  0.29766532 -0.05132639  0.07728384
  C -0.76747815  0.77676317 -0.47864061
  H -0.91129063  1.71265188  0.06133482
  H -0.65812595  0.97713548 -1.54398349
  C -1.68995680 -0.36402176 -0.08588995
  H -2.73704675 -0.53508185 -0.16284666
  C -0.61562700 -1.03177031  0.38415472
  H -0.41912927 -1.97664486  0.85782110
  H  1.97456608  1.11034680 -0.12682970
  H  2.25192459 -0.61137511 -0.44119086
  H  2.04638952 -0.02834789  1.22599258
