11
opt_min/./Product_6983_0_opt.xyz
  N  1.91525300 -0.44002700 -0.01962800
  C  0.59554794 -0.13422975  0.04823378
  C  0.12991925  1.22022670  0.05447822
  H  0.84434022  2.03679450  0.08789667
  N -1.12277243  1.51433916 -0.02026949
  C -2.07893326  0.52051504  0.00423964
  N -1.57312105 -0.71017036  0.04345641
  H -2.21247056 -1.49970947  0.06433534
  N -0.28805944 -1.10471255  0.02559376
  H  2.59352897  0.26911537  0.19465379
  H  2.17844235 -1.40117766  0.11509306
