7
opt_min/./Product_10510_1_opt.xyz
  C  0.23312400  0.55331300 -0.07273200
  C  1.35819662 -0.10044248 -0.20215055
  O  2.34878871 -0.67803613 -0.29988168
  C -1.07621578 -0.08927792 -0.10551970
  O -1.30015057 -1.26258985 -0.23662316
  H -1.89245269  0.64471734  0.01496296
  H  0.26107488  1.62148710  0.05300453
