9
opt_min/./Product_4243_0_opt.xyz
  O -0.38064601  1.19301496 -0.77199905
  C  0.31867178  0.17551063 -0.13476281
  C -0.32661787 -0.60409071  0.75133466
  O -1.62294398 -0.46119791  1.06144362
  H -1.97931028  0.28320148  0.55234424
  H  0.16945237 -1.40864353  1.27055471
  C  1.68277730 -0.00455385 -0.42792987
  N  2.79300167 -0.11510812 -0.70006895
  H  0.21098763  1.66931202 -1.36266242
