15
opt_min/./Product_1740_0_opt.xyz
  C  2.11873400  0.47768300  0.56102300
  O  0.73310139  0.27794141  0.55373783
  C  0.29345094 -0.52190613 -0.52008971
  C -1.19741518 -0.79895890 -0.37829146
  H -1.55991945 -1.44124960 -1.17976408
  C -2.03686400 -0.67719594  0.83319260
  H -1.43210410 -0.34059328  1.68890369
  N -1.99634274  0.43015944 -0.20170111
  H -2.82304932  0.56802622 -0.77319834
  H -1.46373707  1.28592185 -0.05517932
  H  0.50164808 -0.00259001 -1.47572391
  H  0.83218318 -1.48126950 -0.54296959
  H  2.33993603  1.10356107  1.42363532
  H  2.45616798  0.98176293 -0.35463036
  H  2.65575322 -0.47435517  0.65296108
