14
opt_min/./Product_11220_0_opt.xyz
  N  1.86550292  1.04201890 -1.21643225
  C -37.64619477  32.77019455 -7.18555380
  O -30.16490455  128.77893476  96.34673066
  C  1.31616115 -11.52963333 -14.03423548
  C  36.24163645  118.43293596  12.99767467
  H -5.21523442  25.43818359  50.60303339
  H -2.36137780 -93.34465863 -16.01727669
  C  13.02133721 -8.94299205 -3.69951662
  H  98.54605337 -51.31162845  6.70860770
  H  2.49628922 -118.96836535 -62.55420577
  C -73.21035387  1.34186725 -35.46343848
  H  73.85940238 -75.95841196  22.05848980
  H -54.30075381 -55.71445290  48.49678808
  H -32.03838263 -78.22762535 -40.16574675
