12
opt_min/./Product_7459_0_opt.xyz
  O -1.88619700  0.34561900  0.44456900
  C -0.95627655 -0.06609605 -0.52692013
  C  0.47709864  0.20227522 -0.09514033
  N  0.89764615  1.49559071 -0.39545751
  O  1.99888621  1.86204955  0.00067016
  C  1.09983842 -0.55744414  1.08684193
  H  1.06899063 -0.55250623  2.14616275
  C  1.51087562 -0.93814902 -0.06681692
  H  2.10135488 -1.51117824 -0.73446972
  H -1.13231936  0.44338253 -1.48435770
  H -1.12175215 -1.13797681 -0.65917785
  H -1.85640275  1.30707168  0.51211495
