15
opt_min/./Product_9133_0_opt.xyz
  C -0.63552400  1.81671900  0.33526900
  C -0.35332979  0.63127916 -0.56090426
  H -0.35917073  0.87658550 -1.62491597
  N  0.57357340 -0.36787728 -0.12038335
  C  1.93351673 -0.68725098  0.11033350
  H  2.04226368 -1.22985446  1.05378565
  H  2.51311501  0.23439360  0.16874889
  H  2.34874862 -1.31044970 -0.69465125
  C -0.71202861 -0.74555712 -0.15062174
  C -1.57780870 -1.71048265  0.07342205
  H -1.26790042 -2.67369861  0.43533999
  H -2.62721787 -1.55939220 -0.09979835
  H  0.15942021  2.55705613  0.25474288
  H -1.57244467  2.28721735  0.04660742
  H -0.71135916  1.49433939  1.37098369
