12
opt_min/./Product_3852_0_opt.xyz
  O  2.28106264 -0.65386713 -0.38274118
  C  4.81742992 -3.06950404  1.30344961
  H  9.10668682 -14.28652412  18.13011178
  C -15.31575706 -8.89447284 -2.10630431
  C  23.67091333  9.73707648 -3.47393672
  H  24.95059196  22.13199040  8.24039204
  H -12.93725020  18.15164196  4.76636411
  C  10.29058563  5.87025861  0.78262399
  H  6.00156800 -3.67770291  5.21859762
  H -11.47779938  3.17352932  3.14665103
  O -4.90743184 -1.46134056 -2.56602483
  H  0.04531506 -13.29530065  6.82773024
