8
opt_min/./Product_7103_1_opt.xyz
  O  1.43938700 -0.69147000 -0.34688200
  C  0.62211973  0.34054419 -0.11429708
  C -0.81281522 -0.09025984 -0.02805072
  H -1.44829017  0.78988801 -0.04732478
  H -1.06929483 -0.75628532 -0.84547949
  H -0.96542039 -0.61674882  0.90860891
  O  1.01638113  1.46569189  0.02559104
  H  2.35716189 -0.38998785 -0.44074403
