14
opt_min/./Product_5743_0_opt.xyz
  C  1.94823700  0.41984400  0.53006100
  O  1.00404217 -0.62258567  0.49677885
  C -0.26710651 -0.20181702  0.08856713
  C -1.20511246 -1.42371539  0.12198871
  H -0.79670494 -2.19754534 -0.52488481
  H -2.20506388 -1.15803742 -0.22145570
  H -1.26106501 -1.80205858  1.13948961
  C -0.93897933  0.79975201  0.99778502
  O -1.78851821  1.54512165  0.41761685
  H -1.90663355  1.44612699 -0.56834079
  H -0.22485509  0.20028075 -0.96266800
  H  2.07485403  0.87535817 -0.46265550
  H  1.64962933  1.19461944  1.24274062
  H  2.89007251 -0.03027579  0.83822400
