17
opt_min/./Product_11522_0_opt.xyz
  C  1.86787800  0.80832900 -0.18374900
  C  1.28528976 -0.55550119 -0.44672845
  H  1.60913776 -1.00490438 -1.38552927
  N  1.13880765 -1.41959466  0.70299316
  H  1.33963344 -2.39843523  0.54366640
  C -0.06043339 -0.92195480  0.06651282
  C -0.90600484  0.04107144  0.85314781
  C -1.54530975  1.08094638 -0.00463941
  H -1.42477208  1.12475954 -1.08504057
  H -1.84107847  2.02517468  0.42643696
  N -2.34511250 -0.07692239  0.41795497
  H -2.61842424 -0.72349949 -0.32380298
  H -3.06206825  0.06038074  1.11760911
  H -0.63520812 -1.63698056 -0.54952410
  H  2.95215767  0.77501372 -0.24842609
  H  1.58022149  1.12330119  0.81061493
  H  1.50099963  1.53335019 -0.90485259
