12
opt_min/./Product_4861_0_opt.xyz
  C -2.29572000  0.37482900 -0.01392600
  O -1.55642146 -0.52056168 -0.83372506
  C -0.26909526 -0.60581533 -0.58186520
  N  0.29739237 -0.01651274  0.38558825
  C  1.65174427  0.03672577  0.54053518
  N  2.42720876  0.23218743 -0.43723415
  H  3.40752072  0.32589595 -0.18907264
  H  1.94676665 -0.04024348  1.59994664
  H  0.24738358 -1.25978037 -1.29089051
  H -3.32559405  0.31541518 -0.35606089
  H -1.91353858  1.39050965 -0.12156158
  H -2.22173797  0.08543200  1.03352387
