9
opt_min/./Product_3698_0_opt.xyz
  C -1.03734700 -0.27886200  0.01378500
  C  0.42791925  0.06573261 -0.03019534
  O  1.19861960 -1.01870530 -0.16515926
  H  2.12482774 -0.74388688 -0.18492379
  N  0.97465790  1.19791449  0.04387217
  H  0.34393116  1.98077246  0.14352252
  H -1.23063131 -0.91882353  0.86860527
  H -1.31387058 -0.82669845 -0.88097336
  H -1.63392255  0.62251137  0.09895210
