10
opt_min/./Product_1598_0_opt.xyz
  O -2.02537756 -0.13251093 -0.33094523
  C -2.75740269  4.27366824  3.88617933
  C -4.31443664  4.66884474 -1.84442325
  C -16.86146145  15.59184724  4.13681990
  C  6.73102000 -14.89448798  3.59712334
  O  3.37550551 -12.04936043 -4.35272133
  H  7.83548417  3.23693853 -2.88347253
  H  11.79532965 -2.17035497  0.84281040
  H -13.35208377  6.14421056 -2.61349086
  H -30.56149947  4.07903999  22.01654372
