11
opt_min/./Product_4435_0_opt.xyz
  C -1.39237400 -0.08275012 -0.36335056
  C -2.47640957 -0.09615505  0.19006464
  C  0.68717559 -1.08092327  1.31401107
  C  0.55678453 -2.34860087  1.11791959
  H -3.10607651 -4.15351396  1.87003656
  C  1.03679504  0.02645938  1.79297253
  N -0.96169574  6.34527863  6.98010916
  H -3.05811183 -4.86666131  2.18518921
  H  1.20689925  1.03642062  1.82148149
  H -0.54923710  0.06988323 -0.98576531
  H  0.00896136 -3.00976920  0.28982841
