15
opt_min/./Product_7038_0_opt.xyz
  C -0.39703200  1.44598500  0.09367200
  C -0.07813928  0.06263065 -0.45992952
  C -1.24787506 -0.94284995 -0.14410991
  H -2.14248143 -0.45328485  0.24710330
  H -1.51966027 -1.62377681 -0.94229465
  C -0.25688970 -1.51205036  0.87312738
  H -0.33477280 -2.36446123  1.52779357
  C  0.78824238 -0.89802639  0.30915119
  C  1.94053103 -0.20132987 -0.34234144
  H  2.25311622  0.68284294  0.21748067
  H  2.79274435 -0.78296950 -0.69597663
  O  1.03492232  0.16958551 -1.42406958
  H -0.32429296  1.45541528  1.18036052
  H  0.29379274  2.17837189 -0.31783549
  H -1.40568236  1.75010178 -0.18257097
