12
opt_min/./Product_5217_0_opt.xyz
  C -2.48001300  0.13137298 -0.06901498
  C -1.29715695 -0.37254491 -0.20213815
  C -0.09442642 -0.84751773 -0.30713536
  C  1.07166133 -0.34265692  0.46850436
  H  1.52905279 -1.07913833  1.13124818
  C  1.93544942  0.71293146 -0.07138082
  H  1.67603932  1.17542111 -1.01895622
  H  2.98800827  0.74074428  0.19175102
  O  1.04324111  0.95701138  0.97833237
  H  0.12934895 -1.66997854 -0.97537653
  H -2.83180001  0.92416722 -0.70866879
  H -3.17534549 -0.24497931  0.66305786
