17
opt_min/./Product_429_0_opt.xyz
  C -2.23414500  0.56741500 -0.04978700
  C -1.17331713 -0.23372395 -0.80833966
  N  0.07275933 -0.32180294 -0.05491303
  C  0.06709242 -1.15134676  0.98058286
  H -0.80256705 -1.74497423  1.16979168
  H  0.94304270 -1.28301029  1.57710251
  C  1.08712884  0.42704352 -0.45996986
  C  2.40451274  0.40285563  0.23446720
  H  2.33262373  0.77095320  1.26311426
  H  3.11322098  1.02635477 -0.30115187
  H  2.79851725 -0.61602106  0.28406000
  H  0.92494839  1.09879109 -1.28089390
  H -0.96485510  0.24062167 -1.76852573
  H -1.53425343 -1.24642865 -1.00115470
  H -3.22972568  0.31675422 -0.40521434
  H -2.17804277  0.34051773  1.01101756
  H -2.08179608  1.63516736 -0.18220444
