10
opt_min/./Product_7201_0_opt.xyz
  N -0.49676700  0.27697300  0.43264900
  C  0.47221256 -0.24547148 -0.39397252
  O  0.33705868 -1.12289685 -1.20084923
  C  1.80871122  0.45811759 -0.15207330
  O  1.95299202  1.33571727  0.65196364
  H  2.63279374  0.08636061 -0.78466389
  C -1.82549890 -0.10139443  0.50378478
  O -2.35834387 -0.94811802 -0.14209709
  H -2.35619571  0.50206451  1.26446244
  H -0.18435155  1.01849578  1.04917267
