12
opt_min/./Product_8333_1_opt.xyz
  N  1.97481200  0.89354900  0.18979300
  C  0.84061073  0.38184572  0.08944765
  C -0.47211398  1.00040320 -0.30554705
  H -0.81529006  1.73651680  0.41819527
  H -0.48888671  1.44626386 -1.29520162
  C -1.12950848 -0.39097589 -0.16987087
  H -1.92168104 -0.43782883  0.57166458
  H -1.49222703 -0.79471064 -1.11049228
  C  0.21455484 -0.98639038  0.29257412
  H  0.62852709 -1.77425676 -0.33163526
  H  0.23057567 -1.30277879  1.33443019
  H  2.71905429  0.26266259  0.48074589
