13
opt_min/./Product_9551_1_opt.xyz
  C -0.92577000  0.90039800 -0.04685900
  H -1.77922748  1.55835256 -0.06622090
  C  0.33712661  1.25904516  0.08808145
  H  0.71412605  2.26190430  0.19941613
  C  1.25510797  0.07277823  0.11614157
  H  2.14379884  0.20626252 -0.50506138
  H  1.60531165 -0.09858015  1.13830492
  C  0.35831397 -1.07048768 -0.38139421
  H  0.51271469 -1.21912208 -1.45287151
  H  0.57316130 -2.01586490  0.11447555
  C -1.07825650 -0.58782661 -0.13202809
  H -1.76362089 -0.89760122 -0.92416745
  H -1.48151829 -0.97334538  0.81028464
