14
opt_min/./Product_5794_0_opt.xyz
  C  1.92113100  0.15021300 -0.08914100
  C  0.49000851 -0.30380856  0.18072183
  C -0.51148995  0.41069159 -0.73174893
  C -1.92380286 -0.04548021 -0.44617230
  H -2.48244855  0.50526168  0.29964428
  C -2.35326773 -1.41413624 -0.80307146
  O -2.70891017 -0.46334459 -1.56911873
  H -0.43382640  1.48989074 -0.59190413
  H -0.27818931  0.18503598 -1.77494962
  H  0.23275619 -0.09710680  1.21923826
  H  0.41172337 -1.37760357  0.01175229
  H  2.01995763  1.22199570  0.05781332
  H  2.60677817 -0.34899715  0.58883953
  H  2.21066921 -0.08538214 -1.10919098
