14
opt_min/./Product_1777_0_opt.xyz
  C -2.08455500  0.38770400  0.22735200
  C -0.62515460  0.15449810  0.33364610
  C  0.41108535  0.83648533  0.82208442
  H  0.52031111  1.79398524  1.29346827
  C  1.41703465 -0.24432321  0.47485768
  O  2.38127382  0.05887033 -0.50291132
  H  3.00556798  0.69178401 -0.13628566
  H  1.89150639 -0.72714706  1.33943916
  C  0.20968231 -1.02646457 -0.11242128
  H -0.01632187 -1.96783614  0.38243106
  H  0.28082943 -1.17219530 -1.18337377
  H -2.62847057 -0.49222892  0.56270849
  H -2.35224101  0.57456706 -0.80940410
  H -2.37555381  1.24001132  0.83467739
