15
opt_min/./Product_10496_0_opt.xyz
  C  2.14132600 -0.80591200  0.07497100
  C  0.77494670 -0.23481638 -0.02983828
  C -0.38138610 -0.69644674  0.46850456
  H -0.54982126 -1.58398929  1.04853761
  C -1.41517133  0.25446121  0.07219449
  N -2.72966486  0.09009838  0.36532177
  H -3.00114010 -0.58386764  1.05672728
  H -3.34266913  0.86656879  0.19468221
  N -0.96026511  1.24392281 -0.62080694
  C  0.45925883  1.04168867 -0.76236418
  H  0.71923879  0.98053394 -1.82266581
  H  0.99679116  1.89729526 -0.34391017
  H  2.11636083 -1.75664753  0.60155457
  H  2.79763451 -0.12259550  0.61411269
  H  2.56752959 -0.95811900 -0.91553825
