13
opt_min/./Product_11285_0_opt.xyz
  C -1.84755100 -0.03225500  0.11048900
  C -0.46289043  0.38116938  0.60036841
  H -0.54720120  0.99257460  1.51395610
  O  0.36147090 -0.71484036  0.84292287
  C  1.45202758 -0.65354870  0.01287833
  N  2.31037654 -1.57474704  0.06055291
  H  3.08476564 -1.43805397 -0.57967858
  C  1.38689392  0.58264913 -0.83015836
  N  0.27876094  1.12487570 -0.43041805
  H -0.08965689  1.98995477 -0.79776514
  H -2.47908595  0.84301381 -0.01348977
  H -2.29808600 -0.69816982  0.84096980
  H -1.76068309 -0.56013167 -0.83676717
