12
opt_min/./Product_9611_0_opt.xyz
  C  2.19590800 -0.14973700  1.00198000
  O  1.23833289 -0.32467240 -0.04996493
  C  0.00287419 -0.27577076  0.31636661
  N -0.83258033 -0.13229919  1.23688774
  C -1.37484571 -0.36971546 -0.16752965
  C -1.97371312  0.75908376 -0.89280583
  O -2.76557616  0.65400842 -1.78910900
  H -1.62465809  1.74985056 -0.53310971
  H -1.80469407 -1.34482065 -0.37992848
  H  3.16967843 -0.22277433  0.52109904
  H  2.07776989 -0.93094451  1.75336793
  H  2.07292589  0.82898644  1.46781932
