12
opt_min/./Product_6329_0_opt.xyz
  C  1.36533400  0.31412400 -0.11956900
  N -0.05910212  0.13157546 -0.04704090
  C -0.93105879  1.14618835 -0.14281849
  O -2.13413318  1.05325445 -0.07702350
  H -0.42786437  2.10926436 -0.34656997
  C -0.53565402 -1.20505442  0.21129109
  H -0.32715635 -1.50724055  1.24065539
  H -0.05842626 -1.91338273 -0.46813622
  H -1.61231105 -1.21458692  0.05458583
  H  1.83288577  0.12326685  0.84903464
  H  1.59310615  1.33419123 -0.41982622
  H  1.79684340 -0.37280137 -0.85061835
