11
opt_min/./Product_4703_0_opt.xyz
  C  2.14962600  0.02645700 -0.06391500
  N  0.84942741 -0.02857863 -0.00960849
  N  0.10907677 -1.00675283  0.38688190
  C -1.25289137 -0.57338965  0.25503025
  H -1.82554181 -1.21840096 -0.42306087
  H -1.77670070 -0.57180400  1.21888180
  C -1.09047835  0.81439175 -0.28815457
  H -1.89381598  1.48327055 -0.52659833
  N  0.13114326  1.11334582 -0.43230509
  H  2.72157117 -0.82043912  0.25182160
  H  2.60721406  0.92209903 -0.42538105
