12
opt_min/./Product_1137_0_opt.xyz
  O  0.27440000  0.15487900  0.99173800
  C  1.11425771 -0.43824320  0.08359192
  C  2.36998452 -0.05750323 -0.06098363
  H  2.78139217  0.75527221  0.50965618
  H  3.02122915 -0.56344188 -0.74708836
  H  0.69124972 -1.26748876 -0.47138328
  C -1.07185821 -0.08244734  0.86504738
  H -1.57354399  0.23824290  1.77472116
  C -1.80309380 -0.03794669 -0.40986934
  H -2.83832962  0.27894553 -0.41838525
  H -1.25063086  0.10798776 -1.33021145
  O -1.54442300 -1.24189821  0.27880699
