13
opt_min/./Product_10212_0_opt.xyz
  C -1.54974600 -0.79408400 -0.09098900
  C -0.61616114  0.21876710  0.49567838
  O -0.67484412  0.62448761  1.62867440
  C  0.52097743  0.69190865 -0.41709304
  O  1.17775387  1.80140641  0.12082107
  H  1.10548830  1.74681311  1.08552107
  C  1.35259841 -0.57005064 -0.58814051
  O  2.48738502 -0.43419542  0.06622046
  H  3.02792196 -1.23798267  0.00712478
  H  0.11117032  0.97194588 -1.39252363
  H -1.12322079 -1.78139003  0.08884205
  H -2.51630854 -0.74322672  0.40571517
  H -1.65805140 -0.66291459 -1.16278492
