15
opt_min/./Product_7825_0_opt.xyz
  C  2.24582500  0.36639000  0.34698900
  C  0.98603610 -0.15121480 -0.33099515
  C -0.20764877 -0.14205903  0.59125861
  O -0.18805916  0.28423079  1.71374017
  C -1.49611859 -0.68410067 -0.02173317
  C -2.46455305  0.42901260 -0.35405511
  O -2.19745731  1.58957669 -0.43464766
  H -3.48908770  0.05452688 -0.54643361
  H -1.98197064 -1.36054319  0.68842399
  H -1.30740969 -1.23134501 -0.94913309
  H  0.72910658  0.47380745 -1.19349215
  H  1.13057209 -1.17226179 -0.69540788
  H  3.07465901  0.39811763 -0.35660903
  H  2.51398425 -0.27705520  1.18274137
  H  2.07235436  1.36602430  0.73791709
