15
opt_min/./Product_7512_0_opt.xyz
  O  2.75826200 -0.10489600 -0.46508700
  C  1.41291477 -0.51776564 -0.41056461
  C  0.49116222  0.64285130 -0.02375354
  C -0.97232287  0.31278178  0.00302609
  O -1.82501045  1.37360891  0.31210554
  H -1.28966327  2.13273777  0.56320520
  C -1.52246192 -0.87160434 -0.25046479
  O -2.86101946 -1.11987821 -0.21076098
  H -3.29356610 -0.27893547 -0.00236948
  H -0.93796251 -1.73264012 -0.52063405
  H  0.65967762  1.45769018 -0.73697341
  H  0.78953558  1.01168328  0.96687766
  H  1.28062408 -1.34936914  0.28963565
  H  1.17289938 -0.86561259 -1.41690084
  H  3.08323925  0.03771595  0.43101220
