14
opt_min/./Product_6867_0_opt.xyz
  C  2.56777100  0.78618500  0.46668400
  N  1.47499505  0.13827396  0.29730333
  C  0.93595370 -1.16326896 -0.03860291
  H  1.05571351 -1.94636955  0.70532390
  H  1.06744609 -1.49840802 -1.06349149
  C  0.15987664  0.05335821  0.26743327
  C -1.04730869  0.75156145  0.43756803
  O -1.09493892  1.93883566  0.73702199
  C -2.28866141 -0.09891342  0.23751520
  H -3.09720716  0.53396167 -0.11918958
  H -2.10660231 -0.90976968 -0.46185620
  H -2.58340259 -0.52278498  1.19631107
  H  2.53005967  1.82697621  0.73076236
  H  3.51074643  0.28484777  0.34330201
