15
opt_min/./Product_7235_0_opt.xyz
  C  3.22473600  0.21074300 -0.09027800
  N  1.97492595 -0.46689516 -0.25047547
  C  0.90404796  0.17320617  0.00956206
  N -0.29228161 -0.37344192 -0.03263344
  C -1.72230470 -0.38834364 -0.09497077
  C -2.80038336  0.56912718  0.10622635
  H -2.69920953  1.03404554  1.08684647
  H -2.74109430  1.35532987 -0.64822795
  H -3.76748272  0.07573557  0.02749399
  C -1.15578284 -1.52250948 -0.37640795
  H -1.04155785 -2.53382111 -0.66017610
  H  0.87171105  1.23730198  0.31784126
  H  3.11014457  1.27054350  0.19482028
  H  3.82527011 -0.29649913  0.67136695
  H  3.77882507  0.16147712 -1.03163156
