10
opt_min/./Product_4782_1_opt.xyz
  C -1.14335000  0.13781200 -0.00127700
  N  0.06166364 -0.49925827 -0.48801361
  C  1.26207258  0.17425230 -0.04206563
  H  1.33510753  0.26187191  1.05452089
  H  2.13632084 -0.36429442 -0.40780869
  H  1.27606484  1.18060925 -0.46404498
  H  0.07991745 -1.46905160 -0.18471151
  H -1.19101441  1.14808061 -0.41143287
  H -1.18950881  0.21282052  1.09791461
  H -2.01050143 -0.42009347 -0.35202619
