15
opt_min/./Product_9338_0_opt.xyz
  C -2.32944700 -0.22362800  0.63470600
  N -1.36758755 -0.61375170 -0.44162079
  H -1.82434562 -1.25307319 -1.09776970
  C -0.09479698 -1.04308160  0.06638101
  H -0.01017594 -1.99249374  0.55399043
  C  0.79977610 -0.03600736 -0.11130954
  C  2.22586008  0.02412061  0.29744766
  H  2.41195870  0.89529114  0.91795116
  H  2.85938144  0.08932032 -0.58612747
  H  2.49710206 -0.87577417  0.84554605
  C  0.07383294  0.99518536 -0.77883773
  H  0.41897101  1.98891197 -0.98961662
  N -1.16068680  0.65123384 -1.03271864
  H -3.06132311  0.45737615  0.20839826
  H -1.77268491  0.24919580  1.44120279
