13
opt_min/./Product_9301_0_opt.xyz
  C  2.21597900  0.74082900  0.32554100
  O  1.00847554  0.34956129 -0.31501576
  C  0.36624523 -0.69327151  0.22070821
  O  0.74396056 -1.29567831  1.18650082
  C -0.92641896 -0.95512760 -0.52918722
  C -2.01254937 -0.29085372  0.28656281
  O -2.22008708  0.91773175 -0.19628955
  H -2.89878840  1.38495794  0.31709640
  H -0.84575810 -0.52196218 -1.52880123
  H -1.10305619 -2.02885151 -0.55466818
  H  2.00043733  1.17631745  1.30389910
  H  2.86853527 -0.12331093  0.46129618
  H  2.68052570  1.47955427 -0.32229195
