13
opt_min/./Product_2186_0_opt.xyz
  C -1.48719000  0.52704500  0.29813500
  N -0.78676294 -0.57457713 -0.37035782
  C  0.94246939 -0.86989279  0.13625779
  O  0.96717025 -1.90874153  0.73665770
  C  1.60842030  0.19073119 -0.29927189
  O  2.99795694  0.26535521 -0.14893149
  H  3.21830535  0.43406857  0.77528236
  H  1.14176569  1.01036241 -0.81767123
  H -0.82158228 -0.47887745 -1.38127340
  H -1.17040359 -1.48199654 -0.10906826
  H -0.84214666  0.92177584  1.08558703
  H -2.41164676  0.18457341  0.76172221
  H -1.69992160  1.32760197 -0.40573410
