10
opt_min/./Product_10934_0_opt.xyz
  N -0.13990258  1.77583291  0.39877667
  C -0.19544052  0.42364188  0.05548142
  N  0.85962651 -0.26876046 -0.12415046
  C  1.78967085 -0.79785950 -0.73444560
  H  2.50559958 -1.36479943 -0.14038512
  N -1.44800492 -0.13576616  0.10156617
  N -1.80028407 -1.27426500  0.12645641
  N -2.32382784 -2.27088222  0.12958489
  H -1.04495800  2.22160604  0.36417916
  H  0.57601995  2.29283320 -0.09311670
