16
opt_min/./Product_9727_0_opt.xyz
  C  2.03892000  0.73778100 -0.45399800
  C  0.51276797  0.68419819 -0.49746084
  N  0.09330149 -0.67811903 -0.73414980
  C -0.21662522 -1.50081836  0.38395208
  H  0.14032675 -2.52173620  0.36262628
  H -0.24108833 -1.04780834  1.37382885
  C -1.29616253 -1.11070443 -0.58287951
  C -2.49221316 -0.36296096 -0.19677954
  O -2.24887522  0.90750672  0.13048010
  H -3.08194718  1.39133757  0.25979383
  H -1.55724130 -1.89242282 -1.29507784
  H  0.10678271  1.09309243  0.43862508
  H  0.14163431  1.29162326 -1.32763792
  H  2.42352409 -0.13711588  0.06591021
  H  2.45298853  0.74511874 -1.45857879
  H  2.37147215  1.62978104  0.07040770
