10
opt_min/./Product_4473_0_opt.xyz
  O -1.81853648  0.29241277  0.53555636
  C -0.90638802 -0.47159204 -0.21986884
  C  0.48948309  0.01819177 -0.10127220
  O  1.08021219  0.94707820 -0.97462422
  O  2.25354000  0.86737957 -0.21243295
  C  1.61129764 -0.02892216  0.63248966
  H  2.05461039 -0.47316205  1.49441084
  H -1.18577032 -0.47641176 -1.28237444
  H -0.96426577 -1.48631397  0.18481345
  H -1.77111407  1.21276787  0.24834074
