10
opt_min/./Product_2479_1_opt.xyz
  N -0.60306159 -0.51060710 -0.11496956
  H -0.29714030  97.48014205  20.33755893
  H -47.29921186 -123.51368315 -63.46520797
  C  55.05916121  63.13814026 -52.30032851
  C -4.06656417  144.13252157 -12.82414265
  H -21.96935485 -105.38292592  7.79468416
  C -88.86945727 -54.22415163  55.97351162
  N  131.23365049  52.38298664 -22.40086229
  C  15.27723900 -100.91006970 -109.54568038
  H -9.18882920  51.37933462  57.24372737
