10
opt_min/./Product_11397_0_opt.xyz
  N -1.74041900  0.89506700 -0.22963000
  C -0.68414941  0.24039988 -0.05611220
  N -0.44499006 -1.05403844  0.33444874
  H -1.06034356 -1.80590006  0.58067505
  O  0.93188883 -1.32394962  0.38182482
  C  1.56742797 -0.16910416  0.01158779
  O  2.74976782 -0.05211269 -0.05461862
  N  0.59050540  0.75589656 -0.24681738
  H  0.76678002  1.70055362 -0.54084927
  H -2.59990730  0.39241002 -0.05351779
