16
opt_min/./Product_4904_0_opt.xyz
  C  1.83358200 -0.23920800 -0.20401300
  C  0.69341438  0.00806150  0.78887249
  C -0.63795248  0.40873419  0.07342930
  C -1.20086700 -0.77655296 -0.74567313
  H -0.56362362 -0.95975815 -1.60312405
  H -1.25786473 -1.67372613 -0.14041529
  H -2.19412705 -0.52836230 -1.10996494
  C -1.59255919  0.78119798  1.11101531
  H -1.78126874 -0.08364257  1.76404840
  O -0.35909990  1.47877815 -0.81588578
  H -0.88015394  2.23668846 -0.53319732
  H  0.95714652  0.82589083  1.45946221
  H  0.51088359 -0.87292890  1.39819968
  H  2.54987633  0.57290922 -0.17708432
  H  1.46397102 -0.30398904 -1.22117695
  H  2.35520283 -1.16176817  0.02464460
