11
opt_min/./Product_1570_0_opt.xyz
  C -2.12609500  0.06211100  0.34955700
  N -0.74700127  0.42997600  0.24787949
  C  0.09167142 -0.45623789 -0.10551619
  N  1.37967057 -0.16492941 -0.23514949
  C  2.48679878  0.55658210 -0.23514398
  H  2.82358806  1.55550919 -0.07999729
  N  2.83719648 -0.62836242 -0.51611134
  H -0.15009087 -1.51129645 -0.31212684
  H -2.69354761  0.61493228 -0.40238555
  H -2.30647328 -1.01228461  0.20663353
  H -2.49139499  0.36317320  1.33122767
