16
opt_min/./Product_11782_0_opt.xyz
  C  2.60352000 -0.47147100 -0.04688900
  C  1.17411748 -0.08724072 -0.03896664
  O  0.17373157 -0.91212625 -0.00930667
  C -0.99894923 -0.26474715  0.00817793
  C -2.29943614 -0.97433466  0.04867752
  H -2.85870972 -0.74144777  0.95861363
  H -2.12048926 -2.04536811  0.02521489
  H -2.92535380 -0.70341003 -0.80437511
  C -0.76232883  1.22875332 -0.00718015
  H -1.16104535  1.75749138  0.88892488
  H -1.19786006  1.74566000 -0.89346391
  N  0.68589245  1.21497521 -0.03747143
  H  1.24542258  2.04056667 -0.04434593
  H  3.11883063 -0.03694399 -0.90323157
  H  2.67656700 -1.55293933 -0.10297565
  H  3.10756958 -0.13601113  0.86169024
