13
opt_min/./Product_1343_0_opt.xyz
  C  1.72214800 -0.07393800  0.72703000
  H  1.97824467  0.74076391  1.39649355
  H  2.03126355 -1.04167588  1.10702358
  C  1.84774458  0.17731513 -0.77722585
  H  2.21858910 -0.62331970 -1.40746809
  H  2.17295956  1.15751311 -1.10891267
  C  0.54858718  0.03618605 -0.12892011
  N -0.72405231  0.01132632 -0.20743013
  C -1.92480452 -0.16109281  0.59463456
  H -2.16795135  0.63498642  1.29826021
  H -2.10623883 -1.15625398  1.00073417
  C -1.86424560  0.08421752 -0.84854777
  H -2.31676483  0.21508947 -1.78897059
