14
opt_min/./Product_5407_0_opt.xyz
  C -1.11116700 -1.42813600 -0.11141900
  C -0.07566765 -0.35544793  0.00429919
  C  1.18505493 -0.41762661  0.46788388
  C  1.85079110  0.83393082  0.60458286
  H  2.78022947  0.96785393  0.05415556
  H  1.64078369 -1.31189320  0.85461359
  C -0.37562700  1.05326272 -0.44460630
  O  0.81270160  1.82224321 -0.10252211
  H  0.59967928  2.44408787  0.60816462
  H -1.25277005  1.49154081  0.04615382
  H -0.51272086  1.13768337 -1.53399489
  H -2.03584113 -1.01609134 -0.50988298
  H -0.77723929 -2.22748365 -0.77580876
  H -1.32439770 -1.87542803  0.86121638
