14
opt_min/./Product_1102_0_opt.xyz
  C  2.54919000  0.91846600  0.09557900
  O  1.31114859  0.55180685  0.01925635
  C  0.83774945 -0.64611354  0.00496136
  C -0.61398561 -0.85375939 -0.06671306
  H -0.88521536 -1.89481384 -0.17984976
  C -1.55768146  0.00487930  0.74629941
  H -1.12294526  0.78229296  1.35607908
  H -2.42477829 -0.46426327  1.18594943
  C -1.50352693  0.16183535 -0.73835393
  H -1.03502262  1.04597939 -1.14274580
  H -2.33650545 -0.19654171 -1.32459898
  H  1.50649082 -1.49620699  0.06915648
  H  2.73594422  1.97229590  0.06894878
  H  3.34980546  0.19938880  0.15744332
