12
opt_min/./Product_990_0_opt.xyz
  C  1.31098800 -0.90223000 -0.79253900
  C  1.19841799 -0.73170068  0.51694637
  O  1.48738534 -1.50828242  1.58162299
  H  2.04591281 -2.25009130  1.31709318
  C  0.57570926  0.22519534 -1.46159209
  H  1.11221327  0.70991543 -2.28286589
  H -0.38343303 -0.14913932 -1.86355741
  O  0.34826706  1.18993368 -0.45147755
  C  0.47292227  0.56219956  0.80475621
  H -0.50606659  0.38964459  1.27378176
  H  1.06699686  1.20335954  1.46819497
  H  1.76446131 -1.71187543 -1.33009166
