11
opt_min/./Product_4114_0_opt.xyz
  C -1.67541600 -0.24892100 -0.08746400
  C -0.19467250 -0.20136462 -0.00977164
  C  0.75462938 -1.24559459  0.02657363
  N  1.89582953 -0.51660779  0.09963887
  H  2.82151487 -0.91438324  0.14423386
  N  1.77346967  0.80498835  0.12803108
  N  0.47420930  0.97558593  0.04561666
  H  0.08690435  1.90800166  0.03894048
  H -1.98411756 -1.28019305 -0.23001941
  H -2.12896501  0.12712960  0.83016392
  H -2.04581402  0.34850719 -0.92074520
