16
opt_min/./Product_10042_0_opt.xyz
  C  1.45528700 -0.03834600  0.47355300
  H  1.52882418 -0.82471019  1.21562478
  H  2.10241493  0.79194371  0.75006192
  C  1.53423515 -0.46977240 -0.98985392
  H  2.17232510  0.15198092 -1.61942632
  H  1.76601121 -1.51758833 -1.17811828
  N  0.09069045 -0.21796979 -1.15772053
  H -0.16166052  0.42840966 -1.89526355
  C -0.00267355  0.36134038  0.17900449
  O -0.25386107  1.73968250  0.09779825
  H -0.00882985  2.16178810  0.93165470
  O -0.89302472 -0.27818343  1.02604721
  C -2.22594011 -0.33541535  0.54824160
  H -2.63832616  0.66284307  0.39140999
  H -2.27245277 -0.92037623 -0.37195952
  H -2.78778353 -0.83957779  1.33674979
