15
opt_min/./Product_8211_0_opt.xyz
  C -1.72823000  0.06363500 -0.45799000
  O -2.44450599 -0.40424409  0.67395596
  H -2.38719882  0.26268443  1.37047371
  C -0.25470588  0.11975875 -0.20908770
  C  0.58347339  1.16535221 -0.28998384
  H  0.33536300  2.17210518 -0.57911069
  C  1.92036528  0.74261005  0.07106033
  H  2.76189134  1.41493949  0.07684927
  C  1.90540983 -0.55830683  0.38298094
  H  2.72543840 -1.17864404  0.69696823
  C  0.51973632 -1.08493507  0.22787440
  H  0.11731377 -1.51875229  1.14752866
  H  0.46847848 -1.88283498 -0.51971354
  H -1.94936714 -0.66456465 -1.24661445
  H -2.09360453  1.05351854 -0.75977003
