10
opt_min/./Product_3515_1_opt.xyz
  O -0.59168600  1.31727800 -1.54380200
  C -0.45019597  0.65898275 -0.54430540
  N  0.70569589  0.61486226  0.18243793
  C  1.76533654 -0.03192466  0.06611140
  H  2.55725349  0.13700501  0.78537877
  H  1.95168478 -0.76947282 -0.71308484
  C -1.58161632 -0.05644479  0.16544863
  H -2.39526852 -0.22405392 -0.53828603
  H -1.24039494 -0.99989904  0.58925683
  H -1.93890600  0.58080863  0.97422064
