9
opt_min/./Product_5840_0_opt.xyz
  N -1.12713397  0.74040204 -0.00234769
  C -0.00534503 -0.06586798 -0.01280622
  C  1.24217462  0.34533533 -0.27153878
  H  2.07500480 -0.32593159 -0.18308717
  H  1.44634014  1.36472523 -0.55259093
  C -0.22415073 -1.42656496  0.34087008
  N -0.41371117 -2.52695700  0.59786443
  H -1.02294123  1.63323589 -0.45795923
  H -2.01990499  0.29368973 -0.13259693
