15
opt_min/./Product_10491_0_opt.xyz
  C -2.03558800 -0.51398300 -0.45875300
  C -0.97495879  0.22914522  0.34984978
  H -1.44044864  0.60916303  1.26929991
  C -0.44314408  1.46290389 -0.36148656
  N  0.86694143  1.28971497 -0.34033548
  H  1.53043644  1.95405851 -0.71631286
  C  1.31197566  0.09634695  0.26503896
  N  2.67788060 -0.10337429  0.40685571
  H  3.23141979  0.21306047 -0.38073653
  H  2.93028609 -1.04169379  0.68767148
  C  0.24121294 -0.58445076  0.67803245
  H  0.21137858 -1.53295568  1.17846274
  H -1.61985356 -0.83679109 -1.41190014
  H -2.39108896 -1.38831448  0.08280208
  H -2.87586678  0.14820907 -0.65524089
