8
opt_min/./Product_4917_1_opt.xyz
  O -0.66526500 -0.79776900 -0.88760500
  C  0.11293711 -0.12179620 -0.01981055
  C  1.36121571  0.15964245  0.24278695
  H  1.62099496  0.77580349  1.08269919
  H  2.15078643 -0.22061898 -0.37917101
  C -1.31245314 -0.09067145  0.17844317
  H -1.76761157 -0.71450368  0.93746156
  H -1.88109276  0.78104800 -0.12202055
