13
opt_min/./Product_4991_0_opt.xyz
  C  0.42857862 -1.10969750  0.69781568
  C -0.75496159 -0.41582663  0.00096286
  O -1.46766499  0.43597585  0.86178998
  H -0.86134530  1.11113620  1.18902420
  H -1.47556256 -1.16324434 -0.33852719
  H -0.38494612  0.13926382 -0.87360377
  C  1.46655378 -0.11898082  1.14319055
  N  2.18435018  0.50884156  0.31216964
  C  2.61400556  1.29985558 -0.48887762
  H  3.51803670  1.16795450 -1.00990484
  H  1.63598634  0.04871739  2.19540469
  H  0.06144795 -1.65303218  1.56828772
  H  0.86023440 -1.82600168 -0.00667307
