11
opt_min/./Product_1376_0_opt.xyz
  N -0.89784500 -0.27537000  0.29412300
  C -2.22358982 -0.04225447  0.33189829
  O -2.95487631  0.20347095 -0.58204672
  H -2.55139889 -0.10784592  1.39421196
  O -0.19521252 -0.31830425 -0.92276803
  C  1.14967246 -0.22633056 -0.85406938
  C  1.93107733  0.02186684  0.18479947
  H  2.99521544  0.04939667  0.05972704
  H  1.56495845  0.21294568  1.17936430
  H  1.54210140 -0.38878327 -1.84781414
  H -0.33450156 -0.48743397  1.10550384
