14
opt_min/./Product_3306_0_opt.xyz
  O  2.64215400 -0.34060400 -0.35402500
  C  1.88220417  0.64493894 -0.07556410
  C  0.56819901  0.33951894  0.56265820
  H  0.75099477  0.62735186  1.60484961
  C -0.66401803  1.03660532 -0.04580014
  H -0.45476508  1.50152291 -1.00700174
  H -1.14894711  1.76591502  0.59723089
  C -1.37166580 -0.32505343 -0.14074270
  H -2.24718591 -0.41255523  0.49921118
  H -1.64760869 -0.62379360 -1.15009322
  C -0.12804697 -1.03469106  0.41692058
  H  0.34410200 -1.72069763 -0.29094083
  H -0.29154263 -1.56708292  1.35285560
  H  2.28058490 -1.25575779 -0.22751491
