11
opt_min/./Product_6991_0_opt.xyz
  N -1.68027700  0.49131000 -0.72054800
  C -0.37730285  0.41357033 -0.35511808
  N  0.27687986  1.48061274 -0.08318534
  N  1.52582542  1.38250151  0.60134334
  C  1.91913380  0.25780097  0.24555359
  N  1.65271975 -0.80470705 -0.32480827
  C  0.22516100 -1.01222577 -0.21070847
  H -0.07182315 -1.69280869 -1.01199970
  H -0.11611522 -1.42427764  0.74955804
  H -2.08196635 -0.26413171 -1.25210837
  H -2.01045698  1.41406633 -0.95222793
