15
opt_min/./Product_11432_0_opt.xyz
  C  1.63610600  0.56485300  0.55146000
  H  2.19545313  0.50334340  1.47051740
  H  1.68069067  1.53739081  0.08829704
  C  1.56755173 -0.65228240 -0.31599234
  H  1.56605729 -0.53575351 -1.38660528
  H  2.07272472 -1.54067551  0.02613121
  C  0.35449421 -0.21085558  0.44815852
  C -0.79062750  0.41835388 -0.30263997
  H -0.41840146  0.88506946 -1.21808758
  C -2.07910830 -0.41707680 -0.42647648
  H -2.04131373 -1.43568536 -0.06176587
  H -2.55024742 -0.38675178 -1.40386478
  C -2.64764752  0.64478654  0.52260550
  O -1.53040498  1.33001349  0.52109778
  H  0.03068515 -0.78986025  1.30220345
