11
opt_min/./Product_5459_0_opt.xyz
  O  2.37255100 -0.06837100 -0.19873300
  C  1.03728977 -0.04569668 -0.05568974
  O  0.32948201 -1.19644032 -0.01529519
  C -1.07407960 -0.81284148 -0.06203307
  H -1.51463447 -1.30514629 -0.93883290
  H -1.55855298 -1.21706665  0.83871863
  C -1.08067677  0.71345019 -0.18381156
  H -1.68392899  1.24129275  0.54897344
  N  0.28209485  1.01569411 -0.08060227
  H  0.64259761  1.95550629 -0.13525602
  H  2.64957202 -0.98692577 -0.31220130
