16
opt_min/./Product_3236_0_opt.xyz
  C -2.09131400 -0.89328800  0.00871100
  O -1.15802950 -0.11001470 -0.68064628
  C -0.00664790  0.27009480  0.07143213
  C  1.21810790 -0.31671239 -0.57839062
  C  2.23062522 -0.84415595  0.08298091
  H  2.24104221 -0.90892830  1.15809190
  H  3.09904803 -1.23203245 -0.42163993
  H  1.22641931 -0.27137643 -1.65767370
  C  0.10019137  1.80959137  0.11774643
  H  0.16368406  2.17020207  1.13666911
  H  0.97351325  2.15301065 -0.42422374
  H -0.78045559  2.23759359 -0.35074236
  H -0.09189377 -0.12319249  1.09085487
  H -2.89967232 -1.09427435 -0.68980907
  H -1.65906063 -1.84550783  0.33782053
  H -2.49577413 -0.36833474  0.88275135
