10
opt_min/./Product_10002_0_opt.xyz
  C  2.82117600 -0.04972698  0.35295200
  C  1.61954902 -0.04201206  0.37212098
  C  0.21953500 -0.04810015  0.39131159
  C -0.68248593 -0.29110642  1.45567122
  N -1.85474202 -0.14250983  0.79526152
  H -2.76623514 -0.23961269  1.21601457
  N -1.79474775  0.15213595 -0.49912344
  N -0.50866842  0.20734313 -0.73123969
  H -0.17060388  0.41922761 -1.65817883
  H  3.86941878 -0.04526351  0.35375730
