16
opt_min/./Product_1482_0_opt.xyz
  C  0.42861600  1.29520100 -0.86352300
  C -0.03535603 -0.14741009 -0.65038538
  C  0.98660356 -1.02909280  0.01443741
  C  2.19569635 -0.68445422  0.41559557
  H  2.58028180  0.31213802  0.28980138
  H  2.85287588 -1.39698171  0.88129177
  H  0.64451761 -2.04633358  0.16724648
  C -1.28804718 -0.15828435  0.18489788
  C -2.46236018 -0.60352382 -0.22447677
  H -3.33134714 -0.58443543  0.40979808
  H -2.60031242 -1.00661918 -1.21444913
  H -1.17708123  0.23744075  1.18630730
  H -0.26793067 -0.59004224 -1.62657243
  H  0.66179165  1.76692539  0.08514252
  H -0.35989475  1.86549437 -1.34215138
  H  1.30776142  1.32253115 -1.49806521
