17
opt_min/./Product_6652_0_opt.xyz
  C -1.73829300 -1.28923200  0.37405800
  O -0.70400668 -0.65982976  1.07874541
  C  0.31981730 -0.10043542  0.27063031
  C  0.19612311  1.45819350  0.32836417
  O -0.93120906  1.92575553 -0.35095772
  H -0.84235630  1.74700073 -1.29655456
  H  0.05679947  1.74054821  1.37275212
  H  1.11278494  1.91924044 -0.06307194
  C  1.66194658 -0.42380332  0.78421858
  C  2.74870496 -0.23140347 -0.18436531
  H  3.49892641  0.41944100  0.27350719
  H  3.23669004 -1.20802628 -0.26299253
  H  2.48787267  0.12623732 -1.18950341
  H  0.16168263 -0.39204754 -0.78466983
  H -1.36518910 -2.11635833 -0.24603076
  H -2.41434071 -1.68690633  1.12962062
  H -2.28757417 -0.58380413 -0.26369705
