13
opt_min/./Product_9669_0_opt.xyz
  O  1.51199600 -0.72183500  1.23520000
  C  0.79063429 -0.55671597  0.04283324
  C -0.72156403 -0.52445604  0.31706747
  H -0.96932025 -1.22294634  1.11301892
  C -1.71857853 -0.23061758 -0.75950054
  H -2.19958036 -0.59180224 -1.63520647
  C -1.55228409  0.70898274  0.12673164
  H -1.78774573  1.67464430  0.50392885
  C  1.19087196  0.71102050 -0.66828742
  O  1.78178126  1.61107100 -0.14031406
  H  0.83806256  0.76926408 -1.71607641
  H  1.02927013 -1.42288303 -0.58980758
  H  1.68897161  0.16100768  1.59530195
