12
opt_min/./Product_7062_0_opt.xyz
  O  2.81199700  0.85500000  0.45225600
  C  1.71432790  0.71076325 -0.00919363
  C  1.13051505 -0.62230023 -0.32887703
  H  1.83325065 -1.45459160 -0.28395667
  C -0.30389157 -0.93107493 -0.03406302
  C -1.20697791  0.02998680  0.64795860
  N -1.21517105  1.25047618  0.36226261
  H -1.88124732  1.82158788  0.87894608
  H -1.84262459 -0.46029937  1.39815691
  H -0.52721392 -1.97557764  0.18339880
  O  0.15191658 -0.67732715 -1.31996633
  H  1.03412257  1.54536466 -0.24195970
