11
opt_min/./Product_2442_0_opt.xyz
  C  2.36983300  0.35096500  0.20849100
  N  1.51818385 -0.57859340  0.09763281
  C  0.19682524 -0.32316784  0.00852653
  C -0.92046549 -1.06721202 -0.11553508
  H -1.16819047 -2.10142407 -0.18138048
  C -1.69207707  0.21975758 -0.11505545
  H -2.19427800  0.48292167 -1.04566250
  H -2.34308903  0.40846100  0.73769441
  O -0.44251930  0.92320332  0.01481719
  H  3.41260391  0.07989177  0.27395837
  H  2.11886929  1.41181135  0.24136057
