10
opt_min/./Product_2951_0_opt.xyz
  O -1.96836060 -0.00540710  0.84821983
  C -32.56055118 -4.11307568  12.84710134
  C -32.42383929 -6.62664862  10.94686561
  C -31.97363416 -11.66523026  5.16576421
  C -13.54859893 -10.49456927 -12.86933546
  C  12.49019567  20.32083453 -4.63777699
  H -29.46506383 -8.08015804  6.90928216
  H  3.89748007 -11.80116329 -16.14849161
  H -57.28696825 -7.21626699 -18.22865562
  H -8.42544535 -3.16003380  8.69319097
