7
opt_min/./Product_5439_2_opt.xyz
  C -0.56055200  0.12587300 -0.01719900
  N  0.84626668 -0.12429860 -0.28770413
  H  1.41281706  0.62699043  0.08711628
  H  1.13637066 -0.98560775  0.15745717
  H -0.84744359  1.05687623 -0.50013725
  H -0.81153078  0.19491103  1.05014326
  H -1.14676087 -0.68009901 -0.45356238
