11
opt_min/./Product_2549_0_opt.xyz
  C  0.44090041 -1.25786913  0.30160714
  C  4.45180022 -4.52442772  1.41292777
  C  6.00618518 -2.90217612 -7.08828348
  H -1.31899334  3.93562961 -8.93784641
  H  10.39024486  1.21328813 -12.22315206
  N  4.00281479 -15.77127900  2.46965422
  C -11.59357058 -34.65933723  13.30172684
  C -10.49103445 -2.89858747  3.68783875
  H  5.36159542  13.33082721 -3.23460653
  H  17.47667597 -19.78008633 -17.61980843
  H  8.44395084 -28.83734763  6.69344784
