14
opt_min/./Product_11226_0_opt.xyz
  N -0.67469000 -1.43611900  1.42463400
  C  0.14799117 -0.78496623  0.53555346
  C  0.48589840 -0.88639357 -0.76005700
  C  1.46641062  0.22605267 -0.51539059
  H  1.21397678  1.25427204 -0.76133500
  O  1.25639453  0.04726720  0.91596207
  C  2.30921220 -0.41805310 -1.65325393
  H  2.94873941 -1.22146726 -1.29302530
  H  2.90901932  0.27474412 -2.23771451
  C  0.94872120 -0.95729441 -2.19069173
  H  0.41512181 -0.22985292 -2.80063314
  H  0.93191618 -1.92637511 -2.68793474
  H -0.41583648 -2.38765783  1.64760707
  H -0.82702132 -0.88782659  2.25877623
