12
opt_min/./Product_11823_0_opt.xyz
  O  1.83419400  0.98851800 -0.17160300
  C  0.63951446  0.36516282 -0.31203331
  C -0.52209445  1.07867676 -0.23031259
  H -0.50217619  2.15556157 -0.29054744
  C -1.69030122  0.42173050  0.20992424
  H -2.58455102  0.97070045  0.46069074
  N -1.69459342 -0.90024843  0.30606283
  C -0.79138416 -1.61699200 -0.22147801
  C  0.62949897 -1.14030900 -0.33661475
  H  1.00543823 -1.54669884 -1.28166972
  H  1.29649555 -1.50508378  0.45803519
  H  2.56381943  0.39633150 -0.39291787
