16
opt_min/./Product_9583_0_opt.xyz
  C -1.46669200 -1.06245900  0.01379100
  C -0.58086364  0.15359603  0.17395765
  C -0.94983523  1.36868120 -0.66362781
  H -1.02203534  2.24178683 -0.01786622
  H -1.91001217  1.20776616 -1.14747554
  H -0.19593356  1.56041082 -1.42422570
  C  0.81941068 -0.06551968  0.49993140
  N  1.79525330 -1.07051420  0.70740310
  H  1.84894767 -1.76760836 -0.03074797
  C  2.22054949  0.27444513  0.28254723
  H  2.56751012  0.43566691 -0.73255935
  H  2.72522367  0.85234989  1.04591447
  O -0.06479824  0.40273046  1.47507672
  H -1.11702915 -1.86466020  0.65992575
  H -2.49413588 -0.81717794  0.28187877
  H -1.44876924 -1.39282023 -1.02363028
