7
opt_min/./Product_1185_0_opt.xyz
  C -0.68290000 -0.19687200 -0.22766100
  C  0.71869730 -0.70650601 -0.22984382
  O  1.63187246  0.18046884 -0.14573801
  H  1.35734166  1.13681195 -0.10893298
  H -1.25604470 -0.63340146 -1.04037586
  H -1.12650604 -0.55243332  0.70539601
  H -0.75543859  0.90297252 -0.25466627
