14
opt_min/./Product_4977_0_opt.xyz
  O  2.18452800  1.23821400  0.78217000
  C  1.51964174  1.03603664 -0.44392786
  C  0.61906283 -0.18987163 -0.31088520
  O -0.63693350  0.21574052  0.18232110
  C -1.38633503 -0.73232055  0.80093955
  C -2.62570743 -0.49600707  1.19863214
  H -3.19884769 -1.25201324  1.69947202
  H -3.08828942  0.45995130  1.03343365
  H -0.90369108 -1.69129044  0.95981202
  H  1.10028899 -0.89840322  0.37462905
  H  0.49346885 -0.66978903 -1.29321747
  H  2.25164597  0.86729518 -1.24802054
  H  0.89202799  1.89645637 -0.70453851
  H  2.63705661  2.08745072  0.76205773
