16
opt_min/./Product_9959_0_opt.xyz
  C  2.58215800  0.18915900 -1.50375100
  C  1.18874273  0.08713420 -0.97973997
  C  1.09530892 -0.58848783  0.24816291
  C -0.13270190 -0.74951938  0.84169819
  N -1.25855452 -0.30070165  0.32889574
  C -2.65418562 -0.14122424  0.40017862
  H -3.27968030 -1.02202921  0.27583512
  H -3.04424837  0.57514230  1.11732777
  C -1.85039614  0.34761453 -0.77003714
  H -1.66638632  1.41015188 -0.88272886
  H -1.88449702 -0.19810091 -1.70418376
  H -0.24164128 -1.25528622  1.79716781
  H  1.94030370 -1.02628933  0.79725760
  H  2.60977916 -0.03532655 -2.57092901
  H  3.33390196 -0.42493475 -0.98173418
  H  2.87349139  1.23758721 -1.39498560
