15
opt_min/./Product_3107_0_opt.xyz
  C  2.01253500  0.57972800  0.19358700
  C  1.35560315 -0.37776675 -0.81764482
  N -0.08816153 -0.31981776 -0.83599631
  C -0.75797846 -0.48770429  0.21091506
  C -2.25793246 -0.42063655  0.16283412
  O -2.76764012  0.56489595  1.03627079
  H -2.46043558  1.42525009  0.72709275
  H -2.57240702 -0.25187708 -0.87319242
  H -2.67659643 -1.36459745  0.52363840
  H -0.33279786 -0.65758507  1.21035906
  H  1.67697847 -0.14464177 -1.83414633
  H  1.65903859 -1.40629964 -0.59643871
  H  1.26192027  1.21340648  0.65920056
  H  2.73261815  1.22152503 -0.30583996
  H  2.53141145  0.03442602  0.97694213
