12
opt_min/./Product_2574_0_opt.xyz
  N -1.25330800 -0.46054800  0.78914800
  H -2.26128670 -0.39346491  0.87293164
  C -0.77651474 -0.50460554 -0.59339018
  H -1.49077891 -0.62311615 -1.39738256
  C  0.60217875 -1.01228255 -0.71156275
  H  0.88477823 -1.87483108 -1.27842118
  C  1.40886853 -0.21465044  0.00185213
  H  2.46949961 -0.30960131  0.14973717
  N  0.73450577  0.84126533  0.56245434
  H  1.16222180  1.64712416  0.97677062
  C -0.63915636  0.73481199  0.24345910
  H -1.20886350  1.64835660  0.11505522
