11
opt_min/./Product_231_0_opt.xyz
  C  2.18633499  0.05925506  0.36535709
  C  1.03212746 -0.18651122 -0.16349063
  C -0.13678886 -0.40897946 -0.67810471
  C -1.36567192  0.41819037 -0.36083182
  C -2.05414745 -0.16331487  0.76548831
  N -2.57926493 -0.63976642  1.66200385
  H -2.04618984  0.43635921 -1.21509033
  H -1.07752038  1.44071872 -0.10218075
  H -0.29751537 -1.24788584 -1.34413166
  H  2.92006775  0.68031096 -0.12458049
  H  2.47599534 -0.37667041  1.30809218
