13
opt_min/./Product_2202_0_opt.xyz
  C  1.59100400 -0.61475700 -0.09004900
  C  0.88838327  0.70410740 -0.28399640
  O  1.48409507  1.72651093 -0.53712405
  C -0.59437408  0.67425439 -0.27335423
  H -1.02585310  1.67243811 -0.37025564
  C -1.29543547 -0.58157447 -0.71862634
  H -2.27909058 -0.34128863 -1.15453585
  N -1.31097676 -0.16008934  0.71100566
  H -2.11360195  0.28388786  1.16193229
  H -0.75047298 -0.69462656  1.36841911
  H  1.59404537 -1.11502464 -1.05708475
  H  2.61904517 -0.44021635  0.21521770
  H  1.09038380 -1.27338203  0.61092499
