11
opt_min/./Product_4940_0_opt.xyz
  O -1.45725600  0.68278500 -0.44607600
  C -0.79601456 -0.42641716  0.08054366
  O  0.23742742 -0.08022851  0.94648503
  C  1.38171002  0.47535118  0.27934822
  C  2.30785578 -0.35519391 -0.43204896
  H  2.02957147 -1.41962555 -0.39144178
  H  1.06494649  1.30149381 -0.38036669
  H  1.98776780  0.96123305  1.06006353
  H -0.42689927 -0.98925440 -0.78835589
  H -1.47518505 -1.06114801  0.66711402
  H -1.83609974  1.19805451  0.27618321
