12
opt_min/./Product_7778_0_opt.xyz
  C -1.86293900 -0.07155400  0.12548300
  C -0.38235456 -0.08197067  0.23223535
  N  0.25843155 -1.25408851 -0.21261856
  N  1.48224247 -1.24699809 -0.05744835
  C  2.16417836 -0.14556825  0.38873611
  O  2.92227299  0.04430340  1.29732475
  H  2.27992119  0.42527564 -0.58935839
  N  0.41635568  0.82690149  0.61260053
  H  0.09733545  1.74296854  0.88884792
  H -2.27938290 -0.47605213  1.04841982
  H -2.24404231  0.93820499 -0.01178132
  H -2.17632259 -0.71173546 -0.69413874
