15
opt_min/./Product_6352_0_opt.xyz
  C -2.57013700 -0.55960500  0.12588300
  C -1.34904399  0.28320218 -0.18711407
  O -0.21133237 -0.38682500  0.34619147
  C  0.99359403  0.17183185  0.09599176
  O  1.00323438  1.37657097 -0.54146621
  H  1.93669770  1.62092032 -0.63140279
  C  2.11916802 -0.43707438  0.46732351
  O  3.34267461  0.19565636  0.20290941
  H  4.04886750 -0.41607366  0.42565702
  H  2.11355762 -1.37971857  0.98239705
  H -1.22465797  0.40771144 -1.27096265
  H -1.43200144  1.27639774  0.26939542
  H -2.47536052 -1.54238433 -0.33146186
  H -3.46196053 -0.07218081 -0.26305659
  H -2.66949094 -0.68863521  1.20148083
