15
opt_min/./Product_7246_0_opt.xyz
  C -2.10491700 -0.86951500  0.23163600
  N -1.31465789 -0.65790590  1.42360034
  H -1.75127492 -0.47584398  2.31075909
  C -1.57389137  0.14304441 -0.76870064
  H -2.24196117  0.77983672 -1.32954929
  N -0.32672556  0.35340760 -0.87109808
  C  0.53623963 -0.20361147  0.03458051
  C  1.99323557 -0.19860163 -0.30042462
  H  2.23105703  0.68535645 -0.88623208
  H  2.59586025 -0.20634428  0.60427417
  H  2.25115908 -1.07580959 -0.89432788
  C  0.03436524 -0.53603384  1.25538090
  H  0.64618467 -0.63041705  2.13959053
  H -3.16551301 -0.73727055  0.43590177
  H -1.92912316 -1.89186174 -0.14699398
