13
opt_min/./Product_3812_0_opt.xyz
  C  1.93779000 -0.33042100  0.01141700
  C  0.64682487  0.35477503  0.15362587
  C -0.09164801  1.42116453  0.04100946
  H -0.19171179  2.44545818 -0.22068557
  C -0.79142201  0.19129375  0.55236425
  C -1.75608704 -0.57733129 -0.33494111
  H -2.72296052 -0.68102417  0.15097797
  H -1.37785266 -1.57748675 -0.54643241
  H -1.90006964 -0.06298079 -1.28259742
  H -1.03933980  0.13317329  1.60967781
  H  2.00653408 -1.18135043  0.68596244
  H  2.75454278  0.36055703  0.21445709
  H  2.05012846 -0.69429336 -1.01082226
