15
opt_min/./Product_8041_0_opt.xyz
  C -1.04254500 -1.21714500  0.16891100
  C -0.45377900  0.00130488 -0.50507736
  H -0.77302080  0.03734317 -1.54935419
  C -0.56945668  1.34373542  0.23291968
  H -0.92052240  2.17312797 -0.38246032
  H -1.15071569  1.30452147  1.15866495
  N  0.86765714  1.31821093  0.50920374
  H  1.39187872  2.16169306  0.31703313
  C  1.08461731  0.17462549 -0.36329022
  N  1.77031213 -0.86298600  0.28004641
  C  2.31264242 -1.73706970  0.82224886
  H  1.61082559  0.34434837 -1.31342387
  H -2.12341489 -1.22935526  0.07713930
  H -0.65233126 -2.11257126 -0.31815191
  H -0.75360315 -1.25575802  1.21533526
