11
opt_min/./Product_4948_0_opt.xyz
  O -1.37420800  0.44699100  0.47358600
  C -0.92420125 -0.78526880 -0.09883658
  H -1.48705458 -1.04862542 -0.99832476
  H -0.94729608 -1.61048203  0.61523556
  C  0.47784015 -0.20131032 -0.34721693
  O  1.46330219 -0.86809429  0.38269369
  H  2.32042234 -0.45807054  0.23919170
  H  0.73402413 -0.10778675 -1.40655801
  C -0.10767429  1.07874935  0.29228445
  H  0.34115952  1.36785880  1.24466852
  H -0.16154986  1.93836926 -0.38410501
