11
opt_min/./Product_9525_0_opt.xyz
  C -2.03194000  0.21981300  0.25122700
  H -2.88452657  0.86934207  0.27227774
  C -0.71988345  0.57669946  0.02755015
  H -0.36196220  1.57791830 -0.16141333
  C  0.11045059 -0.62798762  0.08576340
  O  1.39631995 -0.76562369 -0.06464574
  C  2.27529141  0.13248653 -0.30501440
  H  3.28699699 -0.22215347 -0.39108110
  H  2.03463530  1.17704607 -0.41636073
  C -0.77243318 -1.72669473  0.35978743
  C -1.92762112 -1.17238163  0.43380647
