13
opt_min/./Product_11283_0_opt.xyz
  C -2.07414106  0.17849150  0.41683433
  N  5.19391304  0.68980505  5.77074686
  C -7.75522961 -9.67687610  0.35971433
  O  3.68287292  6.99049319  25.78975985
  C -9.49210187  0.70846625  15.77923882
  H  7.99020217 -18.73985823 -6.12104015
  H  3.39699457 -3.86318451  2.68222018
  C -9.38626611 -10.90590558 -24.34870676
  N -9.86115106 -2.36275572  13.73523754
  H -5.41104745  3.12504249 -34.01853330
  H -15.69648265 -14.77065218 -8.06128957
  H -15.70627189 -6.48221998 -13.21339616
  H -5.37843006 -15.12511950 -44.99073222
