19
opt_min/./Product_9710_0_opt.xyz
  C -1.96223800 -0.23857600 -0.43446400
  C -0.82592139  0.03219103  0.57635638
  H -1.31896579  0.22192954  1.53708314
  C -0.15377214 -1.28403269  0.64198698
  C  1.10745773 -1.42259406 -0.09444186
  H  1.73620344 -2.19149078  0.36320295
  H  0.70363274 -1.88297173 -1.01216681
  C  1.92610106 -0.17458916 -0.45768205
  H  2.66601352 -0.42149744 -1.22189444
  H  2.46877492  0.15477399  0.43333061
  C  0.99718271  0.93943748 -0.92465586
  H  1.57919046  1.82806675 -1.18200154
  H  0.46283210  0.62326661 -1.82340952
  C  0.01295182  1.26297738  0.19232828
  H  0.57909104  1.57968756  1.07371578
  H -0.64697575  2.08594014 -0.09106457
  H -1.57321485 -0.46735604 -1.42375143
  H -2.58982421  0.64798922 -0.50534897
  H -2.56793971 -1.07812770 -0.10181788
