12
opt_min/./Product_7498_0_opt.xyz
  O  1.87629311  1.63327788 -1.00848907
  C  0.87727055  0.98974912 -1.14649392
  C -0.27680290  0.36043643 -0.54370851
  C -0.08033694  0.28187404 -1.89562146
  H -0.47509924 -0.11759306 -2.80144941
  N -1.06198735  0.02801512  0.47238773
  C -0.79780951  0.35901413  1.80649519
  C  0.27663307  1.00800990  2.22476356
  H  1.05457367  1.33291316  1.55929925
  H  0.40383113  1.23328221  3.26692785
  H -1.57461623  0.03614014  2.48304249
  H -1.90650945 -0.49696375  0.28608215
