14
opt_min/./Product_5610_0_opt.xyz
  C -1.92246700  0.74323700 -0.05333300
  C -0.76737195 -0.24689133 -0.13923647
  O  0.40233339  0.45430678  0.15237312
  C  1.56772466 -0.24753546  0.02397271
  C  2.73807710  0.27238620  0.34870647
  H  2.81316493  1.26842354  0.74268507
  H  3.64087232 -0.29325850  0.22665026
  H  1.46194505 -1.25368428 -0.36309886
  O -0.88992373 -1.30039817  0.78599432
  H -1.79339000 -1.62936589  0.78565176
  H -0.70630369 -0.67291640 -1.16532904
  H -1.77342229  1.54633420 -0.76446668
  H -1.95024303  1.15566830  0.95118133
  H -2.86676180  0.24993802 -0.26709891
