13
opt_min/./Product_11282_0_opt.xyz
  C -1.96940077  0.90587347  0.32722760
  C -0.94125190 -0.12060960 -0.11049127
  O  0.34401752  0.33428079  0.30892411
  C  1.37189268 -0.40809792 -0.06496194
  N  1.26191352 -1.46298005 -0.74333356
  H  2.12578216 -1.94077786 -0.96593490
  N  2.57023821  0.11644404  0.38203438
  C  3.65349511  0.43851424  0.67874987
  H -0.92851395 -0.25142606 -1.19803144
  H -1.13072050 -1.10013934  0.34261104
  H -1.92110985  1.04220112  1.40435992
  H -2.96401082  0.56357293  0.05691768
  H -1.77894699  1.86148278 -0.15291292
