7
opt_min/./Product_6304_1_opt.xyz
  C -1.05055200 -0.05409000  0.03658600
  H -1.55671159  0.00928087  0.98937096
  H -1.60903370 -0.48405562 -0.78214624
  C  0.38006235  0.05299269 -0.02897374
  N  1.47593942 -0.49336657  0.09594476
  H  2.29461008  0.07988172 -0.08434060
  O -0.30672771  1.14953217 -0.32108395
