7
opt_min/./Product_5594_1_opt.xyz
  N -0.89971200 -0.46153600 -0.03347200
  C  0.36125225 -0.27911700 -0.53264765
  N  1.24496757  0.51485214 -0.12202336
  H  0.94185454  1.10684631  0.64991580
  H  0.62237008 -0.94630789 -1.34618916
  H -1.27675179  0.25131581  0.57086042
  H -1.57421208 -0.96517427 -0.58370394
