17
opt_min/./Product_7109_0_opt.xyz
  C -0.86971200  0.81018300 -1.11574000
  C -0.45175962 -0.24987076 -0.14598224
  C -1.45219066 -0.91361409  0.74798740
  O -2.46885455 -1.59920398  0.03364761
  H -2.05255659 -2.20416793 -0.59086699
  H -0.92226412 -1.60221736  1.42102146
  H -1.99789014 -0.18197209  1.35349653
  O  0.79344465 -0.59993854  0.02256064
  C  1.85126900 -0.15108367 -0.58005617
  C  3.17039665 -0.72918484 -0.19418055
  H  3.65267271 -1.20921754 -1.04827325
  H  3.02723622 -1.46641058  0.59064895
  H  3.85008884  0.04251027  0.17218435
  H  1.78757778  0.62865624 -1.32133181
  H -1.95004332  0.90171677 -1.08933609
  H -0.41944410  1.77505886 -0.86697809
  H -0.56568124  0.55720185 -2.13472639
