11
opt_min/./Product_9943_0_opt.xyz
  C -1.16046700  0.75574000  0.64155000
  H -2.22244834  0.85743611  0.84549355
  H -0.66014726  1.63825945  0.26320831
  C -0.66620013 -0.58648873  0.26494123
  C  0.49882913 -0.80411672 -0.64017180
  O  0.55564194 -1.74790741 -1.39029406
  C  1.66532617  0.18802577 -0.59650633
  O  1.62500160  1.31094538 -0.19088939
  H  2.56966836 -0.26465155 -1.04416586
  H -1.38574877 -1.40543605  0.22915183
  O -0.43918634 -0.02968886  1.52655386
