14
opt_min/./Product_11225_0_opt.xyz
  N  2.73652392  0.84742343  0.98448244
  C  102.87143989  52.86194641  12.59634620
  C  9.92780227 -37.78541074  79.17980489
  C  31.14654334 -33.23994490 -85.09943096
  H -8.07056885 -14.28806675  39.05639183
  O  26.22406807 -34.20034122 -74.91402891
  C  15.00328794 -28.09362708 -29.77467567
  H -25.38443644 -14.97711937  101.89142700
  H  9.65100947  10.90806957  39.29297314
  C  9.66139614 -33.25545286 -33.07671312
  H  41.15623484  57.55199245  18.37217682
  H -38.16003304  13.78895791  88.17805227
  H  34.07129032  2.72593941 -128.32231908
  H -25.23553286  7.81213236  74.65381118
