17
opt_min/./Product_10180_0_opt.xyz
  C -2.13783700  0.41087800  0.57146000
  C -1.08269816  0.94638889 -0.39218543
  C  0.32749559  0.46742710 -0.05238853
  C  0.49199922 -1.04686437 -0.20545346
  C  1.80728175 -1.63694260 -0.00837506
  C  2.93412124 -0.96995062  0.27571813
  C  4.11178668 -0.72636055  0.54107483
  H  5.03813938 -0.35096169  0.86806444
  H  0.21343341 -1.36136065 -1.22597753
  H -0.20897983 -1.58318087  0.44503452
  H  1.04130087  0.96573280 -0.71618762
  H  0.57774194  0.75694038  0.97238225
  H -1.33885290  0.64149157 -1.41122859
  H -1.10023728  2.03923037 -0.36238178
  H -2.31949098 -0.65151504  0.40558397
  H -1.81505445  0.54325495  1.60340228
  H -3.08321730  0.93257073  0.43482281
