9
opt_min/./Product_4561_0_opt.xyz
  O  2.09272700  0.36180600 -0.42827200
  C  0.79270991  0.18603986 -0.21197210
  C -0.08610967  0.38507699  0.77284712
  H -0.10854389  0.76663095  1.76506237
  C -1.12787081 -0.17778270 -0.16878961
  H -1.55758604 -1.14484361  0.09154407
  H -1.89782199  0.50298230 -0.52679662
  O -0.07032578 -0.33706631 -1.14752925
  H  2.31203178  0.06862390 -1.32219034
