15
opt_min/./Product_8609_0_opt.xyz
  C  2.51952100 -0.39697000 -0.08638200
  C  1.41043473  0.08822139  0.43388582
  C  0.28630272  0.69297019 -0.34548714
  C -0.99966806 -0.09497756 -0.13131174
  O -0.89342129 -1.41965639 -0.60002321
  H -1.41401512 -1.53411552 -1.40225980
  C -2.33312250  0.57155189 -0.11662918
  H -3.10405097  1.01585670 -0.69975437
  C -1.89275420  0.16219301  1.04446440
  H -2.04838678  0.02580167  2.08647537
  H  0.11757384  1.72590103 -0.02813620
  H  0.53448318  0.69525056 -1.41159666
  H  1.24291416  0.04965732  1.50368368
  H  2.70245717 -0.37662549 -1.14941548
  H  3.29551153 -0.83671579  0.51564015
