13
opt_min/./Product_6164_0_opt.xyz
  C -1.07448200  0.71953200  0.22127900
  H -1.55101322  1.19585688 -0.63720057
  H -1.80912708  0.65865800  1.03207013
  C -0.54388877 -0.69340638 -0.14836284
  H -1.24787022 -1.44106365  0.21137410
  H -0.47963988 -0.78543906 -1.23367282
  C  0.86719570 -0.97887298  0.43666663
  H  1.24787159 -1.93384123  0.08021654
  H  0.80153162 -1.00861973  1.52600478
  C  1.73421617  0.17865748 -0.04478062
  H  2.56722789  0.08674888 -0.70772701
  C  1.08540200  1.23349040  0.36892906
  N -0.02582604  1.57026867  0.79229901
