8
opt_min/./Product_10046_1_opt.xyz
  N  0.93633300 -0.68972800 -0.50543400
  C  2.07984998 -1.00170613 -0.34127679
  O  3.23716482 -1.04772257 -0.39036641
  O -0.29423800 -1.20000750 -0.18215442
  C -1.25023310 -0.16161332 -0.05435034
  H -0.97436775  0.54836615  0.73051881
  H -2.17626072 -0.66855561  0.20755606
  H -1.37336095  0.36974396 -1.00102184
