14
opt_min/./Product_4432_0_opt.xyz
  C -1.33079000  0.80910400  0.19481500
  C -0.41066904 -0.37057661  0.46531680
  O -1.19487708 -1.54291204  0.40189898
  H -0.62140425 -2.31631274  0.44935176
  C  0.75397496 -0.44068995 -0.54267021
  C  1.55488951  0.82485974 -0.50477927
  O  2.82805893  0.52835642 -0.29967960
  H  3.37989030  1.32855195 -0.28454338
  H  1.36686642 -1.33304807 -0.34604007
  H  0.31619252 -0.51068861 -1.54338853
  H  0.01521115 -0.27322248  1.48006517
  H -1.79191414  0.69305178 -0.78337017
  H -0.75647005  1.73084888  0.21148904
  H -2.11251790  0.83703321  0.94897077
