9
opt_min/./Product_15_0_opt.xyz
  O  2.32055700 -0.25498000 -0.27686300
  C  1.00575096 -0.12775720 -0.18481843
  N  0.17972744 -1.18653611 -0.01200769
  C -1.00702510 -0.64311591  0.03819813
  H -1.93020654 -1.17093213  0.16312861
  N -0.91735355  0.69212423 -0.08398017
  H -1.61530133  1.41904442 -0.09265678
  N  0.38071319  1.03365398 -0.21626333
  H  2.70052339  0.62577185 -0.39652364
