19
opt_min/./Product_11362_0_opt.xyz
  C  1.63926200 -0.31510800 -1.04256300
  C  1.19946183  0.23232244  0.31440751
  C -0.29796568  0.31989460  0.44374826
  C -1.05302329 -0.83295655  1.04782958
  C -1.48603664 -1.85100937 -0.00819005
  H -2.06839968 -1.35940878 -0.78579391
  H -2.09150609 -2.63153495  0.44864720
  H -0.62022754 -2.31333448 -0.47589887
  H -1.94594098 -0.45657717  1.55522213
  H -0.42217582 -1.32679821  1.78930665
  C -0.95065295  1.38797686 -0.00023437
  O -0.31087149  2.44169559 -0.60848449
  H -0.90817666  3.19320396 -0.67286435
  H -2.02735650  1.46772173  0.08538829
  H  1.60761295  1.24057702  0.42106676
  H  1.60157380 -0.39988156  1.10963616
  H  1.18430503  0.26576987 -1.84254718
  H  1.34412650 -1.35598669 -1.15982905
  H  2.72210581 -0.24964709 -1.13936266
