13
opt_min/./Product_3292_0_opt.xyz
  C -1.45352500 -0.71348000  0.26555900
  C -0.33375203  0.26982632 -0.01149540
  C  1.02009867 -0.05128497  0.61525571
  O  2.05241922  0.54937606 -0.14699033
  H  2.68422871 -0.11517890 -0.42578785
  H  1.14137302 -1.13715628  0.67484280
  H  1.05771597  0.35088362  1.63607321
  C -0.33673832  1.09393632 -1.21497520
  H -0.17527869  1.18405232 -2.25925189
  N -0.67777018  1.71003282 -0.17909698
  H -1.28900084 -1.20770823  1.21844565
  H -1.50309844 -1.47672086 -0.50959536
  H -2.40479464 -0.19191872  0.29946791
