13
opt_min/./Product_5990_0_opt.xyz
  C -0.40482278 -1.58929192  0.14815321
  C -0.13822790 -0.11403893  0.45877573
  N  1.21061637  0.26007608  0.04485634
  C  1.92599739  1.07205879  0.75213973
  H  2.85510084  1.32550315  0.20581503
  H  1.38815553  0.03105712 -0.94058908
  C -1.10270580  0.73409958 -0.22589778
  C -1.86598717  1.43254266 -0.82572941
  H -2.54063437  2.04156787 -1.35067737
  H -0.19914078  0.07397702  1.53757500
  H -0.52650359 -1.74011798 -0.92293151
  H  0.42539629 -2.19710471  0.50188371
  H -1.31384179 -1.91701567  0.64403112
