16
opt_min/./Product_8730_0_opt.xyz
  C  1.46148900  0.05961000  0.97156300
  C  0.47651119  0.23847469 -0.15969674
  O  0.72235751  1.35445719 -0.97601178
  H  1.53319788  1.19812790 -1.46948751
  C -0.12217376 -0.97075857 -0.85179169
  H  0.12683342 -1.95576063 -0.49718013
  H -0.26148408 -0.92047468 -1.91885989
  C -0.98890593 -0.08720115  0.01523684
  O -1.36897430 -0.57457622  1.25946787
  H -2.13612740 -1.14594376  1.13201107
  N -2.00304627  0.70381152 -0.62642468
  H -1.55606813  1.47832778 -1.10231357
  H -2.61014382  1.10007649  0.08203308
  H  1.65237671  1.02585963  1.42690172
  H  2.40376563 -0.35911552  0.61774791
  H  1.04286907 -0.59951894  1.72135926
