10
opt_min/./Product_3325_0_opt.xyz
  C  1.84755212 -1.62250457  0.60151785
  C  1.02481605 -0.81746738  0.25212499
  C  0.06711976  0.11398826 -0.13129746
  C -0.05648353  1.15650208 -0.97625478
  H  0.54344811  1.68059494 -1.69532426
  O -1.35482792  1.47726070 -0.67864252
  C -1.36854409  0.38479814  0.26873914
  H -1.54237795  0.74373288  1.28214701
  H -2.10779840 -0.36577534 -0.00828101
  H  2.56142080 -2.33150683  0.89809718
