11
opt_min/./Product_5808_0_opt.xyz
  C -0.91964800 -0.75831600 -0.15063400
  H -1.31184247 -1.42545420  0.59890401
  H -0.97782827 -1.13142834 -1.15872198
  C -1.05264282  0.71686870  0.07423743
  H -1.17969789  1.35188600 -0.78649890
  H -1.55222847  1.06716438  0.96229392
  C  0.28084513  0.05452948  0.23215397
  O  1.25743659  0.28364918 -0.76847809
  C  2.49545149  0.09823465 -0.61018916
  H  2.75556834 -0.23622705  0.42806001
  H  0.69424398 -0.07213323  1.22635812
