10
opt_min/./Product_6593_0_opt.xyz
  C -1.61784600  0.15322000  0.71910000
  N -0.45504764  0.41089769 -0.05475444
  C  0.62467749 -0.19564674  0.17871367
  C  1.80315875  0.08047993 -0.66368193
  O  2.87596476 -0.44566358 -0.53265090
  H  1.61536126  0.83871505 -1.44863924
  H  0.75739863 -0.92795694  0.98594798
  H -2.02840396  1.10974221  1.04078615
  H -1.44817496 -0.50150726  1.58156188
  H -2.35436560 -0.31115653  0.06468420
