13
opt_min/./Product_2460_0_opt.xyz
  N  2.16827700 -0.73351300 -0.50656500
  C  1.00087325 -0.41665277 -0.18631666
  C -0.31281998 -1.05443999 -0.57835260
  H -0.60057404 -0.97869372 -1.62574898
  H -0.35431457 -2.09959778 -0.27494870
  C -0.99640757 -0.09653358  0.39946153
  H -1.80785692 -0.36578815  1.05458814
  C -0.70047798  1.29875025 -0.02830386
  H -0.50733057  1.48736342 -1.07814908
  H -1.20929146  2.10868398  0.47230846
  C  0.33982604  0.53736954  0.75355079
  H  0.72481298  0.87153189  1.70184260
  H  2.90111491 -0.19840833 -0.04064513
