15
opt_min/./Product_8432_0_opt.xyz
  C -0.34126700 -1.02187600 -0.71722700
  H -0.82069072 -1.97161568 -0.50826253
  H -0.10292740 -0.93787513 -1.77535989
  C -1.09895083  0.16334291 -0.06549331
  H -2.18537225  0.16594434 -0.06384228
  C -0.49946722  1.41119949 -0.60430406
  H -1.03987355  2.26761170 -0.95887144
  O  0.80027496  1.47921904 -0.64172652
  C  1.52059541  0.47954854 -0.21596504
  H  2.58465219  0.58880250 -0.28584358
  C  0.79163309 -0.71046040  0.29290833
  H  1.44178849 -1.51288049  0.62836629
  C -0.33248692 -0.19938773  1.22850674
  H -0.81013523 -1.00862081  1.76898942
  H -0.08255370  0.61704834  1.90265279
