13
opt_min/./Product_306_0_opt.xyz
  C -0.80524000 -1.06749000  0.35238300
  C  0.13892188 -0.10058283 -0.36183645
  C  1.48834886 -0.11601456  0.30948959
  O  2.08951179  0.84026033  0.70452967
  H  1.90277022 -1.14205459  0.40465671
  C -0.44133947  1.30755193 -0.41767398
  H -0.54688125  1.70528290  0.59109457
  H -1.41866902  1.30136228 -0.89681903
  H  0.22306454  1.96702347 -0.97386319
  H  0.30891746 -0.47287331 -1.38262679
  H -1.04155491 -0.69171928  1.34741175
  H -0.35244279 -2.05297314  0.45063466
  H -1.73171635 -1.16823440 -0.20998361
