9
opt_min/./Product_9095_1_opt.xyz
  O -0.08639586  2.01333194 -0.02759321
  C  0.38459990 -4.63522610  7.97158792
  C  4.78176788 -9.42823465  7.11403943
  H -19.46248004  1.81399877  1.18295851
  H  19.05597562 -7.51237203 -5.05468447
  C  2.15069944 -11.73103814  13.12912121
  C  4.85364945 -6.26826285  11.78826441
  C  5.76798416 -6.61952721  15.26973819
  O  1.84969344 -1.25008165 -3.38507037
