9
opt_min/./Product_862_0_opt.xyz
  C -1.37334100  0.19505000 -0.41094700
  H -2.00081430  0.61641645 -1.15763513
  C -0.96353724  0.10877012  0.82357709
  H -0.99877665  0.41707189  1.83993846
  C -0.24642242 -0.75635156 -0.16164991
  N  1.06040504 -0.44208977 -0.61476797
  N  1.83819583  0.37132068 -0.24735122
  N  2.68859525  1.07881713 -0.04068000
  H -0.39543151 -1.83181791 -0.20220724
