13
opt_min/./Product_3374_0_opt.xyz
  C -1.81044503  0.81951244  0.28506139
  C -4.55508038  8.72261798 -5.44896882
  N -3.51985438 -17.87106340  11.99884028
  C -4.06351506  6.70506921 -1.06489123
  C  37.16687117  31.43965664 -19.78994444
  C  1.41898484  8.17999499  13.81094140
  H -5.12709682 -28.25458278  0.07363377
  H -6.47066881 -11.71305606  5.49758909
  H  1.27349411  16.77669417  9.63839630
  H -11.16571766  8.54647928 -2.92250542
  H  7.46646276 -1.91451245  19.46760826
  H  17.09266353  19.03246547 -14.34138750
  H -5.40194639  2.59398274  6.68920613
