12
opt_min/./Product_8721_0_opt.xyz
  C  2.32555100 -0.55968900 -0.16122100
  N  1.55956262  0.42683098 -0.09232162
  C  0.31790084  0.54190167  0.39982441
  N  0.00722809  1.36778684  1.30953885
  H -0.97731920  1.45139661  1.53252973
  C -0.64346831 -0.38094152 -0.36992588
  O -0.23275703 -1.36727034 -0.94154455
  N -1.94200375 -0.04343790 -0.30809612
  H -2.62108776 -0.62805258 -0.76492172
  H -2.25914348  0.78738314  0.15962984
  H  2.20445898 -1.47442449  0.41750176
  H  3.18752165 -0.49176328 -0.81095055
