11
opt_min/./Product_10687_0_opt.xyz
  C  3.09501500  0.49730399  0.00236400
  C  1.90987310  0.36185145 -0.13926089
  C  0.51277486  0.19462346 -0.30794817
  C -0.32171868  0.26876409  0.74860656
  C -1.71126917  0.12379761  0.62356085
  C -2.90211834 -0.00401909  0.51922260
  H -3.93920419 -0.10923673  0.42413702
  H  0.06653813  0.44533802  1.74087167
  O  0.07331817 -0.10250333 -1.57953459
  H -0.15288353  0.69359822 -2.06591914
  H  4.13196609  0.60906427  0.12447956
