11
opt_min/./Product_9131_0_opt.xyz
  C  1.84108400 -0.02304800  0.10217600
  C  0.38537462  0.25873111  0.20338356
  N -0.46720987 -0.50329942 -0.31046478
  C -1.86032183 -0.21270224 -0.20800962
  H -2.35111942 -1.06040432  0.27380191
  H -2.08175123  0.71041139  0.34902738
  H -2.26733719 -0.12744426 -1.21810950
  H  0.11233289  1.17659949  0.75153180
  H  2.32854572  0.77144582 -0.46510614
  H  2.00294142 -0.97409162 -0.40135525
  H  2.28913744 -0.04921877  1.09462800
