8
opt_min/./Product_4648_0_opt.xyz
  O -1.66527234 -1.74068385  1.15668858
  C -1.51642789 -0.66838630  0.62606048
  C -1.29888054 -0.18507682 -0.65504409
  O -0.28236918  0.30210587 -1.24825878
  C  0.92050427  0.35278606 -0.70191210
  C  2.02089913  0.42583979 -0.23621567
  H  2.99062554  0.50676196  0.15510694
  H -1.90091754  0.28444011  1.12715729
