13
opt_min/./Product_10204_0_opt.xyz
  C  2.00782700 -0.72824600 -0.37683500
  C  0.53135205 -0.74203885 -0.18448015
  O -0.09712150 -1.65607733  0.29722288
  C -0.19521364  0.52633994 -0.64389554
  O  0.19750789  1.14375241 -1.60186269
  C -1.46929673  0.87494104  0.10349197
  O -1.54635155  0.42394740  1.42323725
  H -1.45745563 -0.53913573  1.42996497
  H -1.59273241  1.96071810  0.12745459
  H -2.29248834  0.46088539 -0.50855480
  H  2.37952567 -1.73846450 -0.53676165
  H  2.46809799 -0.34034607  0.53257588
  H  2.27005592 -0.08044862 -1.20991516
