15
opt_min/./Product_8444_0_opt.xyz
  C -1.02496200  0.94843700  0.11209600
  H -1.80500593  1.28159689 -0.56972192
  H -1.32457646  1.17420752  1.13238490
  C  0.39972157  1.39779947 -0.26988449
  H  0.45275238  2.00140931 -1.17151195
  H  0.95083529  1.88597100  0.52941924
  C  0.81174432 -0.07080123 -0.47025172
  C  1.80375714 -0.61350708  0.51266733
  O  2.34077056  0.01636014  1.37960482
  H  1.98268295 -1.70152055  0.40622370
  H  1.11762907 -0.35628380 -1.47844824
  C -0.60432401 -0.47992145 -0.10977639
  C -1.21586827 -1.64208781 -0.01790878
  H -2.25110271 -1.70219526  0.26841912
  H -0.70321506 -2.56439650 -0.23295332
