12
opt_min/./Product_5662_0_opt.xyz
  N  2.21334200 -0.27496100 -0.01407800
  C  0.81239082 -0.24086779  0.08639166
  C  0.00250786 -1.33230822  0.28104234
  N -1.40169586 -0.69674237  0.17232504
  H -1.87997879 -1.16135578 -0.60239350
  H -1.91666189 -0.91352692  1.02816433
  C -1.24160011  0.73413653 -0.05221848
  H -2.10307345  1.36567118 -0.14269136
  C  0.07767890  0.98275610 -0.10669943
  H  0.52654305  1.94788016 -0.26552234
  H  2.65901139  0.55683955  0.35320492
  H  2.59711535 -1.11471192  0.39851345
