16
opt_min/./Product_1481_0_opt.xyz
  C  1.84914200  0.23238800  0.01215200
  C  0.40355391  0.14785259  0.45889326
  H  0.31118554  0.47773456  1.49871280
  C -0.62466489  0.84022621 -0.46013938
  C -1.81923276  1.49215729 -0.03776295
  H -1.91434659  1.46774515  1.06359325
  H -0.23149325  1.12355395 -1.43646762
  C -1.46151495 -0.49913850 -0.54743779
  H -1.64894787 -0.81103152 -1.57103243
  H -2.41520729 -0.48480159 -0.01205364
  C -0.31878322 -1.18651106  0.21488362
  H  0.24959977 -1.86418217 -0.42115700
  H -0.63088052 -1.72024725  1.11344843
  H  1.94932025 -0.08648710 -1.02432769
  H  2.20792824  1.25789189  0.09159627
  H  2.48222313 -0.40074552  0.63262068
