8
opt_min/./Product_3945_1_opt.xyz
  O  2.65488900  0.67916100  0.04621598
  C  1.61376328  0.17825797  0.00956222
  N  0.65051769 -0.51241829 -0.10804941
  C -0.77014442 -0.51422587 -0.00970960
  C -1.32276918  0.82603206 -0.02634103
  N -1.74003900  1.88874169 -0.03805016
  H -1.07462775 -1.00207405  0.92161838
  H -1.16069306 -1.08156142 -0.86043318
