14
opt_min/./Product_3357_0_opt.xyz
  O -1.19759500  1.36807500  0.03565000
  C -1.23008017 -0.00196996  0.33347778
  C  0.05216174 -0.61815146 -0.24337390
  C  1.26623176 -0.10171515  0.46043268
  C  2.24693695  0.56698324 -0.11232632
  H  2.23867299  0.79276825 -1.16564994
  H  3.09851147  0.91899672  0.44281902
  H  1.29489541 -0.30965936  1.52222781
  H -0.02090779 -1.70134709 -0.13169565
  H  0.10951786 -0.36438427 -1.30303701
  O -2.38849031 -0.59465678 -0.18501048
  H -2.33433822 -0.58222733 -1.14763166
  H -1.29136053 -0.17257638  1.41574683
  H -2.03278642  1.76687306  0.30130463
