12
opt_min/./Product_199_0_opt.xyz
  O -2.21499800  0.54103900  0.07705800
  C -1.14483369 -0.35326955  0.02801419
  C  0.17858341  0.38417626  0.10024177
  O  0.18647459  1.58564319  0.26612875
  H  2.74116441  1.10621231  0.26670894
  C  1.38454372 -0.45638946 -0.01320676
  C  2.60699547  0.04958222  0.09624538
  H  3.49266573 -0.55838460  0.02772272
  H  1.21046439 -1.50996285 -0.18477802
  H -1.20359759 -0.95209089 -0.88832021
  H -1.18063211 -1.04074931  0.88962893
  H -1.82118296  1.41986261  0.23263171
