15
opt_min/./Product_11302_0_opt.xyz
  O  2.61556000 -0.13820300  0.66821300
  C  1.73786628  0.84764711  0.19955048
  C  0.39789795  0.28738912 -0.28967106
  O -0.34548761 -0.15964660  0.82038234
  C -1.49017939 -0.88662601  0.51127872
  C -2.56914892 -0.03790293 -0.17282981
  C -3.63908550  0.43424794  0.36936499
  H -2.35340554  0.18662546 -1.21202016
  H -1.88377588 -1.25190892  1.46313254
  H -1.26960469 -1.73911495 -0.15057955
  H -0.14697885  1.08242888 -0.82180884
  H  0.57811618 -0.54561126 -0.99163532
  H  1.55079774  1.50449693  1.05055865
  H  2.19303320  1.42166952 -0.62066187
  H  2.80613969 -0.75832404 -0.04705951
