13
opt_min/./Product_2764_0_opt.xyz
  C -1.42256400  0.58214600  0.42615000
  C -0.74529924 -0.71257602  0.01797543
  H -1.15556860 -1.59671299  0.48899932
  C  0.73211747 -0.82344038 -0.29146503
  C  1.71152855  0.33260028 -0.22098142
  H  1.83229202  0.80353723 -1.19623353
  H  2.68260061 -0.02164852  0.11322017
  H  1.35005038  1.09319875  0.46876631
  H  1.14948175 -1.77794310  0.00199715
  C -0.27053299 -0.81406486 -1.38234659
  H -0.95071242  0.97541104  1.32621979
  H -2.47335190  0.39949970  0.63393234
  H -1.34169839  1.31806349 -0.37048603
