13
opt_min/./Product_5997_0_opt.xyz
  C -0.95887530  1.17254436 -0.28535134
  C -12.14738150  9.64695148 -8.82963469
  C -22.56438262 -5.17453735  3.09810412
  C -3.36664119 -5.60480076 -3.34203972
  H -1.45536581  2.56182775 -1.28402376
  H  0.61343781  5.38984087 -1.19179741
  C -17.91319625  12.21836374  11.18180255
  H -9.58556298  5.01311194 -2.83704941
  N -11.15971028  15.04217400 -14.07053590
  H  20.26447837  14.72585799 -24.21571096
  H -24.83122684 -4.72035303  4.63454281
  H  3.33120866  2.78480254  5.16427956
  H  2.63588675 -2.14516874  0.79946417
