16
opt_min/./Product_7607_0_opt.xyz
  C  0.92084800  1.30341100 -0.90251100
  C  0.15362733  0.00670133 -0.66426311
  N  0.94496075 -0.92080855  0.14182823
  C  2.23355988 -0.95049883  0.09289430
  H  2.61162928 -1.73805517  0.77354004
  H  0.34577883 -1.54709606  0.68768075
  C -1.18910381  0.27846591  0.02144181
  C -2.09247301 -0.91893713  0.11386165
  O -1.81553203 -2.03919204 -0.21088908
  H -3.08952080 -0.67348944  0.53102560
  H -1.73096916  1.05532853 -0.52421759
  H -1.02979353  0.65853156  1.03640438
  H -0.04759842 -0.47365069 -1.63374394
  H  1.88659545  1.07148785 -1.33972146
  H  0.36677557  1.95687728 -1.57058017
  H  1.09030348  1.81543509  0.04149616
