16
opt_min/./Product_7602_0_opt.xyz
  C  2.94316500 -0.29275900 -0.62922300
  C  1.51102784  0.00879562 -0.87883933
  N  0.79255139  0.54294042  0.00096008
  C -0.59849460  0.78216361 -0.26291002
  C -1.45344140 -0.29542187  0.43253258
  C -2.91162099 -0.09286558  0.11922373
  O -3.37443432 -0.03439968 -0.98495647
  H -3.56608819  0.02743508  1.00798547
  H -1.15403709 -1.26975007  0.04072458
  H -1.27059770 -0.27858829  1.50496030
  H -0.83093872  0.77221277 -1.34088949
  H -0.84982176  1.75974321  0.15351613
  H  1.13539825 -0.25124400 -1.88484918
  H  3.56255116  0.23007971 -1.35559570
  H  3.22246271  0.01047915  0.37501887
  H  3.12091882 -1.35957562 -0.75159109
