17
opt_min/./Product_10881_0_opt.xyz
  C  2.52063600 -0.52818000 -0.26432900
  C  1.14210652 -0.00011618 -0.65684324
  H  1.14520730  0.13408112 -1.76052353
  O  0.11040618 -0.90770907 -0.27806138
  C -0.91573603 -0.20025386  0.41129674
  C -2.29367989 -0.58148007 -0.13209285
  H -2.23961995 -1.57961143 -0.55398533
  H -3.03401831 -0.58533128  0.65842689
  H -2.61608356  0.09865075 -0.91625059
  H -0.85567724 -0.47692884  1.47651023
  C -0.55006941  1.29569818  0.25241503
  H -1.10634469  1.74263998 -0.58164757
  H -0.74901874  1.90702255  1.12817794
  C  0.82919544  1.37889416 -0.25930918
  H  3.28211212  0.16671861 -0.60178383
  H  2.58427859 -0.63494403  0.81360365
  H  2.68695791 -1.50088044 -0.71721807
