14
opt_min/./Product_9308_0_opt.xyz
  C  3.94889989  2.85751049  1.67633715
  C  2.78059386  3.05482204  0.71754768
  C  2.29841742  1.75002217  0.13556233
  O  3.10192123  0.71512717  0.19549199
  C  2.89429192 -0.46141889 -0.28597559
  H  2.02317472 -0.69190327 -0.87779268
  H  3.67471396 -1.17831959 -0.12254334
  C  1.01530499  1.63318916 -0.39210820
  N  0.13933296  1.54425121 -1.13805724
  H  1.93923019  3.54160284  1.21797805
  H  3.10182596  3.72017460 -0.09325333
  H  3.67455090  2.20883897  2.50526751
  H  4.26217503  3.81735441  2.07819618
  H  4.79099184  2.41058101  1.15282170
