11
opt_min/./Product_6340_0_opt.xyz
  O  2.50270600 -0.87988500 -0.28414400
  C  1.30006756 -0.28406448 -0.23677690
  C  1.12470870  1.05443409  0.04393410
  C -0.20954776  1.40899722  0.18788679
  H -0.46646980  2.44974893  0.33278280
  C -1.24007295  0.44378873  0.15973734
  H -2.26474566  0.67945373  0.39918135
  C -0.92810812 -0.77989097 -0.34432748
  H -1.63995265 -1.54631670 -0.60990326
  O  0.32915353 -1.13317435 -0.62083223
  H  3.17136135 -0.22835979 -0.03392664
