16
opt_min/./Product_1507_0_opt.xyz
  C  1.59612600 -0.14546000 -0.67235600
  C  0.46604994  0.12222952  0.29867880
  C  0.61676034  1.19376593  1.23085738
  H -0.01584865  1.04102655  2.12377296
  C -0.72026375  1.00076971 -0.28866923
  H -0.50561359  1.30962129 -1.30885122
  H -0.96730628  1.90107413  0.28899352
  C -1.64715891 -0.20122214 -0.08026120
  H -2.47544423  0.00073180  0.60123476
  H -2.06389665 -0.59636000 -1.00679974
  C -0.52235074 -1.04818584  0.51680650
  H -0.66592578 -1.31257397  1.56621814
  H -0.26197346 -1.95184467 -0.03255260
  H  2.36962594 -0.73477150 -0.17980087
  H  2.04195426  0.79582559 -0.98816086
  H  1.24416767 -0.70017473 -1.53899470
