15
opt_min/./Product_8916_0_opt.xyz
  C  2.19069200  0.96415500  0.30800600
  N  0.89428527  0.41289632  0.14914058
  C  0.72097237 -0.61743333 -0.55635553
  C -0.55397263 -1.25285467 -0.79157849
  C -1.78932080 -0.94043097 -0.35318394
  C -2.25086108  0.13479072  0.50125572
  N -1.50380496  1.01680777  1.00241121
  H -1.97978759  1.70527567  1.58048494
  H -3.34362599  0.09539376  0.66605781
  H -2.59089824 -1.59102008 -0.68356227
  H -0.48174935 -2.12434780 -1.43181922
  H  1.57014846 -1.12144242 -1.05881572
  H  2.40427380  1.02565190  1.37527465
  H  2.98834754  0.39909937 -0.20196179
  H  2.17105449  1.98524962 -0.07736312
