12
opt_min/./Product_2498_0_opt.xyz
  C  1.20057700 -0.54910600  0.07853000
  H  2.10601135 -1.10407872  0.26584980
  C  0.01533312 -1.13229666 -0.09353225
  H -0.10909726 -2.20449495 -0.05017092
  C -1.24513189 -0.31474280 -0.43562344
  H -1.23513906 -0.21863736 -1.52797814
  H -2.15838910 -0.83257586 -0.15128244
  C -1.08081337  0.97489731  0.30218159
  H -1.76998587  1.31554356  1.05675048
  C  0.11985723  1.48255454  0.06505940
  C  1.26859146  0.90124681 -0.20954413
  H  2.14488227  1.33704540 -0.65264375
