12
opt_min/./Product_5560_0_opt.xyz
  C  2.71958300 -0.36419800  0.38662500
  O  1.47778097 -0.52593956  0.50584878
  C  0.48223370  0.38533830 -0.02125337
  C -0.83013545 -0.35364580 -0.15026622
  H -0.73420646 -1.33144008 -0.61464283
  C -1.94661078 -0.12981047  0.77001244
  H -2.66013134 -0.91781431  0.96674516
  H -1.83412994  0.60454027  1.55698028
  O -1.94544433  0.38814840 -0.53210917
  H  0.38137855  1.23553995  0.66096240
  H  0.80112544  0.76536165 -0.99780778
  H  2.99712920  0.54848250 -0.19582873
