13
opt_min/./Product_10407_0_opt.xyz
  C  2.26176100 -0.01830800  0.18544800
  C  0.93137580 -0.17279894  0.04347612
  C  0.08014488 -1.31298663  0.10735568
  H  0.31154137 -2.30542001  0.41591638
  N -1.20749567 -0.89254752 -0.07260948
  H -2.00295462 -1.50633848 -0.15469138
  C -1.23754155  0.40608321 -0.36463719
  O -2.34542834  1.16346801 -0.51054046
  H -2.69712155  1.49288311  0.33007598
  N  0.03782437  0.88244240 -0.25263017
  H  0.30669947  1.84187104 -0.37004159
  H  2.73191970  0.93811688  0.07170212
  H  2.88232338 -0.86589323  0.38857938
