16
opt_min/./Product_6365_0_opt.xyz
  C -2.12088100 -0.53881900  0.07009600
  C -0.70491379 -0.38322820  0.60945987
  C  0.20817980  0.32972834 -0.40772685
  O -0.27742779  1.61922044 -0.70779449
  H -0.20441472  2.17095708  0.08192096
  C  1.61047447  0.37682364  0.12715408
  C  2.61193757 -0.35897094 -0.31309648
  H  2.48801192 -1.06031133 -1.12440846
  H  3.59712424 -0.29517985  0.11985058
  H  1.74907576  1.08033401  0.94069761
  H  0.18076709 -0.21211972 -1.35940332
  H -0.27024065 -1.36061894  0.83810228
  H -0.72698985  0.19862459  1.53840607
  H -2.13305121 -1.24569965 -0.76013216
  H -2.79234009 -0.90346851  0.84662596
  H -2.48659802  0.42179003 -0.29322792
