14
opt_min/./Product_3589_0_opt.xyz
  C -1.53936700 -0.14272900  0.29158700
  H -2.20294829 -0.28961381 -0.55265916
  H -2.12345718 -0.10633748  1.20455560
  C -0.55506521  1.02898369  0.11880828
  H -0.52524784  1.72700698  0.95041955
  H -0.66738583  1.59464866 -0.80252447
  C  0.62403670  0.04041907  0.10223500
  O  1.55460930  0.23547815  1.17697302
  C  2.79903414  0.36067153  1.03622517
  H  3.12439685  0.30094096 -0.03628321
  H  1.16860712 -0.00280474 -0.84957621
  C -0.35316117 -1.12474475  0.33547971
  H -0.34353044 -1.87537500 -0.44940695
  H -0.21023428 -1.62470406  1.28933357
