18
opt_min/./Product_6809_0_opt.xyz
  C -1.58649400  0.14482000 -0.09829000
  H -2.50548811  0.28483400  0.47189715
  H -1.74393325  0.57366702 -1.08774070
  C -1.15538759 -1.31995894 -0.19254296
  H -1.61840453 -1.83473213 -1.03316515
  H -1.43536060 -1.84963915  0.71533146
  C  0.37274031 -1.25502391 -0.32294354
  H  0.65772890 -1.13964708 -1.36864760
  H  0.84267974 -2.16359015  0.04810515
  C  0.80910443 -0.01874595  0.47645463
  C  1.98427889  0.73130558 -0.14875236
  H  1.75024033  1.01627563 -1.16978728
  H  2.87397188  0.10907448 -0.15417942
  H  2.18516490  1.62934556  0.42498211
  H  1.09675663 -0.30371988  1.49263895
  C -0.41783711  0.85563291  0.54794182
  N -0.37887014  1.99249473  1.07662657
  H -1.25553322  2.50696234  1.08553365
