10
opt_min/./Product_410_0_opt.xyz
  C -1.20547400 -0.01606500 -0.21567700
  C  0.18085085 -0.21496077  0.39823756
  H  0.07127805 -0.75394829  1.34362321
  N  1.08588989 -0.93925617 -0.45752150
  N  2.06776494 -0.24982732 -0.68151918
  N  1.94742726  0.99558411  0.01852365
  N  0.89240736  1.01947491  0.62914924
  H -1.80911851  0.59290587  0.44980079
  H -1.11481496  0.48326047 -1.17791892
  H -1.66261046 -0.98950955 -0.36546993
