12
opt_min/./Product_5667_0_opt.xyz
  N -1.84574800  0.48407100  0.06321600
  C -0.51742085  0.22461961  0.03374484
  C  0.54198738  1.07672043  0.02505222
  H  0.52285068  2.14833348  0.04678541
  C  1.70910138  0.24693522 -0.02901882
  H  2.71919538  0.62100349 -0.04455976
  N  1.47514073 -1.01563539 -0.05464471
  C  0.04192577 -1.17318081 -0.02220943
  H -0.23318359 -1.77962207  0.84349439
  H -0.28629793 -1.70295264 -0.91864850
  H -2.50815334 -0.26423098  0.13809202
  H -2.17196366  1.42801137  0.15210852
