16
opt_min/./Product_7192_0_opt.xyz
  C  2.64901000 -0.07807700  0.23161800
  C  1.14864809 -0.00819280  0.40431929
  C  0.36976313 -0.06402556 -0.82689731
  C -0.96952858 -0.02914556 -0.96041565
  C -1.93755697  0.06895382  0.09749957
  C -3.25017302  0.09826224 -0.13103012
  H -3.96250920  0.17234731  0.67270107
  H -3.65801217  0.04992961 -1.12914212
  H -1.54737643  0.11970632  1.10301056
  H -1.38189432 -0.08149687 -1.96233313
  H  0.96186276 -0.14179663 -1.72942189
  N  0.57757656  0.10880864  1.53224941
  H  1.22378035  0.14033526  2.32024738
  H  2.93501964 -0.39747362 -0.76578380
  H  3.07562404  0.90837059  0.41488234
  H  3.07473124 -0.76811501  0.95963326
