9
opt_min/./Product_5937_1_opt.xyz
  N  1.08042900 -1.42130900  0.20705600
  C  0.37537997 -0.40718945  0.05386109
  C -1.10842901 -0.13270965  0.15171325
  H -1.53804137 -0.22585017  1.14910293
  H -1.73931048 -0.62891308 -0.58378463
  O -0.85842177  1.24658261 -0.19496966
  C  0.48799881  1.07119910 -0.30321763
  O  1.34102457  1.85301446 -0.57101482
  H  2.07908199 -1.28245238  0.06445719
