13
opt_min/./Product_11826_0_opt.xyz
  C -1.66536200  0.67140100  0.20402800
  C -0.85634472 -0.58919403  0.21770769
  O -1.28647898 -1.69741214  0.08817747
  C  0.67154625 -0.34938193  0.38080444
  C  1.28382148 -0.55358693 -0.99915154
  O  1.42779407 -1.59885333 -1.55545106
  H  1.58814660  0.42189086 -1.43470889
  O  0.93604470  0.93882272  0.86701119
  H  1.83298181  0.96158674  1.22256337
  H  1.02581807 -1.14691293  1.04570442
  H -1.30485371  1.37662115  0.94500997
  H -2.71429397  0.42789305  0.35915273
  H -1.53531947  1.11810080 -0.78177319
