12
opt_min/./Product_780_0_opt.xyz
  N  2.23627700  0.29251700  0.14253500
  C  0.96637750 -0.03328641 -0.23520497
  O  0.96076657 -0.80733806 -1.34554399
  H  0.05775483 -1.09591282 -1.53366855
  C -0.13366918  0.34120896  0.46017382
  C -1.47923383 -0.00489550  0.12805904
  N -2.44751874  0.40250847  0.83970964
  H -3.36653446  0.11532154  0.51067486
  H -1.61299742 -0.62014514 -0.78462973
  H -0.00729724  0.94872597  1.34002586
  H  2.36348999  1.05045569  0.78873416
  H  2.95889260  0.14175618 -0.54142710
