14
opt_min/./Product_3593_0_opt.xyz
  C  0.78645100 -0.74825700 -0.00621400
  H  0.78470588 -1.27862857  0.94661254
  H  1.43427178 -1.30141190 -0.68517636
  C  1.31288598  0.69177207  0.17942151
  H  2.17823042  0.87934652 -0.45932732
  H  1.65430294  0.84659362  1.20783678
  C  0.35016759  1.83311117  0.01844403
  O -0.89658263  1.60451728  0.09342749
  C -1.44696439  0.26654401  0.25177172
  H -2.48777250  0.33588366 -0.07378414
  H -1.40986115  0.02363464  1.31613143
  C -0.63292047 -0.71399919 -0.57167883
  H -0.61652961 -0.36578768 -1.60601188
  H -1.08880997 -1.70527517 -0.54715950
