9
opt_min/./Product_10423_0_opt.xyz
  C -0.64371701 -0.36368077 -0.56272608
  C -1.72093200  0.03350662  0.37798754
  O -2.01866398  1.15437998  0.67414237
  H -2.25576252 -0.84337599  0.80554253
  C  0.60507149 -0.08437211 -0.33442547
  C  1.83632583  0.18517436 -0.04735252
  H  2.43622761 -0.48095420  0.55003519
  H  2.30963854  1.07973877 -0.41601996
  H -0.94233975 -0.95179813 -1.41824961
