15
opt_min/./Product_11879_0_opt.xyz
  C -1.11748700 -0.64486900 -0.64572600
  N -0.01130637  0.08184873 -0.08133394
  C -0.19432349  0.94786378  1.06705708
  H -0.04698784  1.99997468  0.76977667
  H -1.20251243  0.82803305  1.46292248
  C  1.27329801 -0.12947471 -0.47543567
  H  1.41268826 -0.55086926 -1.46015904
  C  2.30306243  0.10405123  0.37935768
  H  3.33538628  0.01158514  0.09441249
  N  2.03707747  0.22659724  1.71407380
  C  0.86380121  0.53713790  2.07914901
  H  0.60373965  0.45138150  3.12569045
  H -0.78488748 -1.60954311 -1.02905718
  H -1.87619881 -0.81919161  0.11748205
  H -1.58507832 -0.08521000 -1.46439329
