11
opt_min/./Product_11755_0_opt.xyz
  C  1.85290300 -0.15809500 -0.07911600
  C  2.70423192 -1.12335382 -0.23231278
  C  0.42672458  0.00570129 -0.01036738
  C -0.59468320 -0.92432157 -0.10408035
  H -0.49534812 -1.98135292 -0.25190715
  C -1.77336231 -0.18641898  0.03246368
  H -2.78666719 -0.52624076  0.01723467
  N -1.50812668  1.09858912  0.20310966
  N -0.18983699  1.20414339  0.17357179
  H  0.23895539  2.10900034  0.28578786
  H  2.42022821  0.77214119  0.01668478
