13
opt_min/./Product_4566_0_opt.xyz
  C  2.39827700  0.16152200  0.33011800
  C  1.18881525 -0.28681779  0.60853214
  C  0.02358385 -0.20458521 -0.32871886
  N -1.08430270  0.46805344  0.33485091
  C -2.34585091  0.38149960 -0.28081897
  H -2.45626956 -0.13821254 -1.23191011
  H -3.01660357  1.22187419 -0.14270770
  O -2.09727179 -0.40636305  0.81973010
  H -0.27509880 -1.21733540 -0.64185952
  H  0.28356390  0.37523357 -1.21679714
  H  0.96738143 -0.74820658  1.55975830
  H  3.20722960  0.07053619  1.03416396
  H  2.62206638  0.62701732 -0.61639384
