12
opt_min/./Product_1694_0_opt.xyz
  C  2.59671396 -0.79405493 -0.44525447
  C  1.63918771  0.16575864 -0.65222490
  C  0.42192232  0.10101099 -0.00865692
  C -0.98901479  0.46275299 -0.36011846
  H -1.19545317  1.53331574 -0.37007849
  H -1.38080438  0.00136949 -1.26692445
  C -1.30350365 -0.28353268  0.93847928
  H -1.90616384 -1.19073262  0.84509471
  H -1.67423025  0.32988864  1.76392902
  O  0.08071887 -0.59443612  1.11057006
  H  1.66114425  0.78500857 -1.54541695
  H  2.61230309 -1.20607494  0.57179581
