14
opt_min/./Product_7903_0_opt.xyz
  C -2.07440300 -1.05992700 -0.00784500
  C -0.78987928 -0.39889636 -0.20269977
  C  0.47747195 -0.16193319 -0.03853633
  C  1.87756610 -0.29803125  0.39271626
  O  2.75691894 -0.40251593 -0.70438545
  H  2.51245494  0.27176167 -1.34933149
  H  2.00587227 -1.19701329  1.00117197
  H  2.13796182  0.58937249  0.99836943
  N -0.28496731  0.84911553 -0.78230953
  O -0.60615595  2.02026775 -0.01871992
  H -0.72372044  1.81863640  0.92350552
  H -2.85738076 -0.30453468  0.07566393
  H -2.06590829 -1.68626706  0.88215674
  H -2.29872166 -1.67856189 -0.87700005
