14
opt_min/./Product_8081_1_opt.xyz
  C  0.80400400  0.14112700 -0.77546700
  C  1.86621018  0.37472654  0.26248067
  O  2.19969445 -0.41843179  1.09702821
  H  2.35907171  1.36516007  0.20351363
  C -0.43511379 -0.54651925 -0.18568408
  C -1.14198543  0.36399486  0.81926491
  H -1.48178798  1.26746670  0.31983223
  H -2.00327083 -0.14323384  1.24925663
  H -0.46411815  0.63470565  1.62375465
  O -1.27543173 -0.85996260 -1.28000860
  H -2.04139443 -1.34397198 -0.95587691
  H -0.11565633 -1.46951581  0.32072322
  H  0.51459194  1.06742215 -1.26763506
  H  1.22868716 -0.52570510 -1.52895406
