13
opt_min/./Product_986_0_opt.xyz
  C  0.66178800  1.30897200 -0.64219800
  N  0.44125723  0.24949521  0.08023037
  C  1.56903829 -0.58793197  0.45574990
  H  1.58745602 -1.48540735 -0.16501864
  H  2.50349490 -0.04646516  0.32393091
  H  1.47712932 -0.89107722  1.49771134
  C -0.77246833 -0.16360544  0.51820934
  C -1.98955827  0.45411778  0.18735486
  O -2.15640650  1.46252854 -0.49559864
  H -2.86353232 -0.07784408  0.61269033
  H -0.78032270 -1.05132675  1.12670706
  H -0.16482878  1.92762709 -0.93764526
  H  1.65976428  1.53549173 -0.96838731
