14
opt_min/./Product_3171_0_opt.xyz
  O  1.57289500 -0.22537000 -1.11531700
  C  0.47641535 -0.37022498 -0.32651534
  C  0.34733504 -1.01911889  0.82211872
  H  1.12445322 -1.53971501  1.35439153
  C -0.80971763  0.24120422 -0.80174279
  H -0.68697986  1.30539241 -1.00064751
  H -1.11883955 -0.23206736 -1.73498568
  C -1.79490021 -0.03832633  0.34747447
  H -2.10087161  0.89122434  0.82316338
  H -2.69244204 -0.53090203 -0.02147171
  C -1.04772803 -0.93179333  1.36028150
  H -1.05031910 -0.49350778  2.36114659
  H -1.50295081 -1.92150375  1.44365216
  H  2.32497955 -0.67080490 -0.70876092
