16
opt_min/./Product_1871_0_opt.xyz
  C -1.25347100  0.71260500  0.51346500
  C -0.89095172 -0.25773034 -0.60578906
  C  0.50467984 -0.86296230 -0.38606850
  C  1.58548081  0.16556080 -0.44513714
  C  2.42999276  0.42030675  0.53728759
  H  2.39715717 -0.11180121  1.47258798
  H  3.19842438  1.16930936  0.44377844
  H  1.65416296  0.72359109 -1.37048235
  H  0.66147637 -1.60759543 -1.17033628
  H  0.51734001 -1.37870802  0.57348500
  O -1.81787159 -1.32583108 -0.70519019
  H -2.62346430 -1.08723892 -0.24091428
  H -0.89178501  0.28478371 -1.56653122
  H -2.24214599  1.13682759  0.34456494
  H -0.53401002  1.52222585  0.55370312
  H -1.25028367  0.19861270  1.47046721
