14
opt_min/./Product_2153_0_opt.xyz
  C -1.02270300 -0.95171900 -0.47559700
  C -0.38977673  0.06768334  0.45568012
  H -0.84853895  0.00883134  1.44216138
  C -0.25533252  1.49366844 -0.10859172
  H -0.67994480  1.66359059 -1.09624140
  H -0.56190226  2.27951952  0.58986771
  O  1.17456764  1.39068346 -0.13239611
  C  1.15894765  0.09155247  0.45381824
  O  1.77322821 -0.85709935 -0.34614270
  H  2.56640653 -1.20813649  0.06095059
  H  1.61469051  0.12192460  1.45581073
  H -0.94079096 -1.94315519 -0.03307135
  H -0.49712898 -0.97283092 -1.42306811
  H -2.06898200 -0.71949909 -0.63562968
