13
opt_min/./Product_10376_0_opt.xyz
  N  2.76180000  2.24372801  1.46437799
  C  2.35412738  1.35589391  0.87292074
  C  1.84441705  0.21191833  0.14903857
  N  0.58847312  0.52021261 -0.49083543
  C -0.59232874  0.57096265  0.37821429
  C -1.66109284  1.39705745 -0.04267596
  H -2.38832712  1.52462635  0.77581402
  H -0.41748884  0.26044647  1.41821781
  C -0.34508633 -0.51284518 -0.67077305
  H -0.15526873 -1.51004331 -0.27551412
  H -0.92475437 -0.47053362 -1.58015745
  H  1.77372345 -0.63354460  0.85873413
  H  2.56158073 -0.05528562 -0.63537100
