15
opt_min/./Product_11200_0_opt.xyz
  C  1.93992200 -0.05457200  0.72564600
  C  1.16622402 -0.16944885 -0.58542758
  H  1.87800593 -0.25903506 -1.41268988
  O  0.18518130 -1.21998924 -0.60853737
  C -0.82312278 -0.22642860 -0.82500046
  C -1.85804350 -0.12988539  0.31031071
  O -2.78865995  0.88287757  0.08265176
  H -2.31846568  1.71573334 -0.03936346
  H -2.40788842 -1.07137950  0.36324283
  H -1.32893384  0.01962349  1.26289544
  H -1.33970253 -0.36150333 -1.77978391
  C  0.15325944  0.91592723 -0.81469029
  H  1.24785033 -0.00874135  1.55947071
  H  2.54889440  0.84247619  0.70611812
  H  2.57558376 -0.92602601  0.84949097
