10
opt_min/./Product_7623_1_opt.xyz
  N  1.80747000 -0.18957900 -0.71144300
  C  0.93956928  0.01415876  0.16594680
  C -0.40427748  0.55315767 -0.22582774
  C -1.45312874 -0.47195300  0.13097752
  O -2.11410021 -1.07923115 -0.65727927
  H -1.55430250 -0.64354765  1.22221589
  H -0.41825098  0.75349482 -1.29561432
  H -0.59742312  1.46414392  0.34358514
  H  1.06077632 -0.18670247  1.24064495
  H  2.69395418 -0.56844848 -0.38756484
