14
opt_min/./Product_2983_0_opt.xyz
  C  2.66185400  0.58008900  0.47837100
  C  1.62194629 -0.43666794  0.12593148
  O  0.49670281  0.17879491 -0.17469555
  C -0.61084193 -0.64742636 -0.51250896
  C -1.70569877 -0.46621930  0.54161592
  O -2.21763054  0.84013127  0.54935711
  H -1.47357190  1.45212299  0.61666859
  H -1.29865578 -0.72790682  1.52987256
  H -2.54374451 -1.12843547  0.31748744
  H -0.28502697 -1.69185822 -0.56368894
  H -0.97806299 -0.31823928 -1.48945302
  H  2.99070002  0.36950812  1.49624580
  H  3.52386073  0.41823975 -0.16824201
  H  2.32952052  1.61801441  0.39748586
