15
opt_min/./Product_5518_0_opt.xyz
  C  2.56137400  0.61127100  0.23336100
  C  1.46783395 -0.35467695 -0.05314811
  N  0.26720669  0.00304509 -0.02606888
  C -0.77899258 -0.91371225 -0.37083427
  O -1.88943734 -0.76650658  0.46088216
  C -2.49953538  0.50275094  0.36079226
  H -1.79245022  1.29728551  0.59527957
  H -2.89225579  0.66512625 -0.65014389
  H -3.31644064  0.51118307  1.07613289
  H -0.48158751 -1.97241631 -0.29267714
  H -1.06244253 -0.70415580 -1.42050255
  H  1.76501715 -1.38662823 -0.31562776
  H  2.18073896  1.42832042  0.83314091
  H  2.93044214  1.02408351 -0.70152691
  H  3.38660248  0.12410273  0.74138795
