7
opt_min/./Product_7913_1_opt.xyz
  C  0.92577354 -0.28343341  0.59361919
  N  7.69357333  0.52731192  10.45890952
  H -4.53561537  5.49054038 -9.98171210
  N  25.37941776 -5.65105695 -16.96097075
  C -9.56335379  5.56137878  4.59180698
  O -0.52058073 -3.69659657  14.72422785
  H  2.70001087  11.08476903 -0.28235841
