10
opt_min/./Product_8637_0_opt.xyz
  N -0.98203200 -0.66047600  0.85645600
  H -0.88667058 -1.38952959  1.53358319
  C -1.61655353 -0.09960084 -0.14246747
  O -2.54651696 -0.11942517 -0.87635300
  C -0.34455748  0.54105511  0.31250683
  C  0.92065288  0.39846331 -0.47330150
  C  1.94201088 -0.28943002 -0.07778423
  O  2.85744843 -0.91406881  0.27403727
  H  0.96736473  0.89959689 -1.42778738
  H -0.37177527  1.41799823  0.95894542
