12
opt_min/./Product_3496_0_opt.xyz
  O  2.26726500 -1.26229300  0.15983600
  C  1.90146270 -0.14504863 -0.03532560
  C  0.49329499  0.39449979  0.02560221
  C -0.61749548 -0.57485579  0.42321746
  C -1.96409543  0.10768035  0.51416185
  H -1.95534941  0.83114772  1.32522953
  H -2.73461559 -0.62915565  0.70959831
  H -2.19355910  0.64147929 -0.40199470
  O -0.46269694 -1.74120314  0.63769969
  H  0.49210975  1.24718291  0.70908952
  H  0.25448025  0.80239217 -0.96005473
  H  2.63450243  0.65806789 -0.28087684
