13
opt_min/./Product_9675_0_opt.xyz
  C -1.66542100  0.48548700  0.63388600
  C -0.44980254  0.41849360 -0.24995203
  N  0.70509733  0.13563014  0.43108529
  C  1.75392704 -0.00102981 -0.33315838
  C  3.06814865  0.06829336 -0.20275220
  O  4.14376664 -0.61366489 -0.24313186
  H  4.04354077 -1.59261115 -0.20862152
  H  1.49710267  0.17417612 -1.41614377
  N -0.42675432  0.58399367 -1.51471924
  H -1.31552003  0.79807964 -1.95134837
  H -1.38192541  0.84244752  1.61953374
  H -2.08021318 -0.51678550  0.73974617
  H -2.42596372  1.13361197  0.20353997
