17
opt_min/./Product_8622_0_opt.xyz
  C -2.29809800  0.07259600 -0.07504200
  C -0.87188404  0.14011602  0.45309085
  H -0.91088319  0.08300431  1.55328467
  C  0.08333271 -0.94630323 -0.07151649
  H -0.08275847 -1.08005358 -1.14304888
  H -0.05178121 -1.90922761  0.41609083
  C  1.48365348 -0.35387701  0.16892722
  O  2.46164912 -0.80546044 -0.73246892
  H  2.15472430 -0.61490466 -1.62798440
  H  1.86289889 -0.64130587  1.15388125
  C  1.23029520  1.17298728  0.12536412
  H  1.49811613  1.58626894 -0.85582529
  H  1.81480459  1.75178120  0.84381587
  C -0.20365687  1.45698437  0.31935851
  H -2.84270948  0.96303701  0.22892597
  H -2.81849886 -0.81264315  0.27349924
  H -2.28465119  0.06437151 -1.16543959
