10
opt_min/./Product_146_0_opt.xyz
  O -1.69092500 -1.09643100 -1.29808100
  C -1.10728791 -0.41360624 -0.53005692
  C -0.90261036  0.81604509  0.19300913
  H -0.53539513  1.67364610 -0.34776608
  H -1.57853724  1.05287837  0.99783920
  C  0.07225366 -0.37062798  0.39628772
  C  1.41470738 -0.31643518 -0.19290760
  O  2.33806818 -1.01343490  0.12920368
  H  1.49917913  0.39279887 -1.03956549
  H  0.00948355 -0.95054624  1.30663153
