9
opt_min/./Product_5116_0_opt.xyz
  C -0.55883400  0.86443000  0.11321400
  H -1.27205915  1.64620107  0.20440829
  C -0.76188196 -0.63390181  0.06041963
  H -1.17443819 -1.07502836  0.98296086
  H -1.38661930 -0.97942046 -0.78150352
  O  0.58611992 -1.10163443 -0.13138211
  C  1.39172586  0.01368293 -0.16871609
  H  2.44245410 -0.05553987 -0.31669283
  O  0.72826942  1.10297523 -0.04129527
