10
opt_min/./Product_379_0_opt.xyz
  N  1.42396399 -1.21384602  0.24318100
  C  1.35379021 -0.19600748 -0.49039872
  O  0.32783150  0.64312365 -0.45450341
  C -0.71842285  0.27625718  0.43415607
  N -1.72945048  1.23143592  0.34658155
  C -2.57298190  2.02671149  0.26409457
  H -1.11224495 -0.71360086  0.16371637
  H -0.33355256  0.23077600  1.46336009
  H  2.10470776  0.16542470 -1.20368412
  H  2.26674867 -1.76510234  0.14242189
