19
opt_min/./Product_8398_0_opt.xyz
  C  3.24968000 -0.01453300 -0.17914000
  O  1.84294702 -0.21050637 -0.14670608
  C  1.11279892  0.84289286 -0.44175952
  C -0.35649738  0.50779118 -0.42283765
  C -0.76398771 -0.90087078  0.02174698
  C -2.23220401 -1.22152017 -0.27656908
  H -2.61146787 -0.58616554 -1.07611970
  H -2.34653707 -2.25696509 -0.58298260
  H -2.85442369 -1.04895706  0.59862756
  H -0.11714388 -1.62491686 -0.47553410
  H -0.57515549 -0.98809980  1.09503001
  C -1.09420152  1.59767866  0.35702272
  H -2.17161508  1.50381979  0.25249481
  H -0.86220276  1.50410609  1.41807314
  H -0.77720086  2.57725943  0.01356973
  H -0.62345035  0.61601736 -1.48769333
  H  3.65525495 -0.65013029 -0.97144442
  H  3.66082915 -0.33721414  0.77651272
  H  3.48214401  1.02917762 -0.38653161
