12
opt_min/./Product_2935_0_opt.xyz
  C  1.51857300 -0.32852800 -0.09662000
  C  0.15787502  0.04731046  0.50410880
  H  0.24524643  0.18596843  1.58869895
  C -0.52796236  1.23601146 -0.10158243
  H -0.05014401  2.20135282 -0.08873191
  C -1.76570430  0.93237004 -0.63759708
  C -1.81590450 -0.44876301 -0.34352137
  H -2.61954111 -1.14156905 -0.56633510
  O -0.80268868 -0.98812225  0.30634886
  H  1.75036936  0.31745131 -0.94073417
  H  1.47886197 -1.35720218 -0.45169618
  H  2.31162628 -0.24245256  0.64206813
