10
opt_min/./Product_4061_0_opt.xyz
  N -0.73480599 -0.31524005 -1.27808799
  C -1.18039667 -0.31209218  0.02980754
  C -0.21886126  0.08553565  1.02872677
  N  0.98631996  0.41247310  0.75369017
  C  2.08177018  0.70394255  0.46371590
  H  3.06549649  0.94413709  0.20647823
  H -0.52054877  0.08720757  2.06020012
  O -2.30536780 -0.68330870  0.31514755
  H -1.45261044 -0.46271811 -1.97041283
  H  0.00609209  0.31017451 -1.54731771
