10
opt_min/./Product_4299_0_opt.xyz
  O  1.03511400 -0.88273100  0.87698100
  C  0.26342698 -0.32183953 -0.14656983
  H  0.51340576 -0.77739303 -1.12326220
  C  0.26343517  1.19551741 -0.26529518
  H  1.14662527  1.78478987 -0.44418274
  N -0.89133764  1.69337420 -0.15006554
  C -1.84466605  0.64063422  0.07456485
  N -1.15628150 -0.47779856  0.10555397
  H -1.56699973 -1.38039463  0.29046756
  H  1.97023489 -0.78627211  0.67159654
