14
opt_min/./Product_1731_0_opt.xyz
  O  2.40141300 -0.03623400  1.18945000
  C  1.85093672  0.38356560 -0.02979620
  C  0.40744819 -0.09311696 -0.19812180
  O -0.36029823  0.54235608  0.80760090
  C -1.69100748  0.29084345  0.83626751
  C -2.39952416 -0.49473566  0.04199952
  H -3.45783509 -0.59355506  0.19166478
  H -2.14255968  0.85247703  1.64346518
  H -1.96985354 -1.06238452 -0.76562368
  H  0.35617425 -1.18302954 -0.07756916
  H  0.03328636  0.17726166 -1.19357094
  H  2.47610312 -0.04490020 -0.81591093
  H  1.87301886  1.47982150 -0.11000389
  H  1.79829698  0.24012182  1.89046499
