17
opt_min/./Product_11165_0_opt.xyz
  C  2.47961200  0.19422600 -0.18669800
  H  3.21886721  0.84689389 -0.58282562
  C  1.91406269 -0.97678468 -0.12288185
  H  1.86395794 -2.00053114 -0.40234079
  C  1.29707300  0.10192435  0.72661353
  C -0.03142191  0.73602612  0.37705499
  H  0.03468595  1.81667767  0.53408243
  C -1.25430078  0.10524372  1.07500786
  H -1.00945184 -0.79041990  1.64256367
  H -1.81309416  0.78319288  1.71933932
  C -1.89550135 -0.16231970 -0.29291320
  H -2.11825210 -1.21080758 -0.49202269
  H -2.79425022  0.42087838 -0.48227740
  C -0.63666710  0.36889151 -0.98935080
  H -0.80325092  1.20476680 -1.66746664
  H -0.06088392 -0.39214816 -1.51581721
  H  1.47543361  0.07323725  1.80180926
