16
opt_min/./Product_6369_1_opt.xyz
  C  1.50240800 -0.14751300  0.17803100
  C  2.72025324 -0.04775949 -0.31695706
  H  2.98743137  0.73295488 -1.01150123
  H  3.50652912 -0.73211114 -0.04902424
  C  0.35525221  0.75756524 -0.14920312
  C -0.79992465 -0.03895755 -0.72045990
  H -0.57622323 -0.47165746 -1.68893557
  C -1.67549926 -0.84437298  0.19534355
  H -2.01441988 -1.81508136 -0.13238343
  H -1.48122629 -0.79155289  1.25568594
  C -2.21839431  0.37671450 -0.48350303
  H -2.39991889  1.25250010  0.12200450
  H -2.93289994  0.24832281 -1.28160121
  H  0.02473893  1.26099838  0.76222922
  H  0.67717913  1.51179491 -0.87088548
  H  1.25804807 -0.94322049  0.87143662
