11
opt_min/./Product_90_0_opt.xyz
  N  1.81838300  0.08973900 -0.26316500
  C  0.50739216  0.32792316  0.30128172
  H  0.52899459  1.05081321  1.14189918
  C -0.15446684 -0.92181966  0.86412111
  N -1.31281783 -0.91590910  0.22686329
  H -2.04159466 -1.60122393  0.34623119
  C -1.41922736  0.16107434 -0.67885674
  H -2.29808570  0.31601385 -1.27434294
  N -0.39874828  0.89576772 -0.68833341
  H  2.37612615 -0.42703455  0.40525743
  H  2.27589555  0.96821056 -0.47137152
