11
opt_min/./Product_4711_0_opt.xyz
  C  1.76523400  0.11176700 -0.00151400
  O  0.95826562 -0.67594363  0.89716012
  C -0.30275115 -0.79012648  0.84062542
  C -1.06208219 -0.01862114 -0.18489832
  O -2.42401703 -0.35643942 -0.24386017
  H -2.66220863 -0.75471854  0.60289269
  H -0.67087404 -0.11675085 -1.20713630
  H -0.95996906  1.05101982  0.10859456
  H  1.56782168 -0.17208718 -1.03673379
  H  2.80277513 -0.09259953  0.25816737
  H  1.54079658  1.17142169  0.13839763
