10
opt_min/./Product_6019_0_opt.xyz
  C -1.38268602  0.54508398 -0.16663093
  O -0.44066965 -0.48913063 -0.28462631
  C  0.83339712 -0.12458886  0.18166076
  N  1.68812333 -1.21792450  0.05205126
  C  2.39190965 -2.13623840 -0.05393177
  H  1.24877817  0.71476379 -0.41271006
  H  0.79601365  0.17917291  1.24137249
  H -1.08187053  1.42888085 -0.74369698
  H -1.53731330  0.82880612  0.87813897
  H -2.31301231  0.16307593 -0.57804991
