16
opt_min/./Product_7532_0_opt.xyz
  C  2.50327602  0.00805602 -0.66843288
  O  1.16622490  0.17349060 -1.05517523
  C  0.24674073 -0.23232353 -0.07310089
  C -1.17043711  0.06741963 -0.57361481
  C -2.24507991 -0.52656288  0.35187280
  H -3.03857823  0.19455513  0.51736671
  H -2.67873528 -1.41974193 -0.08252400
  H -1.82246219 -0.78566419  1.31706087
  N -1.33703392  1.45751968 -0.67870810
  C -1.46976913  2.60845267 -0.76676554
  H -1.26101106 -0.33852009 -1.58774809
  H  0.34262661 -1.31246021  0.11424096
  H  0.42472712  0.30626641  0.86956522
  H  3.10635868  0.35022882 -1.50387770
  H  2.73136145 -1.04274592 -0.46226596
  H  2.74460671  0.60322055  0.21948683
