12
opt_min/./Product_4622_0_opt.xyz
  C  2.55661100  0.04826399  0.33847302
  C  1.12282813  0.23421332  0.31381835
  C -0.05935824  0.42984482  0.29468042
  C -1.50255985  0.57804441  0.27490629
  C -2.15632314 -0.77823991  0.21385142
  C -2.98676404 -1.50112727  0.87689939
  H -1.85342520 -1.38287375 -0.64921111
  H -1.80976412  1.17523966 -0.58926246
  H -1.83319074  1.09426334  1.18115436
  H  2.78851551 -1.01520156  0.35136157
  H  2.98628446  0.52429972  1.21633481
  H  2.99763598  0.48951696 -0.55610178
