17
opt_min/./Product_8078_0_opt.xyz
  C -2.25370500  0.01327900 -0.09485200
  C -0.82762394 -0.43684409 -0.43902586
  C  0.23516221  0.33121548  0.35688439
  O  0.13267435  0.10102585  1.74843125
  H -0.78619449 -0.09764107  1.95868734
  C  1.62125460 -0.09162162 -0.07817497
  C  2.56067724  0.76260663 -0.45632615
  H  3.54474168  0.43313463 -0.74941043
  H  2.38359481  1.82102762 -0.46864339
  O  1.80100083 -1.43747030 -0.04471448
  H  2.72225112 -1.65259523 -0.24214568
  H  0.12943644  1.41128325  0.16483545
  H -0.62804249 -0.28599951 -1.50164820
  H -0.69732473 -1.50022191 -0.22417857
  H -2.74685827 -0.69286667  0.57148806
  H -2.24525582  0.99180635  0.38697688
  H -2.85942331  0.09535921 -0.99502404
