14
opt_min/./Product_10952_0_opt.xyz
  C -1.21839800 -1.21999500 -0.80829900
  C -1.09615876  0.25761473 -0.56032407
  C  0.08837180  0.73211158  0.19350478
  N  0.01927409  2.06791606  0.58774354
  H -0.64540485  2.57531656  0.01402353
  H  0.89438574  2.55124122  0.71080800
  C  1.07760049 -0.08503548  0.50154169
  C  2.03789758 -0.90310087  0.78551261
  H  2.87546355 -1.06595431  0.12155126
  H  2.05297636 -1.46593355  1.70776710
  O -1.91764305  1.05440486 -0.96653182
  H -1.80186272 -1.39496503 -1.70862851
  H -0.24514558 -1.69385109 -0.88922049
  H -1.75634650 -1.66445234  0.02778333
