12
opt_min/./Product_11223_1_opt.xyz
  N  3.03978399 -0.65759003  0.27910702
  C  1.96323817 -0.40077887 -0.01395030
  C  0.62344528 -0.08630489 -0.31916203
  O  0.28313523  0.80827319 -1.34669778
  C -0.12202185  1.17972117 -0.07325333
  H  0.22579497  2.10647326  0.35031453
  C -1.38893973  0.40244346  0.29654921
  H -1.64376087  0.52554723  1.34556045
  H -2.25383382  0.59971101 -0.32980517
  C -0.63683171 -0.91522844  0.00714023
  H -1.00799932 -1.47650881 -0.84700341
  H -0.51485849 -1.56853888  0.86499690
