11
opt_min/./Product_870_0_opt.xyz
  N  1.88540334  0.84880755  0.91469210
  C  0.93205113  0.34753163  0.30288131
  C  0.25299570  0.35826383 -0.98934326
  H  0.71688766  0.34634340 -1.96121945
  C  0.00847228 -0.76282536  0.05888872
  H  0.26740995 -1.80761398  0.09462460
  C -1.41784226 -0.24614176  0.02071744
  H -2.09110807 -0.95790222 -0.46447419
  H -1.88048814  0.10451911  0.94612862
  O -1.08917856  0.80461578 -0.89454885
  H  2.14096664  0.41423466  1.80266140
