12
opt_min/./Product_5297_0_opt.xyz
  O  3.10601800  0.52914400 -0.00699100
  C  2.27484428 -0.49554500 -0.08921638
  C  0.88500387 -0.02283901  0.19281687
  O -0.02002639 -1.09535798  0.13027575
  C -1.33390591 -0.81360554  0.24879693
  C -1.94458279  0.36029204  0.32143774
  H -3.01185297  0.41807692  0.40781021
  H -1.41701146  1.29808081  0.32801539
  H -1.88908779 -1.74369348  0.26688049
  H  0.83282879  0.46126326  1.18225610
  H  0.63865307  0.75671018 -0.54794473
  H  4.00876767  0.23748661 -0.20884246
