15
opt_min/./Product_10991_0_opt.xyz
  C  1.74030700 -0.39915300  0.05885900
  C  0.32875498 -0.05619160  0.55546903
  O  0.37873950  0.70326041  1.74005951
  H  0.67009398  1.59613273  1.52349137
  C -0.53060982  0.59599699 -0.57533099
  H -0.01616489  0.45516340 -1.52609046
  H -0.71689627  1.65610852 -0.42281036
  C -1.81950038 -0.21214536 -0.51776496
  H -2.29605802 -0.41624461 -1.47527772
  H -2.54137228  0.24079908  0.16680292
  O -1.42162855 -1.46534846  0.11240008
  C -0.36515067 -1.40474244  0.79821873
  H  2.29578169 -0.85694319  0.87297947
  H  1.69012880 -1.10083365 -0.77020207
  H  2.25859752  0.50400233 -0.26428113
