14
opt_min/./Product_4409_0_opt.xyz
  C -1.74415900 -0.83260300  0.15611900
  C -0.75545229 -0.00288728 -0.64589599
  H -0.88170559 -0.09222963 -1.71768697
  C -0.31942865  1.35779368 -0.12921717
  H -0.69033631  1.69584293  0.82701316
  H -0.16375597  2.15875527 -0.83621438
  C  0.60384616  0.21663084 -0.15193195
  C  1.78545533 -0.28201419  0.11513136
  O  2.79026315  0.45563340  0.70094005
  H  3.61578037 -0.03191597  0.62815301
  H  2.01798875 -1.32228844 -0.08963832
  H -1.22566242 -1.45780851  0.87863762
  H -2.32518292 -1.48140200 -0.49257763
  H -2.44054377 -0.19271626  0.69270366
