16
opt_min/./Product_3951_0_opt.xyz
  C -1.54857900 -1.13921800  0.65841500
  C -0.81862974 -0.06263648 -0.09946998
  C  0.42313742 -0.20038382 -0.45848883
  C  1.67020113 -0.32127294 -0.79687635
  C  2.82980054  0.10394544  0.05636218
  H  3.61023268  0.53585478 -0.56822694
  H  3.24449114 -0.76499472  0.57268447
  H  2.51955669  0.83252744  0.80571390
  H  1.94934033 -0.76958856 -1.74079920
  C -1.58658650  1.19322085 -0.39451840
  H -1.01323011  1.86113650 -1.03784629
  H -2.52896891  0.94996458 -0.88617949
  H -1.80892668  1.71655873  0.53903762
  H -2.61791508 -0.93504941  0.66359411
  H -1.19500560 -1.18327519  1.69069401
  H -1.37491405 -2.11636993  0.20522090
