16
opt_min/./Product_5571_0_opt.xyz
  C -2.05472300  0.54197500 -0.49133800
  C -0.73518184 -0.10943365 -0.81388818
  H -0.38252913  0.09277504 -1.81552365
  C  0.33987932 -0.18480185  0.24284693
  C  1.77476274  0.08107276 -0.14862854
  O  1.97574118  1.45877911 -0.43937678
  H  2.56537807  1.84187307  0.21463364
  H  2.44811428 -0.25014613  0.64709897
  H  2.01405720 -0.48256391 -1.05949742
  H  0.07681449  0.19501355  1.22224322
  C -0.36154016 -1.42818310 -0.21513320
  H -1.05172530 -1.89973119  0.46674660
  H  0.19448803 -2.12811891 -0.82144434
  H -2.75530759  0.39865444 -1.31398961
  H -1.94140668  1.61048010 -0.33003180
  H -2.50375724  0.09842805  0.39539817
