16
opt_min/./Product_9633_0_opt.xyz
  C  1.90009000  0.31700700 -0.94159900
  C  1.22110226 -0.77029082 -0.16373419
  N  1.61230781 -1.95647357 -0.01334544
  H  2.48060466 -2.18891987 -0.49510919
  C -0.06836851 -0.36867961  0.51349593
  C -1.16484123 -0.17365739 -0.51026598
  H -1.37644278 -1.05624631 -1.11481518
  C -2.24933438  0.78770471 -0.29877530
  H -3.22260225  0.60428094 -0.74264847
  H -2.24414544  1.40588751  0.59396882
  O -1.21149730  1.03525136 -1.20711971
  H  0.09081284  0.56416546  1.06005227
  H -0.36086461 -1.16126191  1.20362482
  H  2.48890247  0.91876555 -0.24436309
  H  1.16447384  0.96228989 -1.41540169
  H  2.57602644 -0.09037579 -1.69246848
