10
opt_min/./Product_10544_1_opt.xyz
  O  1.50643800  1.37399600  0.75859500
  C  1.45194412  0.21682699  0.47484441
  C  0.24227408 -0.45884546 -0.12768517
  H  0.53540496 -1.12088805 -0.94206594
  C -0.42101072 -1.23817669  1.00578166
  N -1.63279175 -0.65485199  1.13908212
  C -1.74235871  0.30137043  0.26666468
  H -2.60443083  0.95067242  0.17515821
  O -0.74867471  0.48115962 -0.55698318
  H  2.24498350 -0.51330563  0.69674998
