14
opt_min/./Product_3042_0_opt.xyz
  O -1.76757800  0.71067400  1.43153000
  C -1.69237708  0.31727441  0.07608521
  C -0.54307409 -0.67238876 -0.08836106
  C  0.78392094 -0.06037362  0.34390217
  C  1.93313312 -1.01643981  0.28299897
  O  3.08456079 -0.46846465  0.36258701
  H  3.13228140  0.52193495  0.41363671
  H  0.68683454  0.26856453  1.38653812
  H  1.00293680  0.83907335 -0.25394050
  H -0.73770888 -1.55261454  0.52349960
  H -0.48787386 -0.98280678 -1.13209628
  H -2.63176534 -0.15794669 -0.23704020
  H -1.52155603  1.19696743 -0.56359185
  H -2.50140432  1.32395599  1.54335129
