9
opt_min/./Product_208_0_opt.xyz
  O  1.72566200  0.85370200 -0.05671900
  C  1.04866198 -0.34095857 -0.10033615
  C -0.26065544 -0.38974861 -0.09163026
  C -1.61310285  0.08892213 -0.04424635
  H -2.05564126  0.37687068  0.90236376
  H -2.06253254  0.53860953 -0.92200469
  O -1.26823642 -1.29119998 -0.17064939
  H  1.63282672 -1.24656503 -0.19998229
  H  2.55701742  0.73588288  0.41399202
