12
opt_min/./Product_4052_0_opt.xyz
  C  0.05882967  1.48865466 -0.43281065
  C  0.17404581 -0.03615037 -0.47427301
  O  1.36847877 -0.39605662  0.25882025
  C  1.40875613 -1.57400782  0.80298381
  H  2.41249850 -1.61257879  1.28478631
  C -1.02046385 -0.66714156  0.05972717
  C -1.98742983 -1.17897576  0.54353756
  H -2.84179284 -1.62788176  0.95390750
  H  0.31793449 -0.37425332 -1.51075819
  H -0.17324694  1.81477115  0.57817249
  H -0.72895606  1.81864819 -1.10333532
  H  1.00296354  1.93223863 -0.73849541
