14
opt_min/./Product_7889_0_opt.xyz
  C  0.78865700  1.58272900  0.21323500
  C  0.31812612  0.36774624  0.47223653
  N  1.07710028 -0.80026906  0.51826220
  O  2.46907960 -0.63392984  0.67862224
  H  2.85130597 -0.67208712 -0.21155613
  H  0.74844175 -1.47645962  1.20351981
  C -1.14702274  0.10685153  0.59801178
  H -1.70603716  0.91400436  1.07122303
  C -1.85022684 -0.71110534 -0.40460214
  H -2.88852608 -0.50037846 -0.63483397
  H -1.27951259 -1.16634536 -1.20724686
  O -1.58642348 -1.18694378  0.88155792
  H  0.12252416  2.41801260  0.09577328
  H  1.84255520  1.77075945  0.12304773
