14
opt_min/./Product_6623_0_opt.xyz
  O  2.25306800  0.48578600 -0.32423900
  C  1.03572913  0.13413577  0.26156142
  H  1.12904559  0.05241401  1.35743225
  C  0.39084401 -1.02644924 -0.46698884
  H  0.88678833 -1.90889429 -0.83253490
  C -1.07846630 -0.91520790 -0.28292846
  H -1.75522539 -1.72880860 -0.48769084
  C -1.36570695  0.32059147  0.54388378
  H -1.25939723  0.26036549  1.62849749
  H -2.31767945  0.76939896  0.26886758
  C -0.19807992  0.90414051 -0.25168492
  H -0.13069425  1.96612814 -0.46830293
  N -0.40214351 -0.14281274 -1.33554531
  H  2.64272609  1.22295287  0.15729063
