8
opt_min/./Product_9288_1_opt.xyz
  C  0.34395700  0.53603500  0.08094800
  C -0.95252904 -0.22451582 -0.04852935
  H -1.59612021  0.28418626 -0.75853930
  H -0.77442876 -1.23874692 -0.38570472
  H -1.46662621 -0.26856054  0.91255282
  C  1.50518786 -0.02941714  0.15169121
  O  2.55498749 -0.53813095  0.13860822
  H  0.28264004  1.59722633  0.26003762
