14
opt_min/./Product_3253_0_opt.xyz
  C -1.38387100 -0.84007000 -0.07213900
  C -0.22846180 -0.02077183  0.52170237
  H -0.40357771  0.11039247  1.59166593
  C  1.12466296 -0.64867613  0.28484990
  H  1.38774882 -1.63582464  0.60220302
  C  1.89425838  0.20437485 -0.37179634
  H  2.90793057  0.09820384 -0.71376089
  O  1.32053937  1.40051435 -0.65455035
  C -0.01623761  1.35845331 -0.14954449
  H -0.12755995  2.18687220  0.55514901
  H -0.70070693  1.52411440 -0.98588885
  H -1.78175482 -0.37062130 -0.96846321
  H -2.19476169 -0.94689267  0.64233018
  H -1.04341122 -1.83679591 -0.34156783
