13
opt_min/./Product_8648_0_opt.xyz
  C  1.83585538 -0.23453575  0.41983143
  C  0.77144788 -0.06175875 -0.62842835
  H  1.00064134  0.60307026 -1.46010563
  O -0.03313276 -1.14097089 -0.96127308
  C -0.66193078 -0.12480003 -0.23809621
  C -1.87490922  0.64478867 -0.61445089
  H -2.39801365  1.05084949 -1.44900551
  O -2.36164629  0.50263400  0.62396000
  C -1.34242206 -0.23539750  1.08566997
  H -1.17682513 -0.50793360  2.09834055
  H  2.08724853  0.73115471  0.85025071
  H  2.72258277 -0.69537671 -0.01459137
  H  1.46641494 -0.89599667  1.20497133
