13
opt_min/./Product_6385_0_opt.xyz
  C -1.49314400 -0.39035600  0.55045000
  C -0.46792474  0.43397264 -0.20833436
  H -0.94408946  1.08197100 -0.95040904
  O  0.22121423  1.32311121  0.74076435
  C  1.48307621  1.23609579  0.78621775
  C  1.91333494  0.16464051 -0.17092861
  H  2.88953723  0.17392798 -0.63603913
  O  1.36813612 -1.09237883  0.15492940
  C  0.67707415 -0.35479563 -0.80082764
  H  0.63256646 -0.72702835 -1.81490206
  H -0.98372602 -1.03067910  1.26756597
  H -2.17872597  0.26677048  1.08035847
  H -2.05357527 -1.01099352 -0.14553593
