12
opt_min/./Product_7669_1_opt.xyz
  C -0.74296800  1.34373000  0.11991500
  C -0.10426516  0.17570188  0.05663355
  N  1.09864892  0.00368993  0.70324523
  O  1.93608138 -1.08769170  0.47709954
  H  2.41631568 -0.94348390 -0.35726041
  H  1.51759597  0.75492472  1.22657120
  C -0.63506298 -1.01175662 -0.69476204
  H -1.59467901 -1.30946271 -0.27634378
  H  0.05453532 -1.84678127 -0.61280337
  H -0.78568843 -0.76992385 -1.74535472
  H -0.34366722  2.17994770  0.66548961
  H -1.70697551  1.47207189 -0.33131861
