16
opt_min/./Product_7638_0_opt.xyz
  C -1.12925700  1.32485400 -0.54694400
  C -0.28603298  0.17099095 -0.04242501
  C -1.03198237 -0.72244631  0.91833851
  H -1.83950825 -1.23036385  0.39314372
  H -0.38166385 -1.47506242  1.35680225
  H -1.46483740 -0.12397087  1.71986528
  C  1.19102456  0.53277008  0.12610703
  H  1.53148954  1.55282275  0.18273906
  C  1.89241121 -0.71755092  0.53865617
  H  2.50550848 -0.98203388  1.38185435
  N  1.48051207 -1.47481857 -0.41088561
  C  0.73141176 -0.34567787 -1.01845313
  H  0.71625358 -0.18660722 -2.08029394
  H -1.34888419  2.01320406  0.26778321
  H -0.61252239  1.87043232 -1.33317046
  H -2.07274266  0.95239158 -0.94226599
