12
opt_min/./Product_6755_0_opt.xyz
  O  2.56846200  1.01364400  0.69032200
  C  2.29526115  0.27512644 -0.21208878
  C  0.92474492 -0.37657210 -0.41536577
  O  0.72035956 -1.10023783 -1.35112642
  C -0.07706182  0.02341450  0.64376180
  N -1.28332287 -0.73104130  0.55232659
  C -2.38907399 -0.15552560  0.45333141
  H -2.52449292  0.93221092  0.41198186
  H -3.27918173 -0.76401467  0.40461225
  H  0.38176080 -0.17011718  1.62063460
  H -0.21766850  1.11785665  0.56602498
  H  3.02566310 -0.00137727 -0.99595464
