12
opt_min/./Product_932_0_opt.xyz
  O -0.92644600  1.66256700  0.05329200
  C -0.51812433  0.37304685  0.32834665
  H -0.72899036  0.09651265  1.37123689
  C -0.96280237 -0.65623903 -0.70911300
  H -1.52690188 -0.22006785 -1.53819194
  H -1.48873912 -1.52348459 -0.29834269
  O  0.36752133 -0.98262681 -1.07762315
  C  0.93174412 -0.04342755 -0.13107550
  C  1.67283708 -0.42108439  1.02406692
  H  1.82348692 -1.50900608  1.09846312
  H  1.44434787  0.78057610 -0.64485623
  H -0.46993123  2.28664918  0.63137821
