13
opt_min/./Product_10713_0_opt.xyz
  C  2.19513500  0.86890800  0.65168400
  O  1.31324873  0.02197822 -0.07109348
  C  0.08288419 -0.03491490  0.34755287
  C -0.70221534 -0.96492120 -0.56103222
  O -1.83140903 -0.27927264 -1.10154251
  C -2.84917284 -0.05659593 -0.29176914
  O -2.98172260 -0.43973047  0.83026404
  H -3.60503549  0.53727311 -0.83877753
  H -0.12588428 -1.32695368 -1.41999951
  H -1.05167115 -1.80644077  0.05122421
  H  1.76269637  1.14053675  1.61570455
  H  3.13573241  0.33375194  0.78164594
  H  2.37172384  1.76954424  0.05992141
