11
opt_min/./Product_2699_0_opt.xyz
  C -0.25244300  0.29478300  0.98701900
  H -0.15053435  0.65674390  1.99310567
  C -1.24420564  0.32260118  0.09946005
  H -2.24458033  0.70873248  0.13302454
  C -0.46709836 -0.39160407 -0.97500145
  H -0.22279043  0.20829610 -1.84601425
  H -0.87357992 -1.35108561 -1.28460790
  C  0.68617337 -0.45440953  0.07282043
  O  1.87181465  0.19360891 -0.31753429
  H  2.09013282  0.87166406  0.32793987
  H  0.93152136 -1.47242166  0.40101199
