8
opt_min/./Product_2735_0_opt.xyz
  O  0.06223400 -1.04089100  0.12549400
  C -1.13376632 -0.45002173  0.06198857
  H -1.94393159 -1.16213884  0.13336858
  C -1.32534701  0.92122500 -0.07820332
  C -0.07392362  1.34420318 -0.11844260
  C  1.20642626  1.04571404 -0.08376465
  C  1.19442013 -0.33233592  0.05396670
  H  2.07750029 -0.95164151  0.11917445
