13
opt_min/./Product_11002_0_opt.xyz
  C -0.79873700  0.91215700  0.34309300
  H -1.24509127  1.28252324  1.26617753
  H -1.21139735  1.50195548 -0.47908507
  C  0.69759221  1.15234858  0.36098211
  O  1.26432940  2.10884953  0.81221996
  C  1.34545015 -0.05204081 -0.26237513
  H  2.40636324 -0.23279235 -0.14754776
  C  0.31467844 -1.08871341 -0.41390583
  H  0.54739140 -2.14611853 -0.39112884
  C -1.00800203 -0.59171532  0.13049015
  H -1.23251229 -1.10145789  1.06801672
  H -1.80902723 -0.79594461 -0.57916835
  O  0.78188176 -0.37135439 -1.51326742
