11
opt_min/./Product_11147_0_opt.xyz
  C -0.84372001  0.67020895  0.92056603
  C -0.19819334 -0.08740664 -0.20160678
  C -0.86157935 -0.52447346 -1.27057083
  H -1.91974089 -0.35252197 -1.37540411
  H -0.37441038 -1.06073713 -2.06606503
  C  1.19352696 -0.31707675 -0.06758163
  C  2.37088944 -0.50980315  0.06455772
  H  3.40212546 -0.66920754  0.16828501
  H -0.67523125  0.16666775  1.86853261
  H -0.40763558  1.66588261  0.99428191
  H -1.91145774  0.77236611  0.75208113
