12
opt_min/./Product_11411_0_opt.xyz
  C  1.80803400  0.01364600  0.29387800
  C  0.34125657  0.09481634  0.09458804
  C -0.63047319  1.02976293  0.17072606
  H -0.69142836  2.06256372  0.42109431
  C -1.64321434 -0.01418348 -0.25932836
  H -2.40394280 -0.28928641  0.47058667
  H -2.10547884  0.15086278 -1.23297537
  N -0.50731335 -0.92326919 -0.30108554
  H -0.39573041 -1.88963722 -0.53015301
  H  2.08150542 -0.93800883  0.74628975
  H  2.32926630  0.09795179 -0.66027702
  H  2.13777860  0.82351745  0.93950880
