14
opt_min/./Product_560_0_opt.xyz
  C  1.38912300 -0.20538900  0.32585200
  H  1.66929340 -0.13335108  1.38945575
  H  2.27028430 -0.56028641 -0.20679651
  C  0.19825284 -1.17003672  0.22682181
  H  0.42277116 -2.00980816 -0.43045485
  H -0.05026335 -1.57964576  1.20748590
  C -0.99735793 -0.38974814 -0.33698350
  H -0.72104107 -0.21396123 -1.39264960
  H -1.93108727 -0.94645667 -0.29358014
  C -1.14568736  0.96635590  0.24209548
  H -2.02584137  1.37200018  0.69800234
  O -0.08987933  1.74269102  0.17952154
  C  1.06637535  1.19394219 -0.11225129
  H  1.85741929  1.90321032 -0.28558808
