13
opt_min/./Product_97_0_opt.xyz
  C  1.09367323  0.69809723  0.30313996
  C  1.88193532 -0.16590198 -0.56664637
  H  2.62828345 -0.71582905  0.03957546
  C -0.01125190 -0.37572633  0.45872022
  H  0.37789348 -1.28399093  0.92234339
  C -0.97976343 -0.59506146 -0.73967522
  H -1.11957393 -1.62703146 -1.05807121
  H -0.75008241  0.01951837 -1.60872904
  C -1.95588956 -0.04007577  0.22835326
  H -3.01520164  0.16541311  0.19858259
  N -1.17286625  0.16232997  1.21453333
  H  1.45845785  0.95951259  1.30043685
  H  0.66924824  1.56774674 -0.19791174
