14
opt_min/./Product_11417_0_opt.xyz
  O  2.57846800  0.92332900 -0.53284000
  C  1.48425412  0.51008982 -0.20191018
  C  1.21951952 -0.90976337  0.14934500
  H  2.08712474 -1.50687691  0.37905389
  C -0.00413400 -1.41702592  0.07085950
  H -0.18585105 -2.46805926  0.24052990
  C -1.17658432 -0.54582771 -0.27128246
  H -1.29284711 -0.52297059 -1.35950786
  H -2.09575595 -0.94641926  0.15702968
  C -0.91515540  0.85845164  0.26774484
  H -1.66687233  1.56531190 -0.08614811
  H -0.94330221  0.82989245  1.36525870
  N  0.38681199  1.30361842 -0.17893036
  H  0.52463845  2.27056426 -0.43317740
