11
opt_min/./Product_11311_0_opt.xyz
  N  2.47021216  0.17054852  0.24404703
  C  1.33084299 -0.26453105  0.46586684
  C  0.18630197 -0.65466191 -0.42788851
  H  0.33994502 -1.44468258 -1.16337996
  C -0.92801846  0.32519819 -0.62036120
  H -1.20589099  0.96469181 -1.43185168
  C -1.45452672 -0.02959320  0.56141103
  H -2.20920516  0.34905164  1.22243251
  N -0.51273724 -1.05638767  0.83837679
  O  0.65702767 -0.61087138  1.60941975
  H  3.05735491  0.31015306  1.05909996
