10
opt_min/./Product_3164_0_opt.xyz
  N  0.90811193 -0.33099805 -1.60563603
  C  0.58150767 -0.17810775 -0.30757480
  C  0.85525847  0.00618114  0.95145687
  H  1.49965105  0.23868883  1.75724261
  C -0.60634144 -0.26070690  0.61552157
  C -1.53998165  0.81199228  0.62202851
  N -2.27874944  1.68832583  0.59013592
  H -1.05086346 -1.22929187  0.84343361
  H  1.71188424  0.18007366 -1.93831732
  H  0.13327693 -0.34678967 -2.25273090
