15
opt_min/./Product_9081_0_opt.xyz
  C  2.65232200  0.62558600 -0.08769600
  N  1.44858006  0.09939062 -0.02962383
  C  1.03375865 -1.16791335  0.01732203
  H  1.70045743 -2.00014728  0.05220166
  C -0.45204849 -1.18726373  0.10835172
  H -0.83786109 -1.61074293  1.04511417
  H -0.94747773 -1.71627287 -0.71323018
  C -0.71082428  0.28893299  0.06405820
  C -2.05952357  0.90161526  0.07758427
  H -2.78022258  0.23419031  0.54435414
  H -2.37915662  1.09693946 -0.94605036
  H -2.03571663  1.85270742  0.60474796
  N  0.36451021  0.97001954 -0.00597144
  H  2.74315737  1.68775555 -0.15234444
  H  3.50770339 -0.01629586 -0.11684944
