15
opt_min/./Product_11143_0_opt.xyz
  C  1.08087706  0.98529599 -1.34432996
  C  0.64799485 -0.43378926 -0.98960020
  C -0.22468257 -0.49013000  0.18677601
  C -1.02176387 -1.56750922  0.84851602
  H -0.44289721 -2.38688370  1.27877713
  H -1.84695003 -1.99423982  0.27542018
  O -1.45549036 -0.64065881  1.83322031
  C -0.66815169  0.37356073  1.16913778
  C -0.42872329  1.70550139  1.40786460
  H -0.95008355  2.08730868  2.29136431
  H  0.13812423 -0.91164547 -1.83267408
  H  1.52660940 -1.05558600 -0.78130575
  H  0.26726871  1.52785811 -1.81003358
  H  1.92600839  0.96671505 -2.02489444
  H  1.36081951  1.52123580 -0.44387256
