13
opt_min/./Product_3399_0_opt.xyz
  N  2.69258000  1.37167900  0.40194100
  C  2.31549310  0.29133727  0.90082561
  O  1.17198756 -0.31070214  0.48934026
  C  0.13149226  0.42864385  0.11037767
  C -0.89940341 -0.43974874 -0.52055910
  C -2.31697664 -0.00431552 -0.17758618
  H -2.55653373 -0.27947668  0.84826071
  H -2.40195418  1.07723998 -0.26858047
  H -3.03727115 -0.47241139 -0.84647790
  H -0.72816501 -0.27107680 -1.59395440
  H -0.74322653 -1.51405795 -0.33926424
  H  2.82441823 -0.36353272  1.62001443
  H  3.58494239  1.72744393  0.72970605
