17
opt_min/./Product_7542_0_opt.xyz
  O  1.89217700 -0.57333500  1.41070700
  C  1.74797753  0.31476391  0.32042280
  C  0.70982496 -0.25737725 -0.65001332
  C -0.62891696 -0.48462451 -0.00992700
  C -1.17399741 -1.68651526  0.09254501
  H -0.65264871 -2.56449234 -0.24884434
  H -2.14263496 -1.84617826  0.53232109
  C -1.34386765  0.74541598  0.48378484
  O -1.41093283  1.69728712 -0.56927510
  H -1.91152355  2.45870930 -0.26363475
  H -2.34976045  0.47476870  0.82497037
  H -0.79773935  1.17232751  1.33657741
  H  0.59171790  0.45426958 -1.46752760
  H  1.08868861 -1.19712202 -1.04498645
  H  2.70197354  0.43391467 -0.21204557
  H  1.43150712  1.30541106  0.67345176
  H  2.55825295 -0.22968727  2.01232154
