10
opt_min/./Product_7197_0_opt.xyz
  N -0.72882800  0.95404100 -0.86773000
  C -0.15665180  0.00650195 -0.15689830
  C -1.00157079 -0.86964727  0.69003133
  O -0.60708270 -1.68599924  1.46951593
  H -2.07521578 -0.62282013  0.56848459
  C  1.30174030 -0.14070114 -0.27615229
  O  1.98804905 -0.94911001  0.27647643
  H  1.74173148  0.65472130 -0.92684216
  O -1.92725530  1.20727600 -0.99030760
  H -0.06912716  1.58040990 -1.38084267
