12
opt_min/./Product_7253_0_opt.xyz
  C -0.98490885 -1.09097533  0.07529174
  C -5.05771381 -28.57107943 -0.10818439
  C -50.64427674 -52.83195298 -40.33694331
  H -82.77028601  64.97594430 -40.66468056
  H  133.52469344  6.06751801  19.24609410
  H -115.42525127  20.22788429 -38.02378528
  N -127.97914207 -35.04755896 -3.51121465
  C -77.06804704  53.96110690 -109.42883085
  H  36.48396408 -83.08297804  22.17456971
  H -68.41819817 -186.51187546 -74.03507422
  H  67.93522544  9.86628990  5.56294313
  H -8.85640593 -56.87739465 -61.77146323
