15
opt_min/./Product_974_0_opt.xyz
  C -1.74592800 -0.61627900 -0.24646600
  N -0.68232683 -0.02241955  0.53486025
  C -1.06232738  1.24881585  1.11833345
  H -1.57013899  1.91033741  0.40653729
  H -1.72074107  1.03586467  1.96166208
  H -0.16260329  1.74025544  1.48788861
  O  0.43578956  0.20136279 -0.34178656
  C  1.51219022 -0.55572044  0.00962979
  C  2.61150923 -0.59961626 -0.72091175
  H  3.45410792 -1.18673928 -0.41276108
  H  2.69486476 -0.04834530 -1.64145736
  H  1.39201183 -1.09926463  0.93777822
  H -1.38434671 -1.54786768 -0.67871789
  H -2.10200969  0.04251381 -1.04856969
  H -2.57017767 -0.83111874  0.43458251
