12
opt_min/./Product_5666_0_opt.xyz
  N  1.96047800 -0.38600000 -0.10570800
  C  0.59356764 -0.00667303 -0.02935225
  C -0.43464592 -0.87366901 -0.04805802
  H -0.46041308 -1.94177055 -0.13485528
  N -1.66504812 -0.11086627  0.05620658
  H -2.20282964 -0.32347418  0.89781012
  H -2.28587255 -0.22373881 -0.74583623
  C -1.28697811  1.39286783  0.14667588
  C  0.06859826  1.33958217  0.09246632
  H  0.70625062  2.20614398  0.13293853
  H  2.49870496  0.21073810  0.51953040
  H  2.31111552 -0.20876048 -1.04294854
