13
opt_min/./Product_1057_0_opt.xyz
  C -1.37788800 -0.88563500 -0.18598500
  C -0.86342498  0.53239800  0.00052935
  O -1.35209815  1.00737600  1.22023904
  H -0.90375922  1.83375518  1.43772203
  O  0.54030175  0.65964351  0.00955830
  C  1.27728264 -0.42238813 -0.36197863
  N  2.55479841 -0.10735649 -0.28898819
  H  3.24126478 -0.79839661 -0.53828368
  H  2.89892702  0.80792043 -0.00008332
  H -1.22955901  1.18265802 -0.82341313
  H -0.94019092 -1.53142601  0.56849331
  H -2.45804818 -0.86390663 -0.05790437
  H -1.13248733 -1.25150664 -1.17820312
