16
opt_min/./Product_7997_0_opt.xyz
  C  0.90890497  1.87866872  0.27942785
  C  0.44957891  0.44757412  0.12840853
  C  1.28392632 -0.53976223 -0.02058246
  C  2.11771378 -1.52138724 -0.14875916
  H  2.41659916 -1.88286435 -1.12099029
  H  2.53262056 -2.02450607  0.71135443
  C -1.02685596  0.23432310  0.16657780
  H -1.54944348  0.94325414  0.80520756
  C -1.63006775 -1.11035821  0.00959267
  H -2.53478735 -1.34067245  0.56083190
  H -0.98000145 -1.95653124 -0.15900979
  N -1.66751551 -0.16148095 -1.07443654
  H -2.57378743  0.26421809 -1.23380846
  H  1.76009973  2.07660981 -0.36641673
  H  0.10644127  2.56202511  0.01613421
  H  1.20678230  2.07418338  1.30856347
