15
opt_min/./Product_10480_0_opt.xyz
  C  2.41743600  0.18168500  0.59191000
  C  1.43771392  0.49044165 -0.50055312
  C  0.34916333 -0.18344846 -0.71544173
  C -0.74504689 -0.87269496 -0.84138100
  C -1.99588401 -0.52642697 -0.11319751
  N -2.78027276 -1.36299775  0.43077775
  H -2.52029021 -2.33719867  0.31000987
  N -2.29303108  0.80380457 -0.07408413
  H -3.01235592  1.07712495  0.57880872
  H -1.54699398  1.46015709 -0.24079852
  H -0.78616018 -1.75950457 -1.45766199
  H  1.69582916  1.31062344 -1.15708677
  H  2.83766249  1.10437909  0.99226422
  H  3.23700166 -0.42300712  0.19640910
  H  1.93820796 -0.37376344  1.39587863
