16
opt_min/./Product_4016_0_opt.xyz
  C  2.38541300  0.54381700 -0.23273600
  C  1.17524875 -0.37854196 -0.20616578
  O  0.12951809  0.27169664  0.47869148
  C -1.05636079 -0.46550175  0.61360122
  C -2.12685640  0.03983414  1.41870105
  H -1.91526283  1.09275013  1.66522326
  C -2.16417464 -0.12120548 -0.47673252
  H -2.68163452 -1.02107763 -0.78795359
  H -2.90609551  0.61063677 -0.12167275
  H -1.63051106  0.34849113 -1.30116496
  H -0.86135577 -1.53947435  0.61309391
  H  0.87090450 -0.62200271 -1.23757985
  H  1.42636228 -1.31956459  0.30764547
  H  3.20189861  0.07612290 -0.77482874
  H  2.70588406  0.75523515  0.78356075
  H  2.12331452  1.48032390 -0.71648015
