8
opt_min/./Product_3327_0_opt.xyz
  C  1.96630700 -0.49326800 -0.44525600
  C  0.81066383 -0.42549327 -0.12494007
  C -0.54284106 -0.33954022  0.26115264
  C -1.26237711  0.77229322  0.15910835
  H -2.29452914  0.80681061  0.46280213
  H -0.83975658  1.68305663 -0.23161359
  H -0.97137018 -1.25354800  0.65418113
  H  2.97190233 -0.55643098 -0.73497758
