15
opt_min/./Product_7818_0_opt.xyz
  C  2.99021700 -0.23683900  0.02507200
  C  1.66988019 -0.35209062  0.15503895
  C  0.74116197  0.62094750 -0.35274668
  C -0.60152917  0.57847918 -0.26142579
  C -1.38637658 -0.45256129  0.36043525
  C -2.72483078 -0.46383844  0.44703844
  O -3.58496002  0.46483156 -0.01758602
  H -3.09389399  1.18344054 -0.43864552
  H -3.25101811 -1.27520276  0.92941402
  H -0.86641863 -1.29027076  0.79621685
  H -1.15346182  1.40409841 -0.70260551
  H  1.19232578  1.46890211 -0.85530140
  H  1.26207873 -1.21398461  0.66519728
  H  3.43574068  0.60693916 -0.47613764
  H  3.66762934 -0.97719786  0.41292122
