14
opt_min/./Product_11104_0_opt.xyz
  C  1.44931100  0.57379200  0.55056300
  H  1.61840969  0.70955870  1.62038243
  H  2.38229793  0.76603068  0.02137118
  C  0.87944514 -0.80406041  0.26706995
  H  1.42697225 -1.69608399  0.52735756
  C -0.03368756 -0.77359325 -0.92262326
  H -0.11256635 -1.48675705 -1.72135600
  C -0.60953115 -0.75273362  0.45311345
  H -1.20655506 -1.41747561  1.04871634
  N -0.89737238  0.71288924  0.35283386
  H -1.81326714  1.08472907  0.55809756
  C -0.34762471  0.73458660 -1.02101350
  H -0.91245209  1.17560400 -1.82735305
  C  0.34880599  1.49535714  0.04839176
