13
opt_min/./Product_7477_0_opt.xyz
  C  1.91210800 -0.11561800 -0.25069800
  O  0.71704698 -0.57725396  0.33159940
  C -0.45190258  0.08217777 -0.06041972
  H -0.24302575  0.82317102 -0.85042409
  C -1.59388053 -0.82226891 -0.49730327
  H -1.52235868 -1.52958544 -1.30359259
  N -2.64585898 -0.64300818  0.17974072
  C -2.41436626  0.37184321  1.16711483
  N -1.15945109  0.73717344  1.03390978
  H -0.70880837  1.41674625  1.62767257
  H  1.91589319 -0.26070870 -1.33598680
  H  2.69836542 -0.72101273  0.19564893
  H  2.09704581  0.94055914 -0.02811630
