15
opt_min/./Product_10269_0_opt.xyz
  C -1.71020000  0.81442200  0.11773600
  C -0.91106371 -0.47466209 -0.05904228
  H -1.60104755 -1.28996146 -0.29141372
  C  0.33727721 -0.44961275 -0.95399518
  H  0.37104477 -1.22833830 -1.71055220
  H  0.56494297  0.51206321 -1.40796624
  C  1.17356635 -0.78934182  0.30440014
  C  2.14090629  0.29147342  0.67708549
  O  3.30991770  0.13405799  0.88250173
  H  1.68702979  1.29953140  0.69427191
  H  1.70166602 -1.74447615  0.30342174
  C -0.08613578 -0.84625474  1.14928927
  H -1.04772910  1.67572492  0.07277049
  H -2.46399386  0.91651320 -0.65904390
  H -2.20176123  0.80822208  1.08713992
