14
opt_min/./Product_335_0_opt.xyz
  C -1.03051000 -0.29427400  0.81477400
  H -1.92306696  0.11693926  1.26517466
  H -0.48009815 -0.95910944  1.46491186
  C -1.05037449 -0.60537521 -0.66778355
  H -1.95925131 -0.41825730 -1.22332943
  H -0.51050155 -1.47332125 -1.02146659
  C -0.29198775  0.52951445 -0.14440321
  C  2.41824643 -0.78011938  0.07072376
  O  1.97112763 -1.86815049 -0.13244620
  H  2.81443052 -0.14513269 -0.73795149
  H  2.46797013 -0.33510934  1.07666024
  C  0.41966099  1.60054944 -0.39534510
  H  0.69874143  1.84628955 -1.40813039
  H  0.76481390  2.25437530  0.38807764
