17
opt_min/./Product_10654_0_opt.xyz
  C  1.89771900 -0.45949400 -0.71867700
  C  1.12786169  0.53660281  0.11880248
  H  1.80345864  1.24455417  0.60663249
  O  0.11896615  1.24688030 -0.63336303
  C -0.93606580  0.79600755  0.20018125
  C -2.03178992  0.05377218 -0.54585595
  H -1.57471031 -0.61793775 -1.26945815
  H -2.63140660 -0.53753884  0.13990295
  H -2.67277522  0.75398024 -1.07032755
  H -1.36174002  1.62436640  0.77488670
  C  0.06851992 -0.05086771  1.08287243
  C -0.23866960 -1.45882235  0.96696710
  H -1.01079481 -1.71833618  1.71607255
  H  0.11759003  0.34809716  2.10042920
  H  2.54035018 -1.05279922 -0.07732419
  H  1.20104204 -1.12507183 -1.22050604
  H  2.48816386  0.05936522 -1.46637658
