13
opt_min/./Product_3383_0_opt.xyz
  C -1.87443619  0.83494044  0.43774398
  C  0.66092724 -6.94637331 -5.56517818
  N  9.69111261  5.21887468 -1.96167927
  C -9.37699699  10.90807123 -5.71663865
  C  11.61244188  10.44904636 -10.81282449
  C  3.96045782  3.55521012 -11.75474835
  H -2.46499510  4.37382777 -4.66724911
  H -5.52312466  1.78362663 -7.94357875
  H -1.97355398  0.47149868 -11.50241775
  H  9.82930255  1.51373465  6.39095643
  H -21.39111826  37.43823852  6.67747498
  H  11.81145071  10.87133858  18.41187508
  H -34.00268345  11.38968937  17.55786530
