16
opt_min/./Product_1212_0_opt.xyz
  C  2.44245500  0.27126300 -0.52905500
  C  1.14311810 -0.47501507 -0.80813081
  C -0.03383644  0.15956872 -0.07494864
  C -1.34262291 -0.54046889 -0.35994831
  C -2.55499040  0.13201203  0.24273802
  H -3.27641511 -0.62342196  0.55428180
  H -3.02883496  0.74236502 -0.52739764
  H -2.28139200  0.76375414  1.08281504
  O -1.42284890 -1.55331153 -1.00711102
  H  0.13741541  0.13433966  1.00786307
  H -0.13368418  1.21175432 -0.35990716
  H  1.25018125 -1.51686491 -0.49496113
  H  0.93917804 -0.46615601 -1.88306319
  H  2.38274467  1.30055210 -0.88744995
  H  2.64517962  0.28559541  0.54061891
  H  3.27941149 -0.21805039 -1.02808581
