12
opt_min/./Product_11936_0_opt.xyz
  N  2.48918500  0.41886900  0.36093200
  C  1.29544061 -0.01501580  0.19168445
  C  0.65279998 -1.27165680  0.06845676
  H  1.06525197 -2.25598128  0.05578547
  N -0.68928088 -1.04581140 -0.11500773
  H -1.37773669 -1.76333908 -0.27668229
  C -0.93857781  0.25866757 -0.11346982
  O -2.14445366  0.83156495 -0.28706754
  H -2.62561824  0.94652858  0.54430571
  N  0.23111090  0.90504981  0.08475630
  H  0.37053080  1.89880242  0.12631502
  H  3.16635099 -0.33204132  0.42950133
