11
opt_min/./Product_897_0_opt.xyz
  N  2.18459500 -0.21058100  0.22089000
  C  0.88652112  0.04921991  0.10969162
  C  0.28415981  1.34758398  0.13259281
  C -1.02514402  1.00496986 -0.03049376
  H -1.86541281  1.67575319 -0.08154954
  C -1.24230759 -0.48306678 -0.14377713
  H -1.67703950 -0.79755832 -1.09671688
  H -1.85374777 -0.87888622  0.67387674
  O  0.07233428 -1.00861694 -0.04008948
  H  2.82041490  0.55904308  0.32979379
  H  2.52989152 -1.15568280  0.18409419
