18
opt_min/./Product_9236_0_opt.xyz
  C  3.55581400 -0.23654600  0.00718900
  O  2.32392960 -0.13910068  0.38222179
  C  1.35448559 -0.95484370  0.14377944
  C -0.01541650 -0.60892985  0.62252821
  N -0.93205803 -0.36642806 -0.49215606
  C -0.53149762  0.79785666 -1.25746245
  H -1.23086318  0.94753944 -2.07665276
  H  0.45800589  0.62197662 -1.67548275
  H -0.49884233  1.71343667 -0.64721596
  C -2.30099972 -0.24763442 -0.03136086
  H -2.45001280  0.60568994  0.64742492
  H -2.58118732 -1.16297244  0.48458774
  H -2.95170292 -0.12397499 -0.89369861
  H -0.42794542 -1.44950218  1.18993588
  H  0.06158672  0.26729108  1.28678150
  H  1.50331995 -1.83216324 -0.47210502
  H  4.23149913  0.51895108  0.34705633
  H  3.89205177 -1.06992532 -0.58963475
