12
opt_min/./Product_5246_0_opt.xyz
  C -1.36762800 -0.70225700 -0.11497100
  C -0.14404478  0.11710315  0.22736556
  C  1.19425910 -0.46848185  0.09128594
  N  2.22149500  0.25858719  0.13423401
  H  3.10869621 -0.23011512  0.04277264
  H  1.19473057 -1.55675721 -0.06001077
  N -0.31100195  1.10117353  1.37923261
  C -0.23546820  1.58519194  0.23618710
  H -0.22643114  2.46234257 -0.36552746
  H -1.93237540 -0.93215492  0.78886431
  H -2.02337955 -0.15774153 -0.79588382
  H -1.08277425 -1.63981351 -0.58980541
