15
opt_min/./Product_7367_0_opt.xyz
  C -1.42263900 -1.15256000 -1.72788200
  H -0.97827612 -1.78959266 -2.44992222
  C -1.30925244 -0.37351942 -0.69391441
  C -0.53108557  0.29652745  0.35560920
  O  0.83450708 -0.03281104  0.21171797
  C  1.65892877  0.38629925  1.20735841
  C  2.95746266  0.13887643  1.20062927
  H  3.41378644 -0.40887398  0.39709897
  H  3.58559371  0.48239219  1.99940386
  H  1.18347922  0.94129297  2.01090720
  H -0.67432336  1.38742933  0.27269562
  H -0.90492340 -0.01904258  1.34370871
  C -2.70077007 -0.53532404 -1.22704976
  H -3.16094748  0.27370341 -1.78495069
  H -3.41438402 -1.14913063 -0.68677457
