15
opt_min/./Product_10471_0_opt.xyz
  C  0.52634600  1.15017400 -0.71605500
  H  0.82471046  2.15606620 -0.47033342
  H  0.20600581  1.02908395 -1.73722729
  C -0.14545849  0.33056155  0.38464436
  O -0.35760266  0.93244316  1.62686402
  H -1.29159379  1.17077058  1.66574188
  C -1.25203095 -0.63525228 -0.00092493
  O -2.48702834  0.05883680  0.07881361
  H -3.16880806 -0.45861781 -0.35351568
  H -1.24510031 -1.48425411  0.69625825
  H -1.06622519 -1.01385907 -1.01233968
  C  1.23071713  0.05204965 -0.03774451
  C  2.29532248 -0.68893524  0.12059298
  H  3.18269897 -0.53409300 -0.47577039
  H  2.33139286 -1.47034776  0.86063538
