15
opt_min/./Product_10973_0_opt.xyz
  C  1.63972900  0.94707000 -0.20103500
  C  0.98247950 -0.24670841 -0.86255947
  C  1.06656873 -0.53634383 -2.12537567
  C  0.25439302 -1.14723804  0.09747556
  H  0.93929170 -1.69404006  0.74789681
  C -1.08217418 -0.78953043  0.60240539
  C -1.84760360  0.40952730  0.09694923
  H -2.10271578  1.06478223  0.92566977
  H -2.76518401  0.07419281 -0.38331929
  H -1.26702850  0.96361989 -0.63745340
  H -1.32596564 -1.10340817  1.61668931
  O -0.87427071 -1.85567199 -0.28788843
  H  1.50914359  1.83376768 -0.81655936
  H  2.70741115  0.75774902 -0.09439333
  H  1.20716501  1.11405716  0.78251647
