21
opt_min/./Product_9778_0_opt.xyz
  C  2.32002200  0.61068800 -0.49446100
  C  1.00141318  0.75183502  0.13656036
  C  0.02316402 -0.35670770 -0.00449917
  C -1.17361178  0.26703258 -0.77353931
  C -1.78509426  1.51124821 -0.14322398
  H -2.17847455  1.29761595  0.84594095
  H -1.03679989  2.29335540 -0.05020051
  H -2.60074701  1.87317973 -0.76527746
  H -1.94293668 -0.50582321 -0.85905299
  H -0.83270800  0.51044497 -1.78222599
  C  0.44304805 -1.63674565 -0.73972226
  H  1.32700187 -2.07150346 -0.27506064
  H -0.36025228 -2.36843246 -0.70078279
  H  0.66645257 -1.43366355 -1.78625035
  C -0.39890370 -0.72605674  1.42959326
  H -0.58705959  0.16730266  2.01671420
  H -1.30050126 -1.33585021  1.40388704
  H  0.39137768 -1.29466638  1.91471925
  H  2.42794261 -0.11271075 -1.30986515
  H  2.95358320  0.27550827  0.33359153
  H  2.70302945  1.58738915 -0.79025035
