14
opt_min/./Product_9155_0_opt.xyz
  C -1.82827300 -0.67033800 -0.14221000
  C -0.58812108 -0.13740412  0.57642224
  H -0.75484469 -0.19395834  1.65877680
  N  0.58476412 -0.92738099  0.27990987
  C  1.47859752 -0.13116694 -0.17824413
  O  2.70070846 -0.51646859 -0.54829218
  H  2.76162751 -1.47789467 -0.45257521
  C  1.04378946  1.26008341 -0.25712046
  H  1.64640633  2.07136591 -0.61137169
  C -0.21524373  1.26907906  0.19435413
  H -0.87253342  2.11213986  0.28169124
  H -2.62971816  0.06189234 -0.09293386
  H -2.16440488 -1.59558424  0.31325402
  H -1.58743224 -0.86329199 -1.18390558
