9
opt_min/./Product_404_0_opt.xyz
  O -1.90500500 -0.50406900 -0.57296800
  C -0.62965152 -0.25980614 -0.28868078
  N -0.19696006  0.96534206  0.07447642
  H -0.70620766  1.82828736  0.16923390
  N  1.13298584  0.90111630  0.29672075
  C  1.42599431 -0.34888324  0.06088862
  H  2.41709254 -0.74164552  0.14804902
  N  0.36726482 -1.10970613 -0.30520484
  H -1.99230573 -1.43867663 -0.80205563
