14
opt_min/./Product_6635_0_opt.xyz
  O -1.79185500  0.98932300 -0.75665100
  C -2.11631053 -0.30121428 -0.30112688
  H -1.80295127 -1.11321543 -0.94568829
  H -3.10084798 -0.41169202  0.13958706
  C -1.10038547  0.51294364  0.37609968
  N  0.25402413  0.21556344  0.29886551
  C  1.40762986  0.72934244  0.86509061
  H  1.46441478  1.47772151  1.63341579
  C  2.25231247 -0.03199347  0.14831018
  H  3.30663180 -0.15814187  0.07909226
  C  1.06557906 -0.63496788 -0.57742186
  H  0.89204716 -1.69941877 -0.42514286
  H  0.97031288 -0.38311548 -1.63215743
  H -1.35848691  1.02557560  1.30150985
