17
opt_min/./Product_9563_0_opt.xyz
  C -1.31959200  1.08407700 -0.33348700
  H -0.95364946  1.98933241  0.12921263
  H -1.63643157  1.22361646 -1.35734864
  C -2.06572645  0.08480651  0.52475646
  H -2.17823849  0.33438852  1.57199095
  H -2.90914518 -0.45213630  0.11681373
  C -0.70782888 -0.21231141  0.02032031
  C -0.06861743 -1.30046841 -0.75712293
  H -0.50161063 -2.29133876 -0.72766077
  H  0.39037396 -1.03186676 -1.69727650
  C  0.58390098 -0.76126418  0.49781047
  C  1.83828246  0.08196986  0.40435238
  C  2.03915853  0.79797276 -0.84329272
  H  2.80391108  1.58286845 -0.71509774
  H  2.00935020  0.62944746  1.34804645
  H  2.71257761 -0.59293253  0.26754969
  H  0.54560787 -1.40114373  1.37694454
