11
opt_min/./Product_125_0_opt.xyz
  N -0.06000800  1.74526100  0.48235800
  C  0.21998104  0.54106356  0.29390555
  C -0.83634784 -0.45505847 -0.05961529
  O -2.12600055  0.05642884  0.09145526
  H -2.07043808  1.02350361  0.06774723
  H -0.74791884 -1.34063642  0.58231179
  H -0.64256795 -0.76262673 -1.10207410
  O  1.52264619  0.05368153  0.42587258
  C  1.88766052 -0.98386765 -0.27581123
  H  2.94758204 -1.17550992  0.01528955
  H  0.71855193  2.36085580  0.70327469
