9
opt_min/./Product_4594_1_opt.xyz
  C  1.33378700 -0.65839400  0.03148100
  H  1.69982156 -1.64418784 -0.08429073
  C  1.30134742  0.61278323 -0.16801601
  H  1.55964825  1.54422410 -0.59968355
  N  0.24635410  0.07681071  0.71119410
  C -1.07020670 -0.05403943  0.09206599
  H -1.63791694 -0.80496626  0.64363366
  H -1.03247478 -0.34674526 -0.96504254
  H -1.59616641  0.89868217  0.17684404
