12
opt_min/./Product_1269_0_opt.xyz
  C -1.87772500 -0.19150900  0.18263900
  N -0.44275511 -0.18391508  0.10859931
  C  0.34752926 -1.19878181  0.64127200
  C  1.61582048 -0.73719967  0.34610001
  H  2.55968086 -1.19845466  0.56159070
  N  1.56141075  0.47467839 -0.30488765
  H  2.34084176  1.02319204 -0.63376013
  C  0.27254330  0.79918792 -0.44139917
  H -0.10642202  1.68331330 -0.91186494
  H -2.30531520  0.42910746 -0.60436635
  H -2.21441338  0.18510256  1.15115922
  H -2.22594971 -1.21744260  0.08043271
