16
opt_min/./Product_11769_0_opt.xyz
  C  0.48245000  1.01450200 -1.02716800
  C -0.02413158  0.01180878  0.01385913
  C  1.12993451 -0.48880959  0.89382215
  H  1.85062787 -1.02142475  0.28012250
  H  1.63376443  0.34500643  1.37566834
  H  0.76045551 -1.15792200  1.66634698
  C -0.76268831 -1.17388299 -0.65002261
  H -1.76296715 -1.29835948 -0.24505414
  H -0.21854547 -2.09835094 -0.48410973
  H -0.85582157 -1.01186937 -1.71946091
  C -0.97316295  0.70128785  0.88805650
  N -1.57111265  1.74110504  1.20774882
  O -1.73543920  0.35127109  1.91925150
  H  1.06584343  1.80116696 -0.55716277
  H -0.34362698  1.48378827 -1.55222534
  H  1.11129940  0.49936794 -1.74983853
