13
opt_min/./Product_946_0_opt.xyz
  C -0.39899300 -0.70329300  0.34277300
  C  0.86135135  0.07120403  0.73533971
  C  1.59611407  0.60395481 -0.46171238
  C  2.78140851  0.57244611 -0.95789161
  H  0.96855216  1.20667046 -1.12517119
  H  1.53576416 -0.58474441  1.28972696
  H  0.60229272  0.90571600  1.39242955
  C -1.47378343  0.17222491 -0.29145489
  H -1.16209526  0.53364725 -1.26933613
  H -2.38326475 -0.40508257 -0.43619747
  H -1.71493140  1.02449970  0.33760409
  H -0.12185389 -1.49816068 -0.35345178
  H -0.80077821 -1.18333855  1.23674650
