11
opt_min/./Product_188_0_opt.xyz
  C  2.42533200  0.04243400 -0.08734500
  C  1.01642305  0.15950950  0.13366267
  N -0.13479784  0.25562043  0.30542769
  C -1.41650765  0.33589672  0.47363686
  C -2.32820669 -0.40516844 -0.32114798
  O -3.54086235 -0.37526430 -0.21517165
  H -1.83856839 -1.04747020 -1.08529908
  H -1.77512175  0.99411021  1.24686823
  H  2.70332232  0.41400323 -1.07662198
  H  2.75150898 -0.99520882  0.01096314
  H  2.94033971  0.63947273  0.66677121
