15
opt_min/./Product_10488_0_opt.xyz
  C -2.15618300 -0.75863200  0.26744700
  C -1.08856067  0.24886715  0.06510267
  C -0.99529123  1.58777225 -0.11526543
  H -1.64372548  2.43782585 -0.20705060
  N  0.41284831  1.58464035 -0.14909169
  H  1.11274740  2.26370148 -0.36949401
  C  0.38723816  0.17457227  0.00819985
  C  1.33176422 -0.75879554  0.06969421
  N  2.70086798 -0.53637848  0.05222044
  H  2.99075940  0.34360570 -0.34744154
  H  3.27327527 -1.31751818 -0.22525472
  H  1.03786595 -1.79114583  0.20055178
  H -2.42083623 -0.85094050  1.32491383
  H -3.05353309 -0.47483632 -0.28175179
  H -1.81905882 -1.73582311 -0.07809680
