16
opt_min/./Product_7995_0_opt.xyz
  C  3.62141201  0.19156707 -0.33359902
  C  2.23156399 -0.18271662 -0.49549991
  C  1.08126833 -0.49232945 -0.62645864
  C -0.31581157 -0.85383999 -0.78870832
  C -1.12627765 -0.52355844  0.46359692
  C -2.55562731 -0.30726860  0.12894757
  H -2.96184251 -0.36909326 -0.88309872
  H -3.31555925 -0.43217931  0.89062303
  N -1.69262219  0.87685619  0.31315910
  H -1.80780363  1.43082745  1.15463098
  H -1.53407148  1.44606709 -0.52044501
  H -0.37133212 -1.93612773 -0.94212547
  H -0.70307839 -0.37242223 -1.70891881
  H  4.21369325 -0.11402688 -1.19605324
  H  4.03425833 -0.28515518  0.55609765
  H  3.71070898  1.27340008 -0.22158280
