9
opt_min/./Product_7342_1_opt.xyz
  N -0.93324600 -0.90252200 -0.55152800
  C -0.32869680  0.14161830  0.05073385
  C  1.14079834  0.33145118 -0.20184730
  O  1.62185248  1.12741092 -0.96361379
  H  1.77742542 -0.28741164  0.46267314
  N -0.95599809  0.87724377  0.87393964
  H -0.43433318  1.66466184  1.24392132
  H -1.91485831 -1.05426724 -0.38806272
  H -0.43451379 -1.50739037 -1.17720731
