17
opt_min/./Product_9623_0_opt.xyz
  C  1.43831000  0.69491100 -0.28799800
  H  1.55517625  0.95323810 -1.32973213
  H  1.78252703  1.46276206  0.38967241
  C  1.64002210 -0.73975494  0.11284538
  H  1.87503742 -1.45527720 -0.66145437
  H  2.11740250 -0.94826695  1.05870300
  C  0.26778145 -0.14963517  0.12432893
  C -0.48825428  0.19726081  1.39850909
  H  0.04352117  0.85124297  2.08996788
  H -0.73266768 -0.71674158  1.95998276
  C -1.82679579  0.70279275  1.02496217
  C -1.99238154  0.37610009 -0.41167589
  H -2.97973526 -0.06015941 -0.58300437
  H -1.99687488  1.34398634 -0.92122926
  C -0.81754525 -0.50305010 -0.87610708
  H -1.08939677 -1.55796378 -0.77890690
  H -0.52407713 -0.31889886 -1.90780942
