7
opt_min/./Product_9683_1_opt.xyz
  C -0.64412700  0.72510800 -0.26990700
  H -1.14676724  1.51074660 -0.76143234
  C  0.27044043 -0.14417405 -0.01430694
  O  1.47383339 -0.66873813 -0.12176927
  H  2.05490152 -0.09281430 -0.63436296
  N -0.98323977 -0.48520979  0.60932990
  H -1.47786377 -1.22607897  0.09147663
