15
opt_min/./Product_8150_0_opt.xyz
  C  2.17661300  0.04682800  0.07784000
  C  0.67821004  0.01342332  0.03721085
  C -0.00562513 -1.19871134  0.03988786
  H  0.55812434 -2.11798528  0.09248040
  C -1.38680094 -1.22830759 -0.02113476
  H -1.90849348 -2.17441841 -0.01658487
  C -2.10710213 -0.04819942 -0.08664104
  H -3.18499428 -0.06580241 -0.13325340
  C -1.43550741  1.16307575 -0.09005453
  H -1.98897117  2.08929538 -0.13924122
  C -0.05472660  1.19229720 -0.02882029
  H  0.46207609  2.14163075 -0.03021870
  H  2.53422891  0.95038101  0.56095593
  H  2.57889647  0.02686783 -0.93504882
  H  2.57469666 -0.81156540  0.61171632
