12
opt_min/./Product_4919_0_opt.xyz
  O  2.67332788 -1.19385914 -0.42117069
  C  10.64855112  19.40090565  8.32876042
  C  12.78567905  6.67634560  6.89652188
  H  9.21325867 -0.28485786  3.13130901
  C -14.32734307  9.45455339 -7.93654277
  O -13.58757334  4.86117609  11.07001266
  C  2.81243239  1.35639586 -15.23663714
  H -3.10597666 -1.71915844  1.77771565
  H -5.07895065 -3.51949275  1.61867235
  H -3.79865356  0.99115754  0.01433748
  H -13.26317498 -11.26602834  6.07258252
  H  10.37680760 -21.38907802  6.90941814
