14
opt_min/./Product_7898_0_opt.xyz
  C  0.74548800 -1.27356400  0.98963200
  C  0.72559080  0.05416867  0.28824718
  N  1.87315681  0.57720815  0.03479600
  O  1.84066677  1.80946993 -0.64173717
  H  2.77505243  2.03430905 -0.74307996
  C -0.51779384  0.65451329 -0.05071909
  O -1.64000081  0.04866578  0.20949774
  C -2.82570210  0.48691309 -0.04141579
  H -2.98966322  1.44787627 -0.50488283
  H -3.63867988 -0.15110147  0.24502141
  H -0.53185034  1.62721842 -0.52842907
  H  0.98113704 -2.06314059  0.27881202
  H -0.21912196 -1.48105827  1.43942181
  H  1.51375141 -1.27343865  1.75587387
