8
opt_min/./Product_5760_0_opt.xyz
  O  2.20511700 -0.11751600  0.50450400
  C  1.19447567  0.20433094 -0.05855986
  C -0.07852033 -0.51998634  0.05428363
  H -0.02640023 -1.46264762  0.58916183
  N -1.08899257 -0.40792599 -1.06839829
  C -1.35880726  0.20036507 -0.01961437
  H -2.06741131  0.82291343  0.47079863
  H  1.14569570  1.10276729 -0.70803194
