13
opt_min/./Product_2101_0_opt.xyz
  C  2.07175200  0.47087000  0.20020900
  C  0.76266177  0.21438581  0.08187751
  C -0.34125226  1.16162888  0.18887793
  H -0.18086606  2.20469886  0.38283248
  C -1.49940932  0.52606331  0.01060605
  H -2.48195862  0.95866770  0.03047674
  C -1.25515881 -0.93191506 -0.23359716
  H -1.64942241 -1.25103120 -1.21115531
  H -1.74095790 -1.55535550  0.53350980
  N  0.17552625 -1.00284883 -0.16656980
  H  0.69643164 -1.84793924 -0.29530703
  H  2.80635927 -0.30778410  0.10194036
  H  2.41212047  1.46869831  0.39735675
