14
opt_min/./Product_5037_0_opt.xyz
  C -1.31706679  0.17629896  0.75157315
  H -1.37090552  0.92111501  1.52686497
  H -1.87622170 -0.71906623  0.95787759
  C -1.24665970  0.65525400 -0.67258005
  H -1.74806153  0.06130084 -1.41783495
  H -1.27910897  1.71485855 -0.87433883
  C -0.03582706  0.07310353 -0.01952359
  C  0.77626447 -1.18682116 -0.36441398
  H  0.56131843 -2.05898807  0.24840737
  H  0.77647651 -1.45660184 -1.41636840
  C  1.97269199 -0.36272990  0.05306695
  H  3.02097853 -0.57245799  0.11175868
  C  1.25381081  0.73128514  0.32177790
  H  1.49668265  1.71845195  0.66073576
