14
opt_min/./Product_10572_0_opt.xyz
  C -2.03111900  0.71350800  0.22201300
  O -1.84655885  0.13988415 -1.04194989
  C -1.05532928 -1.03578632 -1.04279474
  C  0.35699112 -0.91026514 -0.63686611
  C  1.13417737  0.02308177 -0.09693232
  O  1.35549223  0.16433298 -1.38615927
  N  1.78159130  0.53086004  0.94346655
  H  2.64965959  1.01412998  0.77495986
  H  1.60975101  0.16115289  1.86157461
  H -1.49526302 -1.78658774 -0.36199766
  H -1.11228341 -1.40974770 -2.06642118
  H -2.70599660  1.55615948  0.08741524
  H -1.08410383  1.07460257  0.64512437
  H -2.47623915 -0.00783243  0.92157911
