7
opt_min/./Product_3094_0_opt.xyz
  O  2.38658000 -0.42864700 -0.43973600
  C  1.23538164 -0.20509984 -0.29180640
  N  0.11198553 -0.94748830 -0.52301331
  N -0.86933480 -0.18141013 -0.17159938
  H -1.83504060 -0.48875983 -0.24098850
  N -0.57519016  0.98197730  0.26819399
  O  0.74501175  1.05007520  0.22536336
