11
opt_min/./Product_898_0_opt.xyz
  N  2.05191600 -0.30529100 -0.03483200
  C  0.68377020 -0.10468987 -0.06194647
  C -0.08041733  1.00673167  0.13595107
  H  0.26909089  2.00207316  0.31541510
  C -1.42842771  0.55887939  0.07201297
  H -2.30958519  1.16116895  0.18251357
  C -1.38149481 -0.77253664 -0.16266887
  H -2.13550321 -1.52549765 -0.28451191
  O -0.08900575 -1.19161283 -0.25008563
  H  2.59374918  0.52961579 -0.19696766
  H  2.34918839 -1.09508579 -0.58951279
