11
opt_min/./Product_123_0_opt.xyz
  N  1.38485200  0.80391000 -0.44539200
  H  1.55639835  1.64431447  0.09260277
  C  0.21100518  0.11323104 -0.12902712
  C  1.49940035 -0.47320517  0.27397257
  H  1.74679287 -0.47117976  1.32732703
  H  1.91885541 -1.26789133 -0.32568588
  O -0.69529160 -0.39835678 -1.06820983
  C -1.70952768 -0.08134337 -0.13791733
  H -2.20933885 -0.96376775  0.27957695
  H -2.45119742  0.62463847 -0.53084845
  O -0.80141446  0.52095388  0.76000505
