16
opt_min/./Product_1216_0_opt.xyz
  C  1.29623800  0.95753700 -0.61127100
  H  1.74138927  1.35137144 -1.50845525
  H  1.00175885  1.72251614  0.08891589
  C  1.79107070 -0.34847351 -0.06992023
  H  2.57862975 -0.85753842 -0.59927424
  H  1.82494787 -0.48027089  0.99709660
  C  0.43712334 -0.26745965 -0.71353094
  C -0.83170922 -0.38181985  0.09956470
  C -1.97388270  0.36761763 -0.58700907
  H -2.90149714  0.21722272 -0.04469588
  H -2.10837261  0.01690925 -1.60740996
  H -1.75602135  1.42985804 -0.61495663
  O -1.17247087 -1.73430602  0.34228385
  H -1.30393537 -2.17698014 -0.50373799
  H -0.67593905  0.02332307  1.10377808
  H  0.33834398 -0.71082902 -1.69880281
