17
opt_min/./Product_8420_0_opt.xyz
  O  1.11694300 -0.91806600 -0.94458900
  C  1.46859541 -0.07834005 -0.14520194
  C  2.87877590  0.46957971 -0.14017080
  H  3.53020535 -0.19204219 -0.70619360
  H  3.25590343  0.60010325  0.86919281
  H  2.86926484  1.44266267 -0.63100798
  C  0.60689855  0.51037449  0.89566854
  C -0.67450880  0.21167482  1.13053788
  C -1.53170620 -0.75483194  0.39075482
  C -2.76690263 -0.05627671 -0.17389822
  H -2.47526894  0.72599091 -0.87119332
  H -3.36154928  0.39520082  0.61801096
  H -3.38451008 -0.77529042 -0.70634666
  H -1.85447595 -1.53197420  1.09000172
  H -0.96192768 -1.22182119 -0.41130212
  H -1.18023800  0.73392339  1.93691290
  H  1.08772971  1.25259115  1.51853552
