13
opt_min/./Product_1147_0_opt.xyz
  C  0.47676200 -1.54629400 -0.10381000
  C  0.02630136 -0.11416381 -0.01696482
  C -0.08301341  0.65249789 -1.29905175
  H -0.48150800  1.64412521 -1.10726937
  H  0.89885274  0.74992529 -1.76470432
  H -0.73621620  0.12975334 -1.99754804
  C -0.26695378  0.43508376  1.15566687
  O -0.69427090  1.73851954  1.27728615
  H -0.83891208  1.94616149  2.20382702
  H -0.18170659 -0.12923070  2.07523471
  H  0.78089930 -1.78000064 -1.12040106
  H  1.32016306 -1.73417772  0.56032601
  H -0.32722234 -2.22604525  0.17852056
