16
opt_min/./Product_8686_0_opt.xyz
  C  2.91395100 -0.44771000 -0.34315300
  N  1.65328871 -0.16903533  0.30295312
  C  0.51346248 -0.14232832 -0.48487509
  C -0.52955965  0.66105975 -0.26394976
  O -0.51693235  1.58772634  0.76692827
  H -1.26576962  2.17565021  0.62242856
  O -1.69154886  0.63336324 -0.99719274
  C -2.67164127 -0.27107150 -0.50837629
  H -3.55140842 -0.12682707 -1.13055034
  H -2.92363059 -0.06538903  0.53668808
  H -2.32158966 -1.30397032 -0.59514800
  H  0.46723222 -0.85657112 -1.29122102
  H  1.68409151  0.63012521  0.92056294
  H  3.63235921 -0.76978944  0.40942641
  H  2.77169760 -1.25843287 -1.05480556
  H  3.33713344  0.41033513 -0.87996229
