13
opt_min/./Product_9772_0_opt.xyz
  O  2.07496601 -2.38594300  0.77680098
  C  0.71560789 -2.41462817  0.39120728
  C  0.24045739 -1.12734631 -0.09199607
  C -0.08473443 -0.03562310 -0.48188541
  C -0.47495154  1.22590168 -0.96903200
  C -1.02488778  2.15831008 -0.19136660
  O -1.41465476  3.36348883 -0.68500653
  H -1.72497353  3.94338535  0.01686348
  H -1.19919882  1.97735051  0.86426532
  H -0.31028209  1.41888652 -2.01919012
  H  0.64874880 -3.16056448 -0.40851727
  H  0.08389505 -2.74275602  1.23386473
  H  2.21215540 -1.66502114  1.40140138
