14
opt_min/./Product_6252_0_opt.xyz
  C -1.99523500  0.32709500  0.40166400
  C -1.02320251  0.45091262 -0.72840643
  C  0.27537664  0.14646057 -0.67067293
  C  0.96704756 -0.35860000  0.49216189
  C  2.27227544 -0.65007648  0.54930155
  O  3.18370715 -0.53533945 -0.44125775
  H  2.75869958 -0.18549320 -1.23491444
  H  2.72618350 -1.02833320  1.45429013
  H  0.38701791 -0.51673444  1.38643136
  H  0.86765856  0.28395820 -1.56953606
  H -1.42804616  0.81203017 -1.66385290
  H -2.18209864 -0.72239413  0.63210348
  H -1.60961773  0.80276872  1.30226067
  H -2.94316557  0.79212295  0.14479241
