15
opt_min/./Product_11095_0_opt.xyz
  C -1.65468900  1.04976100  0.21480700
  C -0.73619781 -0.14789387  0.17795481
  H -0.79933844 -0.79506514  1.05469240
  C -0.38485643 -0.80178216 -1.10354079
  H -0.22573896 -1.87530944 -1.11533750
  H -0.76813686 -0.38530192 -2.02531369
  N  0.56547212  0.03302825 -0.40818848
  C  1.73150102 -0.57586483  0.18913599
  C  2.62066309  0.23987336  0.98732849
  H  2.16538326  1.22550885  1.18499135
  H  2.31751318 -1.09102396 -0.58508663
  H  1.47428511 -1.37874726  0.91600770
  H -1.25080824  1.83227441 -0.42250331
  H -1.74516574  1.43619713  1.22689369
  H -2.64527273  0.77930061 -0.14702033
