13
opt_min/./Product_106_0_opt.xyz
  C -1.54003700  0.17226100  0.34632800
  H -2.44225525  0.74266205  0.16137187
  H -1.66184901 -0.60896073  1.08668158
  C -0.60069322 -0.04634907 -0.80055586
  H -0.85080653  0.13947506 -1.83185014
  C -0.24493822  0.92245911  0.29408160
  H -0.13075705  1.99371911  0.30667861
  N  0.85641462  0.05838066  0.74258417
  H  0.97501774 -0.14642976  1.72799256
  C  1.88955688 -0.32341560 -0.24701195
  H  2.01220739  0.50035763 -0.97006086
  C  0.54945500 -0.93439531 -0.32281436
  H  0.36870417 -1.97100618 -0.06191413
