13
opt_min/./Product_6607_0_opt.xyz
  C -2.25731800  0.57789200  0.30862800
  C -1.14483774 -0.04450935  0.65651407
  C -0.05629254 -0.41915046 -0.29626802
  N  1.21855386  0.13296617  0.13922823
  C  2.36016383 -0.17614825 -0.49198811
  O  2.45482129 -0.91361812 -1.44175128
  H  3.23970192  0.32701650 -0.04684105
  H  1.22553712  0.75286047  0.92996329
  H -0.28220157 -0.06262419 -1.30309576
  H  0.04885280 -1.50796223 -0.34419928
  H -0.97507960 -0.31899081  1.68836131
  H -3.01931429  0.82028259  1.02928066
  H -2.45007799  0.85486544 -0.71509027
