15
opt_min/./Product_11378_0_opt.xyz
  C  1.73838700 -0.08546000 -0.14364400
  C  0.39186106 -0.28591435  0.53044421
  H  0.52260813 -0.74733360  1.51526782
  C -0.47614648  0.97399997  0.60593727
  H  0.01025602  1.83846810  0.14716097
  H -0.77322034  1.24142139  1.61907181
  C -1.67766125  0.53039043 -0.19422276
  H -2.41385061  1.25929868 -0.51403915
  O -1.20483558 -0.33255634 -1.26844930
  C -0.53391990 -1.17794613 -0.28525971
  H -0.14680238 -2.10073144 -0.70175390
  C -1.99627676 -0.92540573 -0.18499747
  H  1.59657130  0.30127349 -1.15434891
  H  2.27291780 -1.02974091 -0.22576189
  H  2.35215651  0.61688497  0.41388589
