12
opt_min/./Product_7984_0_opt.xyz
  N  2.25172900 -0.00500000 -0.04527000
  C  0.92038395 -0.24909215  0.05970506
  N  0.49684200 -1.46364789  0.24789777
  C -0.82064062 -1.77920635  0.34878418
  C -1.71975063 -0.66489044  0.09831437
  H -2.78345523 -0.84770740  0.09386235
  C -1.26489625  0.60139918 -0.04512054
  H -1.89546915  1.47810327 -0.14203700
  N  0.08336009  0.82613230 -0.04042955
  H  0.45115831  1.76635683 -0.10220297
  H  2.62043963  0.92664444  0.03332382
  H  2.86140539 -0.77567334  0.16129196
