14
opt_min/./Product_10946_0_opt.xyz
  C  1.95230400 -0.09862600 -0.06814700
  C  0.50118652 -0.41295350 -0.14638333
  C -0.61037159  0.33381134 -0.00241683
  N -0.72855929  1.69225396  0.18122109
  H -1.56706775  1.98452040  0.66004737
  H  0.10395432  2.16138200  0.50507535
  C -1.78565730 -0.57543052 -0.20455306
  H -2.43731328 -0.63511283  0.66836413
  H -2.40266171 -0.29627610 -1.05902904
  C -1.14258237 -1.92305336 -0.46912855
  O  0.13351418 -1.73487914 -0.42305963
  H  2.47397180 -0.87646261  0.48676007
  H  2.10065880  0.85659213  0.43278113
  H  2.39330532 -0.03876881 -1.06392353
