13
opt_min/./Product_8874_0_opt.xyz
  C  2.47080300 -0.59566300  0.27881500
  N  1.27942819 -0.14112640  0.12782231
  C  1.06093155  1.34559094  0.17119435
  C -0.29535429  1.42956157  0.06335713
  H -0.86969834  2.33794239  0.06122975
  C -0.89644444  0.12905890 -0.10976250
  N -2.19918931 -0.09941260 -0.35143254
  H -2.56644788 -1.03576360 -0.37491698
  H -2.85735004  0.64862500 -0.21525654
  C  0.12153676 -0.81178071 -0.07834166
  H  0.06628181 -1.88080576 -0.15443636
  H  3.26413606  0.11197660  0.44186621
  H  2.67542257 -1.65528557  0.25966193
