11
opt_min/./Product_11445_0_opt.xyz
  N  2.23278700  0.01481400  0.21182500
  C  0.90020041 -0.00256903  0.08801464
  N  0.23621228  1.20249779  0.13704923
  C -1.00336841  1.17792669  0.02655009
  O -2.03879211  1.72144576 -0.01921674
  N -1.15625268 -0.77868140 -0.15828292
  H -1.54088162 -1.04357711 -1.06397392
  H -1.68527275 -1.22873401  0.58706705
  N  0.21854958 -1.09344570 -0.06991084
  H  2.68634039  0.90418298  0.29648063
  H  2.75230437 -0.83800261  0.14875146
