14
opt_min/./Product_6950_0_opt.xyz
  O  2.78304294  0.85645055  0.87536504
  C  2.73441504 -0.13822277 -0.06382146
  N  1.49763700 -0.33316070 -0.47502792
  C  0.28122053  0.35595315 -0.07698634
  C -0.84470502 -0.64340293  0.19442382
  C -2.07204121  0.04839517  0.52660325
  C -3.08004384  0.63859806  0.78820695
  H -3.95898590  1.15621799  1.02361187
  H -1.01233503 -1.26154684 -0.69446263
  H -0.56906246 -1.30440751  1.02194479
  H -0.02435887  1.05315902 -0.86639585
  H  0.50889036  0.93081457  0.82304337
  H  1.38449914 -1.03976006 -1.18883488
  H  3.70318114  0.97511027  1.13339337
