15
opt_min/./Product_9106_0_opt.xyz
  C -1.67414000 -0.96891000  0.26286600
  H -1.99466975 -1.27772457 -0.71945094
  H -2.22082100 -1.39815932  1.08748158
  C -0.19864426 -0.74554812  0.42429353
  O  0.59828860 -1.02549114 -0.67988093
  C  1.74985274 -0.31748994 -0.80404363
  C  2.23538889  0.62523646 -0.01654078
  H  1.71587298  0.97767552  0.85604594
  H  3.17483207  1.08893514 -0.24694115
  H  2.27199406 -0.65605165 -1.69126608
  H  0.26951592 -0.99428696  1.37462440
  C -1.14224045  0.43249878  0.40053257
  O -1.09519956  1.26926437 -0.70623800
  H -1.98492412  1.58411678 -0.90951884
  H -1.31406034  0.94864476  1.34369518
