10
opt_min/./Product_5278_0_opt.xyz
  C -0.05365300 -1.32487800  0.09700800
  C  1.08554522 -0.54244656  0.37329084
  H  2.01563272 -0.99662527  0.69220489
  N  1.11904861  0.78697403  0.26130098
  H  1.96594886  1.32377972  0.45760698
  N  0.10605798  1.53709777 -0.10027110
  C -1.01638042  0.89396547 -0.37184804
  H -1.83548811  1.53834666 -0.66586340
  C -1.13157916 -0.48758872 -0.29565700
  H -2.08275473 -0.93806993 -0.54542279
