11
opt_min/./Product_1627_0_opt.xyz
  N  1.49993000  1.19277000  0.54961500
  C  0.91674477  0.17713926  0.09283923
  O  1.50049543 -1.02197021  0.16014629
  H  2.35735950 -0.93162469  0.60042167
  C -0.42237409  0.10702387 -0.59927490
  H -0.35995980  0.06687605 -1.68440683
  C -1.57388638 -0.52588469  0.05243755
  H -1.44946818 -0.90745035  1.05713321
  H -2.33317357 -1.00320541 -0.55302427
  O -1.46901543  0.86190887 -0.08022178
  H  0.98131276  2.05595529  0.46617750
