9
opt_min/./Product_6346_1_opt.xyz
  O  0.01372800 -1.35138000 -0.41230000
  C  1.07852332 -0.53579125 -0.34308542
  H  2.04831187 -0.99295334 -0.31461329
  C  0.68832925  0.76521054 -0.32236457
  H  1.32176806  1.62662870 -0.27035304
  C -0.72919212  0.74418895 -0.38383501
  H -1.39071177  1.58551155 -0.38800482
  C -1.07643316 -0.56826952 -0.43655034
  H -2.03059103 -1.05556431 -0.49155645
