9
opt_min/./Product_3426_0_opt.xyz
  C -1.81472000 -0.03576600 -0.40438000
  H -2.37635733  0.76685609  0.05437040
  H -2.33594188 -0.97351816 -0.54524275
  C -0.38025115  0.01016205 -0.43360856
  N  0.71402270 -0.20053608  0.09130644
  C  2.01014173  0.03640082 -0.28191081
  O  2.55589782  1.09839866 -0.28006473
  H  2.52970900 -0.92774934 -0.44641481
  O -0.99539768  0.37287965 -1.54274691
