11
opt_min/./Product_4495_0_opt.xyz
  C -1.55045600  0.62970600 -0.08569300
  C -0.51322117 -0.26963117  0.53321399
  H -0.90127128 -1.09200311  1.12454988
  C  0.83291729 -0.37504246  0.00305863
  O  1.62616171 -0.87032856 -0.95525113
  C  2.90923426 -0.76920866 -0.91941468
  H  3.27274184 -0.23696545 -0.01355354
  N  0.78656099  0.33692201  1.03737143
  H -1.07497049  1.44549738 -0.62486213
  H -2.17176392  0.06339093 -0.77589371
  H -2.18725536  1.05153248  0.68873849
