15
opt_min/./Product_10500_0_opt.xyz
  C  2.53236700 -0.24376100  0.06218700
  C  1.17257959 -0.03717418 -0.05212001
  C  0.56686288  1.24122905 -0.15315124
  H  1.05597443  2.20043173 -0.14523370
  N -0.75776935  1.15609248 -0.34222131
  H -1.37809616  1.88194370 -0.01320386
  C -1.18621262 -0.23479455 -0.24037905
  N -2.11378384 -0.36848503  0.87582883
  H -2.99003507  0.10832903  0.67172724
  H -2.32630100 -1.34871691  1.02760246
  H -1.66379670 -0.50681510 -1.21055839
  C  0.10463649 -0.95679423 -0.06996203
  H  0.17713629 -2.02515387 -0.05112745
  H  3.21738113  0.58126292  0.04044751
  H  2.93299550 -1.23179579  0.17198292
