9
opt_min/./Product_8025_0_opt.xyz
  C  0.20210502  0.92802302  0.15100885
  C -0.91050464  0.28786429 -0.08578179
  C -2.00269025 -0.36199899 -0.31947542
  H -2.60919853 -0.75448044  0.48270306
  H -2.36161953 -0.52224970 -1.32507460
  C  1.45401081  0.27823583  0.22883681
  C  2.52313309 -0.26436454  0.30153398
  H  3.45255577 -0.74782491  0.35483116
  H  0.20874882  2.00677183  0.26996950
