13
opt_min/./Product_7918_0_opt.xyz
  C  1.87116600 -0.17524900 -0.90426400
  O  0.89859511 -0.75011210 -0.05603927
  C -0.27095656 -0.08301323  0.12952261
  N -0.65898156  0.99674579 -0.40036123
  H -0.01046913  1.44590881 -1.03464611
  N -1.05123251 -0.75034463  1.04990144
  C -2.10874978 -0.26861855  1.77266989
  O -2.53747497  0.89591716  1.44006647
  H -2.07900330  1.30396918  0.66089297
  H -0.68044737 -1.64925451  1.32353490
  H  2.72437946 -0.84824418 -0.87100760
  H  2.17257275  0.81373477 -0.54541051
  H  1.50235574 -0.10141570 -1.93141968
