10
opt_min/./Product_1258_0_opt.xyz
  N -0.55426000  0.89772900 -0.01252900
  H -1.09782172  1.72550706 -0.18732640
  C -1.10196681 -0.41199607  0.30288686
  H -1.61372770 -0.39786027  1.26984670
  H -1.82730566 -0.71420028 -0.45559347
  C  0.05144684 -1.35738800  0.37602166
  C  1.15777992 -0.53319504  0.09861999
  H  2.17585844 -0.87370108  0.06886296
  C  0.76369140  0.77091731 -0.13263779
  H  1.36659291  1.63372542 -0.37327189
