15
opt_min/./Product_6408_0_opt.xyz
  C  2.42003900  0.49087300  0.28795800
  C  1.94655621 -0.28914596  1.47025840
  O  0.76299086 -0.78196822  1.42055610
  C -0.15895488 -0.71305667  0.35061714
  N -0.22262252 -1.55495396 -0.56677252
  H  0.48711066 -2.28041775 -0.56237403
  C -1.16131600  0.38970930  0.49476072
  N -1.77085342  0.71403626 -0.77981620
  H -2.66937685  1.16049479 -0.64230886
  H -1.90764855 -0.13947407 -1.30994323
  H -0.66806870  1.28498383  0.89355420
  H -1.87514856  0.04071865  1.26524623
  H  2.84876163  1.42639963  0.64088058
  H  1.68223545  0.67964865 -0.49748465
  H  3.25428919 -0.08822379 -0.11677556
