12
opt_min/./Product_539_0_opt.xyz
  C -2.02828300  0.63178100 -0.21059100
  C -1.66921131 -0.60508029  0.08754329
  O -0.41207943 -1.09065540  0.27162142
  C  0.64474289 -0.20072216  0.14097972
  O  1.84560961 -0.95208740  0.40224357
  C  2.99269541 -0.44364618  0.41848039
  H  3.00893776  0.65479484  0.21615398
  H  0.57373836  0.62451170  0.87006045
  H  0.70199027  0.21211683 -0.88074278
  H -2.38081980 -1.40612319  0.22497081
  H -1.33366639  1.44095180 -0.35089306
  H -3.06492702  0.88251438 -0.32947812
