17
opt_min/./Product_11439_0_opt.xyz
  C -1.36902300 -1.01808900 -0.07322900
  C -0.34218271  0.06421996  0.28247032
  O -0.09329125  0.08472766  1.67712773
  H -0.93647693  0.19902812  2.12994073
  C -0.82675986  1.43968413 -0.19994889
  H -0.91798713  1.43982435 -1.28205835
  H -1.79468341  1.67193038  0.24014042
  H -0.11571421  2.20675932  0.09541526
  C  0.97176225 -0.25120003 -0.45016939
  C  2.18622898 -0.37805867  0.41857651
  H  2.40000619  0.59704190  0.85053034
  H  1.98935438 -1.05865135  1.24006874
  H  3.03439942 -0.71062677 -0.17252907
  O  0.99725516 -0.35731666 -1.65051644
  H -1.42079363 -1.13133555 -1.15191047
  H -1.07345462 -1.96805778  0.36586571
  H -2.35407861 -0.74667739  0.30140744
