13
opt_min/./Product_8122_0_opt.xyz
  C  2.48711900  0.24025600  0.10497300
  N  1.16128486  0.80558969  0.16697850
  C  0.17472667  0.09097693  0.36156944
  O -0.23399608 -1.17883394  0.55369827
  C -1.23401910 -0.11989022  0.51252355
  C -2.18257615 -0.11893200 -0.65549936
  H -2.99407631 -0.82327545 -0.47995048
  H -2.59923056  0.87689706 -0.78376455
  H -1.65665641 -0.41323475 -1.56138946
  H -1.68500062  0.07112551  1.48307469
  H  3.07845019  0.67936847  0.90788834
  H  2.49557411 -0.85076603  0.20126803
  H  2.92338266  0.52833680 -0.85075405
