8
opt_min/./Product_5656_1_opt.xyz
  C  0.33102120  0.69792783  0.03205162
  H  0.57207933  1.73114810  0.13168290
  C  0.96655411 -0.44484041 -0.23310646
  H  1.96177225 -0.78434621 -0.44888491
  O -0.11804826 -1.28293703 -0.15997469
  C -0.92907797 -0.12308336  0.14112185
  H -1.37527279 -0.20023526  1.13109493
  H -1.69685366  0.03029714 -0.61454973
