9
opt_min/./Product_9009_0_opt.xyz
  N  3.04639600  0.91643200 -0.61776500
  C  1.95478834  0.57288079 -0.57073776
  C  0.61281044  0.16323990 -0.49650664
  C -0.24622511  0.16562312  0.62915763
  H -0.03372023  0.47713617  1.63018994
  N -1.41612591 -0.29946219  0.24116773
  N -1.26167091 -0.56245382 -1.03656087
  H -2.01087647 -0.93701719 -1.59948735
  N -0.08169829 -0.30940138 -1.53096888
