14
opt_min/./Product_4981_0_opt.xyz
  O -2.18657800 -0.49845100  0.60822200
  C -2.02191450  0.40687481 -0.44433073
  H -1.88358490  1.43842142 -0.14912627
  H -2.66509239  0.25099537 -1.30166139
  C -0.98603078 -0.56828659 -0.10538049
  C  0.28063483 -0.18083849  0.62143065
  C  1.49742773 -0.21204251 -0.31690365
  O  2.69878754  0.08273396  0.34805591
  H  2.69832787  1.00728500  0.61225400
  H  1.33167582  0.47705529 -1.15571835
  H  1.62721831 -1.21592120 -0.72393117
  H  0.45064801 -0.87442257  1.44533556
  H  0.17035090  0.81880919  1.04646225
  H -0.89209736 -1.44041767 -0.74590346
