12
opt_min/./Product_6136_1_opt.xyz
  O  1.89059900 -0.75673800 -0.45188500
  C  1.15234786 -0.10498538  0.57796097
  C -0.22805252  0.19181594  0.12294463
  C -0.98582330  1.26387869 -0.14557994
  H -0.90636019  2.33190769 -0.11526376
  O -2.12269886  0.59264675 -0.52572976
  C -1.41596361 -0.64794061 -0.28863367
  H -1.89617735 -1.23392201  0.49080728
  H -1.31736337 -1.22779305 -1.20214429
  H  1.62446521  0.84033828  0.86535765
  H  1.13179228 -0.76746822  1.45160429
  H  2.67052071 -0.24236917 -0.66914844
