15
opt_min/./Product_8789_0_opt.xyz
  O -0.66003500  1.84047400  1.63064100
  C -0.47572196  0.98262040  0.80594500
  C -1.39165333 -0.19355405  0.53360651
  H -1.78133693 -0.62784820  1.44982904
  H -2.23905286  0.21947510 -0.02008828
  C -0.61491306 -1.16739755 -0.36485062
  H -0.24190629 -1.99957549  0.23585106
  H -1.23220844 -1.57973639 -1.15866271
  C  0.55509725 -0.36903367 -0.92053736
  H  0.76288234 -0.42889764 -1.97574551
  C  1.67331808 -0.15609814  0.04716710
  H  2.66519414  0.03785052 -0.32838374
  H  1.66521643 -0.69023557  0.98418439
  C  0.64670860  0.93183463 -0.16892066
  H  0.96410403  1.86949658 -0.59895163
