12
opt_min/./Product_5747_0_opt.xyz
  C -1.27706000 -0.47246300 -0.54779600
  C  0.05298737 -0.09270279  0.09412133
  O  1.11787730 -0.26319440 -0.87467809
  C  2.28694535 -0.62863044 -0.59193407
  H  2.43577362 -0.85005781  0.49563509
  C  0.04359309  1.35118537  0.56454184
  O -0.76995831  1.80693567  1.31033978
  H  0.87385679  1.95630373  0.14954971
  H  0.25625595 -0.72275983  0.97339506
  H -1.36273179  0.02584155 -1.51076939
  H -2.09287647 -0.15352216  0.09541708
  H -1.33776257 -1.54574556 -0.70342793
