12
opt_min/./Product_5791_0_opt.xyz
  C  2.01120300 -0.14142900  0.04479100
  C  0.71179859 -0.00925748  0.23774782
  C -0.43486190 -0.22329826 -0.71490818
  H -0.48745689 -1.27244714 -1.00444736
  H -0.32658395  0.38033770 -1.61170122
  C -1.64642489  0.19210944  0.14340496
  H -2.42476329 -0.56387814  0.19759536
  H -2.11658060  1.11090468 -0.20769933
  C -1.09248446  0.48425898  1.51492996
  O  0.18689733  0.36933682  1.47704952
  H  2.72507349  0.03785894  0.82665076
  H  2.38716744 -0.43577514 -0.91840193
