14
opt_min/./Product_5800_0_opt.xyz
  C -1.94371400 -0.05246200 -0.38351000
  C -0.51745604 -0.27742686  0.21458234
  C -0.94983063  0.52817336  1.31330505
  H -0.65766817  1.57808169  1.13015088
  C  0.70184278 -0.50304801 -0.56931225
  C  2.03812620 -0.02622602 -0.05955829
  H  2.26808244  0.94652994 -0.48942975
  H  2.82565342 -0.72731775 -0.32374325
  H  2.00096464  0.06544023  1.02426705
  H  0.61851264 -0.60837143 -1.64894699
  O  0.04612981 -1.53535732  0.16094388
  H -2.65404554 -0.73938358  0.06788685
  H -1.86248722 -0.25425660 -1.44971877
  H -2.30204785  0.97047468 -0.26018820
