8
opt_min/./Product_3777_0_opt.xyz
  N -1.26466064  0.15778476 -0.37451732
  C  2.35386595 -3.18267734  3.61083120
  N -7.46961351  0.38461460 -5.13270409
  C  0.66491777 -0.95955927  0.90413739
  H -0.80119171  0.75745855 -1.61176799
  H  11.71054386  2.74737602  4.11191225
  N  4.07321649 -1.61673970 -7.27724067
  H -4.08195745 -14.63380670 -11.12907120
