19
opt_min/./Product_7699_0_opt.xyz
  C  1.07093800 -0.36273600 -1.84667700
  C  0.86633077  0.14722705 -0.42351906
  C  2.05266517 -0.22519601  0.46735579
  H  1.91863282  0.16566460  1.47560552
  H  2.97332216  0.18206750  0.05336440
  H  2.13595158 -1.30749489  0.52727166
  O -0.33530951 -0.42963125  0.06910080
  C -1.03342814  0.28616899  1.04909998
  C -2.24793280 -0.26172337  1.57265049
  H -2.54121542 -1.12104636  0.94470541
  C -2.08883970  1.31771663  0.44125421
  H -2.28361808  2.13041282  1.13526123
  H -1.62164264  1.69831103 -0.46966665
  H -3.03450809  0.85175494  0.13807355
  H -0.36278514  0.81268584  1.72892718
  H  0.76101343  1.24729065 -0.44444865
  H  1.86249103  0.19575106 -2.33899632
  H  1.33608175 -1.41752825 -1.82523640
  H  0.14765009 -0.25303415 -2.41340454
