15
opt_min/./Product_11079_0_opt.xyz
  C  2.18587100 -0.34225500  0.40229100
  C  0.74117727 -0.10244930  0.13328001
  C  0.17794699  0.66977790 -0.83205300
  H  0.70170242  1.25334442 -1.56295392
  C -1.25574326  0.58117547 -0.72706494
  N -2.20325028  1.10459747 -1.39373227
  H -1.87846205  1.70672800 -2.14783253
  C -1.52935273 -0.34681254  0.44217468
  H -2.10445838 -1.22140550  0.12630897
  H -2.09732574  0.16850391  1.22202904
  N -0.20914868 -0.70572182  0.89096958
  H -0.02304106 -1.32903183  1.65445716
  H  2.33944131 -0.69065773  1.42126134
  H  2.57328153 -1.09759631 -0.28125857
  H  2.75433864  0.57170778  0.24945548
