14
opt_min/./Product_7900_0_opt.xyz
  C  0.72942800  0.81691100  1.00963200
  C  0.03431048  0.22523996 -0.15612411
  N  0.51785212 -0.52593532 -1.13368747
  O  1.78546616 -0.55358179 -1.67129779
  H  1.74641043 -1.13569555 -2.44420225
  C -1.32750230 -0.41095192 -0.41827046
  C -0.57633791 -1.26865773 -1.44370079
  H -0.87062957 -1.41860102 -2.47287230
  O -1.97486660 -1.06348228  0.62268821
  H -2.11645883 -0.43597237  1.33980388
  H -1.98981772  0.30913651 -0.92944984
  H  0.23835037  1.73524803  1.32855728
  H  0.74997529  0.12979485  1.86209890
  H  1.75517630  1.04435942  0.72760372
