12
opt_min/./Product_11959_0_opt.xyz
  C -2.23055300  0.14828000 -0.13950000
  C -1.16560250 -0.43211474  0.38068379
  C  0.15882278  0.24197457  0.52832309
  O  1.16490209 -0.57818559 -0.08808207
  C  2.40955203 -0.17183582  0.04486823
  O  2.78556151  0.79776979  0.63414325
  H  3.07848204 -0.87865128 -0.47478971
  H  0.16002133  1.22941181  0.05481264
  H  0.42010931  0.36749563  1.58737502
  H -1.20713635 -1.45393577  0.72954588
  H -2.20530264  1.16476508 -0.49625195
  H -3.17282526 -0.36502070 -0.21710426
