13
opt_min/./Product_8858_0_opt.xyz
  N  0.95706200 -0.85934400 -0.86606600
  H  1.79672493 -1.20371739 -1.30417301
  C -0.24097767 -1.22270197 -1.25590573
  C -1.14589886 -0.60895802 -0.24726264
  H -2.15769602 -0.97894817 -0.16314585
  C -0.36198402 -0.24704246  0.97046742
  H -0.56719335 -0.48300707  1.99979115
  C  0.97639897  0.03601815  0.27714046
  H  1.92216577  0.10393265  0.80522459
  C  0.27816682  1.32704569 -0.21954387
  H  0.37108716  1.55379624 -1.28552700
  H  0.51051386  2.20661972  0.37764971
  N -1.02600061  0.79419543  0.19728495
