13
opt_min/./Product_9060_0_opt.xyz
  O -1.54207120  0.24623692  1.62188476
  C -0.84019462  0.21196840  0.64791470
  C -1.34145393  0.27197077 -0.75912856
  H -0.96920035  1.17913965 -1.23419443
  H -2.42802560  0.27015832 -0.77496061
  H -0.95295403 -0.57352801 -1.32574158
  C  0.68620821  0.09863671  0.80489303
  C  1.43479707  0.03135934 -0.43504964
  C  2.34114551  0.26852744 -1.30165785
  H  3.12142231  0.65678733 -1.89262212
  O  1.41399154 -0.87999968 -1.55196277
  H  0.86577769 -0.81669135  1.37998229
  H  1.03733326  0.94360303  1.40242274
