11
opt_min/./Product_4042_0_opt.xyz
  O  2.43296400 -0.57416700  0.30492600
  C  1.12192895 -0.26853460  0.07724153
  C  0.61688889  0.65861037 -0.80063127
  N -0.74431323  0.63561421 -0.69096475
  C -1.10552212 -0.29733832  0.22391027
  C  0.02886272 -0.87613658  0.72894207
  H -2.13473995 -0.48077344  0.45887693
  H -1.38247636  1.19381090 -1.23118514
  H  1.12586814  1.32598091 -1.46836187
  H  0.09722580 -1.64626084  1.46566400
  H  2.98706098 -0.01078370 -0.24460970
