12
opt_min/./Product_2236_0_opt.xyz
  C  2.74215510  0.24518393 -0.01421490
  C  1.51599187 -0.18442532 -0.05772760
  C  0.29165965 -0.55048094 -0.06439504
  C -1.04641508 -0.63904581  0.48669569
  C -1.98276640  0.54607429  0.44638119
  H -1.49327328  1.40912338  0.00193786
  H -2.86315628  0.29943655 -0.14386035
  H -2.29855852  0.79776087  1.45545464
  H -1.25280689 -1.36791786  1.26506051
  O -0.67154298 -1.20516217 -0.76941285
  H  3.01560661  1.20393315 -0.42543305
  H  3.52094189 -0.35452896  0.43108684
