21
opt_min/./Product_9780_0_opt.xyz
  C  0.72408900  1.79369500  0.43248200
  C  0.08610481  0.71967824 -0.49101730
  C  1.35670276  0.42405467 -1.17589020
  C  2.18626413 -0.67334464 -0.64944465
  H  3.23856218 -0.38319083 -0.65451222
  H  2.08384114 -1.42957181 -1.43748243
  H  1.93156229 -1.12630218  0.31514742
  C -0.70793694 -0.33278722  0.29166532
  C -1.86884284  0.31416085  1.04523518
  H -2.39028722  1.03059126  0.41296744
  H -1.51991695  0.83017667  1.93809440
  H -2.58768129 -0.44228770  1.35719777
  C -1.23297287 -1.39149572 -0.68183915
  H -1.90703460 -0.92789117 -1.40144467
  H -0.41772886 -1.85524989 -1.23386703
  H -1.77889324 -2.17080013 -0.15326458
  H -0.04990027 -0.82189543  1.01840362
  H -0.59574845  1.22976688 -1.18468456
  H  1.44511406  2.39404208 -0.12668351
  H -0.04834616  2.45697623  0.81242237
  H  1.24003261  1.31825237  1.26412708
