15
opt_min/./Product_8840_0_opt.xyz
  C -1.11396000  1.28174200 -0.64513000
  C -0.27350328  0.08270318 -0.25515998
  C  1.21157212  0.31176073 -0.15113638
  H  1.57810867  1.27491621 -0.48960443
  C  2.02698014 -0.49092542  0.74139192
  H  2.34549001 -0.66727835  1.73956992
  N  2.08777336 -0.87234744 -0.45052153
  C -0.85855433 -0.96719366  0.61554375
  H -0.20841500 -1.48770826  1.31519425
  H -1.88301498 -0.87196550  0.94659717
  N -0.69745945 -1.19039776 -0.80179430
  H  0.08364979 -1.79810734 -1.04045836
  H -1.80387590  0.99505231 -1.43391066
  H -1.68938000  1.64395627  0.20387577
  H -0.48593909  2.09124789 -1.00708603
