10
opt_min/./Product_10939_0_opt.xyz
  N -2.27028736  0.49886604 -0.60345958
  C -1.00594667  0.31311175 -0.92655920
  N  0.00615294  0.70258497 -0.31974769
  C  1.19361545  0.60751057  0.11843181
  N  1.66871523 -0.43472477  0.87564420
  N  1.12002157 -1.40084730  1.30177514
  N  0.79401911 -2.36492519  1.78796348
  H  1.91968511  1.38986384 -0.04032130
  H -2.98229809  0.23375235 -1.26029855
  H -2.57843558  0.97264606  0.23981011
