16
opt_min/./Product_8324_0_opt.xyz
  N -1.36405700  1.90642200 -0.39734800
  C -0.35112204  1.18373604 -0.25994608
  C -0.37005109 -0.32231077 -0.40477368
  C -1.62966548 -0.96651612  0.15541491
  H -1.48866694 -2.04090532  0.25346017
  H -1.87017733 -0.55135728  1.13105019
  H -2.46785244 -0.77867104 -0.50887896
  H -0.28610415 -0.54440441 -1.47481095
  C  0.92037591 -0.71649330  0.32261471
  H  0.71916630 -0.87404026  1.38402828
  H  1.38022880 -1.61271756 -0.09131109
  C  1.79601791  0.52252297  0.12128467
  H  2.48776965  0.70594008  0.94614138
  H  2.36650810  0.46759373 -0.81447104
  O  0.89799032  1.61917443  0.03874596
  H -1.18751438  2.90107005 -0.27532566
