14
opt_min/./Product_5684_0_opt.xyz
  O -2.58088000  0.06124000 -0.12285000
  C -1.27706523  0.25836461  0.32672869
  H -1.11252852  1.21362769  0.81664117
  C -0.45518334 -0.90311333  0.81750308
  H  0.23086196 -0.74263896  1.63226030
  H -0.93042702 -1.87002766  0.82920121
  C -0.16348207 -0.27858472 -0.51970398
  C  1.05638308  0.54286565 -0.72459337
  C  2.25536136  0.19481237 -0.29383441
  H  2.40806206 -0.72549248  0.24541975
  H  3.12753424  0.80259193 -0.45900520
  H  0.91628427  1.46660017 -1.27174154
  H -0.47178322 -0.84133316 -1.38970024
  H -3.17906573  0.04622303  0.63064311
