10
opt_min/./Product_7264_0_opt.xyz
  N  3.12911500 -0.57555900  0.03546100
  C  2.00431980 -0.33530668  0.08733252
  C  0.65713975 -0.01345259  0.15506539
  N  0.08779371  1.20885534 -0.02619995
  H  0.61978398  2.03857111 -0.23691194
  C -1.26879679  1.20077451  0.10879919
  C -1.52216936 -0.14434754  0.39239518
  H -2.46051518 -0.62787427  0.57876430
  N -0.36190452 -0.85470752  0.41297695
  H -0.25497232 -1.84245857  0.59261928
