14
opt_min/./Product_6630_0_opt.xyz
  O  2.76378500 -0.57716900  0.35471500
  C  2.35533275  0.50558571  1.10100825
  C  1.12900434  0.60873097  1.61133242
  N  0.17101767 -0.40555126  1.64246879
  C -1.09395596 -0.32818286  0.92550284
  H -2.07133980 -0.40692193  1.34770093
  C -0.52560859 -0.22564945 -0.46186259
  H  0.14673425  0.59823002 -0.67238129
  H -1.14287976 -0.53410878 -1.29612667
  C -0.06156628 -1.27661507  0.50636386
  H  0.03283016 -2.33882322  0.47351934
  H  0.86140783  1.49520952  2.16841756
  H  3.08361424  1.29116384  1.25782925
  H  3.72307167 -0.58695411  0.29874953
