11
opt_min/./Product_1372_0_opt.xyz
  N  1.40522100 -0.68519700  0.74591700
  C  2.08765119 -0.04470662 -0.10259563
  H  3.15591833 -0.22246571  0.05043161
  O -0.02958583 -0.64568961  0.78130489
  C -0.63676317  0.03068689 -0.26724723
  H  0.07988286  0.62691355 -0.83238985
  O -1.60809056 -0.65747906 -0.96796071
  C -2.04349019  0.39046371 -0.13187707
  H -2.42719554  1.26695393 -0.63970469
  H -2.57437688  0.08191349  0.75991182
  H  1.62329129 -1.31562318  1.52392945
