14
opt_min/./Product_2329_0_opt.xyz
  O  1.91153200 -0.73912100  0.56153100
  C  3.09438110 -0.45519273  0.24446155
  H  3.25653281  0.63799459  0.07285343
  C  0.84107221  0.21493787  0.70533970
  C -0.31267973 -0.13612701 -0.20998582
  H  0.00284458 -0.40369130 -1.20769730
  C -1.59082692  0.64412254 -0.05845431
  H -1.62944501  1.39015770  0.71558628
  H -2.12202111  0.89437393 -0.95880145
  C -1.53450469 -0.79486170  0.34652162
  H -2.04298814 -1.52229299 -0.26619993
  H -1.56117843 -1.03711877  1.39539473
  H  1.20890742  1.22928359  0.47310539
  H  0.51173327  0.19666028  1.74742611
