12
opt_min/./Product_1047_0_opt.xyz
  C  1.74106400 -0.23913100 -0.00236200
  C  0.71063553  0.78921810 -0.18192542
  C -0.58911274  0.53216611  0.45556736
  O -1.49203217  1.59662988  0.43680103
  H -1.48094903  2.00750228 -0.43890228
  C -1.13651911 -0.69208964 -0.29519312
  O -2.00834612 -0.63112325 -1.10762562
  H -0.61882483 -1.63177377 -0.03540855
  H -0.49973215  0.21937289  1.50800820
  H  1.82579245 -0.71132025 -0.99033598
  H  1.57172926 -1.01533452  0.75463396
  H  2.70212573  0.24839179  0.16484089
