15
opt_min/./Product_6959_0_opt.xyz
  C -1.50525402  1.38795899  0.35815997
  C -0.48976844  0.30224392  0.17428495
  C -0.91746201 -0.80055574 -0.75689561
  H -1.02544955 -0.38907780 -1.75869335
  H -1.87219424 -1.21288840 -0.44167710
  H -0.18962907 -1.60766490 -0.81318356
  N  0.60544608  0.43749118  0.78195153
  C  1.68433087 -0.52428961  0.70053891
  C  2.44497172 -0.31588445 -0.51287108
  N  3.02682416 -0.14671301 -1.48260585
  H  2.33256764 -0.34875306  1.56370235
  H  1.35592671 -1.57553022  0.70356205
  H -1.64090964  1.91250039 -0.58821546
  H -1.15128317  2.10565651  1.09208260
  H -2.46452275  0.97648825  0.65715375
