17
opt_min/./Product_11436_0_opt.xyz
  C -0.80127742  1.46090781  0.23586470
  C  4.01228344  5.55103573  2.35683168
  C  23.34101554 -8.13146149 -2.73946971
  C  57.76551529  21.50652391  2.66294112
  O  3.93891984 -5.63744559 -5.31772080
  H -4.60756666 -10.65152847 -4.52669591
  H  24.21789796 -0.81452535  33.91542691
  H  28.93656683 -2.85252665  2.67934308
  C -5.60434352 -7.10177635 -8.48301916
  H  13.86992952  8.00476161 -15.84655061
  H  41.69104263  2.91328657  61.66022826
  H  23.16511740  4.67546969 -3.27950317
  O  33.46217381  16.70175237 -12.45474359
  H  29.85946563 -7.28232343 -15.05529242
  H  6.21035309  2.01968256 -10.34949165
  H  42.71195770  21.35520351 -5.72694861
  H  10.17776856  6.74739376 -0.30191290
