13
opt_min/./Product_10445_1_opt.xyz
  N  2.84452200 -0.26766800 -0.47893800
  C  1.88291893  0.07459245  0.20947996
  O  1.42602061  0.87326058  1.17717797
  C  0.49952547 -0.06232011  0.57734200
  N -0.50265704  0.52101145 -0.23089833
  C -1.87918262  0.42666851  0.19393636
  H -2.09769052 -0.10665510  1.11293816
  H -2.46410248  1.31835033  0.02924594
  C -1.38584496 -0.35736829 -0.95781016
  H -1.61112352 -0.03495341 -1.96345732
  H -1.26271181 -1.42754490 -0.83582271
  H  0.20319480 -0.86929395  1.25792789
  H  3.71507407  0.23070593 -0.31342764
