17
opt_min/./Product_11067_0_opt.xyz
  C  2.81452200  0.58673800  0.22054000
  C  1.46145679  0.25039642  0.75489569
  C  0.39166400  0.03654273  0.00287863
  C -0.94810465 -0.28027574  0.52063761
  H -1.06088110 -0.13582719  1.58737101
  C -2.15436026 -0.02074631 -0.35716371
  O -1.99731710  0.49431756 -1.63930327
  H -1.89041654  1.45093830 -1.58756209
  H -3.06441099  0.31154149  0.13944706
  C -1.71311378 -1.42380423 -0.11438465
  H -2.32283779 -2.04638668  0.52088160
  H -1.23784299 -1.94721422 -0.92714880
  H  0.46840842  0.07615779 -1.07648648
  H  1.37934217  0.20617975  1.83387657
  H  3.58661766  0.04211493  0.75953949
  H  2.88424340  0.35362306 -0.83855541
  H  3.01473226  1.65144011  0.34930293
