13
opt_min/./Product_6302_0_opt.xyz
  C  1.95568486 -0.44667290  0.09726050
  C  0.55651834 -0.50046300  0.68951710
  H  0.51651829 -1.11693717  1.59133260
  C -0.23556060  0.78194521  0.75450029
  H -0.11229338  1.71267676  1.26068881
  C -1.09398988  0.23486918 -0.11053268
  N -2.28499385  0.52554273 -0.74565024
  H -2.66763267 -0.32012426 -1.15710434
  H -2.19551037  1.23351289 -1.46604777
  O -0.45005453 -0.98958706 -0.24783986
  H  2.57876255 -1.25495413  0.46568979
  H  2.42099485  0.50372557  0.35269762
  H  1.88967658 -0.50803787 -0.98637851
