17
opt_min/./Product_11156_0_opt.xyz
  C  2.43425900  0.16792000  0.25998400
  H  2.50005980  1.07392560 -0.32633963
  H  3.05303590  0.18257133  1.14331405
  C  2.31156320 -1.09146278 -0.50386581
  C  1.14738344 -0.59976201  0.28113868
  C -0.03630662 -0.09820295 -0.50763547
  H  0.27954400  0.09938868 -1.53342903
  C -1.32446411 -0.93960263 -0.43476447
  H -1.27463919 -1.75793809  0.27889434
  H -1.66616025 -1.33580645 -1.38626182
  C -2.09715550  0.29002577  0.07879381
  H -2.58549180  0.15483174  1.03811936
  H -2.81570122  0.67937344 -0.63637519
  C -0.78604680  1.09778043  0.12719150
  H -0.78576077  2.00486414 -0.46959737
  H -0.45161196  1.33234157  1.13412062
  H  0.92243014 -1.13532591  1.19372124
