12
opt_min/./Product_1045_0_opt.xyz
  C -2.11175200  0.34841300  0.00803800
  C -1.28185078 -0.61183069  0.80136218
  O -0.75502595 -1.71740278  0.16661151
  C  0.18168190 -0.90249964  0.85106318
  C  0.90948891 -0.05539347 -0.00021586
  O  2.00695916  0.59681355  0.45260808
  H  2.30036304  1.26121912 -0.18017556
  H  0.53929805  0.15573681 -0.99115291
  H  0.61970155 -1.27818920  1.76590247
  H -3.13748683  0.26503674  0.36756127
  H -1.78531503  1.37007632  0.19150149
  H -2.10821610  0.13552704 -1.06376765
