12
opt_min/./Product_3458_0_opt.xyz
  N  2.11775100  0.30834800 -0.15364800
  C  1.05631842 -0.24151883  0.48664709
  O  1.07310433 -0.65840386  1.60885907
  N -0.11866748 -0.32282911 -0.34809756
  H  0.07100521 -0.51355970 -1.32817479
  C -1.24178816  0.60573639 -0.08888286
  H -1.57758867  1.14665063 -0.96902305
  H -1.01862973  1.27565299  0.74706760
  C -1.47839816 -0.84643213  0.06355289
  H -1.43091348 -1.10834225  1.13247798
  H  2.03458570  0.72491118 -1.06472441
  H  2.96448651  0.46667466  0.36493091
