12
opt_min/./Product_11179_0_opt.xyz
  N -2.29584700  0.81023500 -0.06672100
  C -1.14445315  0.30236430  0.09683464
  N  0.01760840  1.04194458  0.07468881
  H  0.04152972  2.03104026 -0.08818337
  C  1.10411910  0.22067241  0.27372395
  O  2.34512766  0.76752747  0.27243965
  H  2.98832950  0.07892824  0.47164727
  C  0.66502777 -1.04168084  0.43033145
  H  1.20892524 -1.94415988  0.60995686
  N -0.72926876 -0.99631209  0.32605154
  H -1.33392286 -1.79335602  0.40154259
  H -3.05086478  0.13592723 -0.02093863
