12
opt_min/./Product_11947_0_opt.xyz
  N  2.21886700  0.28997600  0.33591500
  H  2.67073186 -0.62662310  0.32391348
  H  2.41146596  0.83096393  1.18131074
  C  0.99752361  0.52153633 -0.41395526
  C -0.28908201  0.22352523 -0.31912915
  N -0.82102913 -0.54781102  0.75273056
  C -2.07050088 -0.68415767  1.19090920
  O -2.99291082  0.03490075  0.59514923
  H -2.67429194  0.64008427 -0.09960883
  H -0.13755220 -1.09495887  1.25882020
  H -0.95298621  0.55398880 -1.10030050
  N  2.09541556  1.01532305 -0.93232494
