12
opt_min/./Product_2985_0_opt.xyz
  C -1.66567700  0.16569300 -0.35242900
  C -0.38645580  0.19043479  0.44729505
  H -0.23339476  1.08014850  1.05555500
  O  0.07774915 -0.98638388  1.01852637
  C  0.82491801 -0.49723996 -0.06398341
  C  2.16415815  0.05662939  0.22578356
  O  3.04067201  0.16804024 -0.58584560
  H  2.29329353  0.39413843  1.27252285
  H  0.72713909 -1.05053734 -0.99443084
  H -2.01955835 -0.85796712 -0.44868661
  H -1.50670287  0.57763485 -1.34693954
  H -2.42984367  0.75525140  0.14694768
