12
opt_min/./Product_2639_0_opt.xyz
  C -2.12142185  0.26568338  0.06792692
  C -2.65539881 -3.06277792 -2.41602249
  C  0.71966164 -20.63577748 -5.27456497
  C  3.97922600 -4.90295408 -6.48420490
  C -3.20333762 -2.98025234  2.56604152
  C -0.69044637 -6.36113393  5.53791084
  H -1.93003227 -9.67489179 -6.93609094
  H  13.36550772  17.20188271  1.11328221
  H -0.05742681 -16.68938923  6.17104300
  H -5.83687061 -12.83176740 -14.00594515
  H -17.84212404  1.28708776  0.06606782
  H  1.61625351  1.06465421 -4.58492450
