14
opt_min/./Product_3294_0_opt.xyz
  O  1.89199600  1.17303600 -0.57932400
  C  1.77476678  0.32348745  0.48825812
  C  0.81386105 -0.58184168  0.59436921
  C -0.27651094 -0.78354860 -0.41615877
  C -1.61698328 -0.51388972  0.19691254
  C -2.44802786  0.42577260 -0.21064137
  H -2.21204784  1.07084882 -1.04046515
  H -3.40106265  0.59021047  0.26422500
  H -1.87885873 -1.14297415  1.03880119
  H -0.24890832 -1.82127152 -0.76470742
  H -0.10964849 -0.12020639 -1.26384678
  H  0.78424869 -1.20520267  1.47457134
  H  2.52651907  0.42388436  1.26439470
  H  2.69680799  1.69160718 -0.49286378
