12
opt_min/./Product_7072_0_opt.xyz
  O  2.41465700 -0.28096000 -0.31365400
  C  1.12173233 -0.01966978 -0.16954870
  N  0.63036012  1.14650022 -0.03672438
  C -0.80086800  1.06319765  0.16762582
  H -1.29226694  1.64664021 -0.61766977
  H -1.05281741  1.49635979  1.13778916
  C -1.15654297 -0.41796942  0.08840390
  H -1.99085591 -0.82726914  0.64229736
  O -0.84059073 -0.98279680 -1.14607888
  C  0.11752552 -1.12456677 -0.12559067
  H  0.35791726 -2.12952020  0.19127191
  H  2.90135616  0.55728450 -0.32956722
