10
opt_min/./Product_4441_0_opt.xyz
  N  3.37224724 -0.93191974 -0.00647690
  C -2.51739621  3.49903352  11.12660318
  C -4.57962236  0.46011378  3.88305519
  C  9.38328406 -0.27993028 -11.22942215
  C  7.48555121  2.50863847 -11.15671639
  H -18.16856698  10.02198786  8.25597132
  H  1.74030128 -3.38893174 -2.10387002
  H  33.14116498  15.20507817 -18.51365883
  H -7.99605694 -3.23580223 -9.62236330
  H -1.30583328  2.15562550  3.23198908
