12
opt_min/./Product_6012_0_opt.xyz
  C  1.39161800 -0.41773600 -0.15460700
  C  0.26817701  0.29929740  0.57555401
  H  0.45424262  0.47544750  1.62560716
  C -0.51896302  1.30439247 -0.14360035
  O -0.59562896  2.37902883 -0.64566163
  C -1.21329453  0.04275219  0.18137175
  O -1.48188159 -0.86476320 -0.84597684
  H -1.67910136 -1.72571893 -0.46278893
  H -1.94586055  0.04567698  0.98225386
  H  1.96059433  0.27173750 -0.76835238
  H  0.97474940 -1.18291648 -0.80533695
  H  2.06448506 -0.88577192  0.55360397
