15
opt_min/./Product_6894_0_opt.xyz
  C  1.52503100  0.98643300  0.23366400
  C  0.82221677 -0.35922716  0.37570847
  H  1.56714671 -1.16531334  0.41705814
  O  0.11422582 -0.38971091  1.66121723
  C -1.12109906 -0.70576528  1.60969038
  C -1.50285810 -0.92436637  0.20058775
  H -2.26193657 -1.65232700 -0.04295451
  C -1.39106398  0.31766898 -0.65523761
  H -1.27848337  1.27093511 -0.16195772
  H -2.02110586  0.35343388 -1.53319264
  C -0.26146418 -0.65682607 -0.63390247
  H -0.01798533 -1.24490058 -1.50549437
  H  0.85185853  1.78887046  0.52815375
  H  2.40194662  1.02667858  0.87422191
  H  1.82259980  1.13964712 -0.80189123
