11
opt_min/./Product_9086_0_opt.xyz
  O  2.09867600  0.21197900  0.44518200
  C  0.76921362  0.18328152  0.62501372
  C  0.01410070 -1.05695481  0.20511725
  H  0.05245597 -1.84323596  0.97018894
  H  0.40372060 -1.47497214 -0.72135689
  C -1.33363966 -0.45366681 -0.03345062
  H -2.22780027 -1.03443490 -0.14859631
  C -1.20167809  0.86530273 -0.09614523
  C  0.03167768  1.42323511  0.38137006
  O  0.47096968  2.54872199  0.50062741
  H  2.44544965  1.06450108  0.75685282
