12
opt_min/./Product_1695_0_opt.xyz
  C  1.72613800 -0.23997300  0.02313200
  C  2.74265723  0.45060804 -0.35782233
  C  0.36232385  0.06175215  0.58881600
  H  0.48984779  0.60052171  1.53992857
  C -0.62771127  0.71459911 -0.38918001
  H -0.25393892  0.82286812 -1.40460750
  H -1.06034038  1.65218516 -0.05140542
  C -1.46623509 -0.53963163 -0.13310943
  H -2.41356119 -0.37046464  0.38825393
  H -1.63126810 -1.18491240 -1.00158451
  O -0.48038573 -1.07253943  0.75013021
  H  1.88225987 -1.31116441 -0.10540768
