12
opt_min/./Product_6570_0_opt.xyz
  C -1.63732800  0.10790600  0.07826300
  C -0.22729361  0.14085747  0.66254633
  C  0.80931076  0.40864690 -0.40442143
  H  0.72129743  1.37312569 -0.89202540
  C  2.08918277 -0.27800172 -0.41411985
  H  3.06230530 -0.36774615  0.00543178
  N  1.28793068 -0.72537019 -1.26730820
  H -0.16254040  0.92198270  1.42295203
  H -0.01134808 -0.81817159  1.14090293
  H -1.87763568  1.06803849 -0.37247482
  H -2.36778533 -0.10591860  0.85422811
  H -1.70680884 -0.65877201 -0.68870442
