15
opt_min/./Product_8439_0_opt.xyz
  C -0.27158900 -1.35214800  0.03573900
  H -0.19987621 -1.96215641  0.95408646
  H -0.80691460 -1.99170224 -0.67312804
  C -1.00762213 -0.06471613  0.34105672
  H -1.75322903 -0.14405879  1.12243046
  C -0.23223140  1.22010486  0.26558041
  H -0.42984210  1.98760877  1.00727708
  O  1.09422244  1.25619359 -0.16257830
  C  1.79176028  0.02338551 -0.15398060
  H  2.63613310  0.16335088 -0.83873194
  H  2.24232651 -0.19197306  0.84711626
  C  1.15691272 -1.27544889 -0.32920065
  C -1.30357337  0.92283506 -0.75284056
  H -2.22249184  1.48593760 -0.69959851
  H -0.97732588  0.68793642 -1.75441048
