17
opt_min/./Product_9549_0_opt.xyz
  C -2.53195700 -0.02169100  0.54422500
  O -1.40211648 -0.35620596 -0.22626247
  C -0.21369918  0.11383279  0.24711048
  C  2.21247031  0.46055971  0.12795773
  H  2.09837304  1.40890663  0.64093035
  C  3.26426976 -0.45842519  0.70849533
  H  3.80635828 -0.13159066  1.58220762
  H  3.07199465 -1.51957421  0.68334776
  C  3.50547451  0.23750638 -0.59372074
  H  3.49711720 -0.34994949 -1.49865223
  H  4.21863477  1.04789876 -0.61239205
  C  0.94477692 -0.09878443 -0.36952045
  H  0.95900652 -0.69761961 -1.26752374
  H -0.24285136  0.70246425  1.15842614
  H -2.64572249  1.06295482  0.63925806
  H -3.39409768 -0.43058344  0.02151566
  H -2.47451768 -0.46163888  1.54647077
