11
opt_min/./Product_6011_0_opt.xyz
  C  1.21992700 -0.15613100  0.49927200
  C  0.17331747 -0.34517539 -0.58407637
  H  0.28780496 -1.25294078 -1.16142781
  C -1.26041795  0.11234105 -0.50878949
  O -1.85940402  0.74191493  0.57573313
  H -1.17341770  0.99711797  1.20305765
  H -1.97436646 -0.53318079 -1.00666863
  C -0.25884663  0.86060378 -1.33538264
  H  0.75903113  0.16699891  1.43355716
  H  1.74031920 -1.09149891  0.68758702
  H  1.95042078  0.59764102  0.20857871
