12
opt_min/./Product_538_0_opt.xyz
  C -0.74921700  0.36306200 -0.55653400
  C -1.26310531  0.32574547  0.86516234
  O -1.52391461  1.29180467  1.52588350
  H -1.39227902 -0.69525625  1.27169825
  C  0.20355536 -0.75051568 -0.85765228
  O  1.36407668 -0.85338487 -0.29980414
  C  1.90207423 -0.10395417  0.59897257
  H  1.40179189  0.74466078  1.03498132
  H  2.89253056 -0.38036002  0.90388453
  H -0.02610740 -1.51675201 -1.57251887
  H -0.29391995  1.34549986 -0.73399259
  H -1.62054340  0.27848745 -1.20924959
