16
opt_min/./Product_7250_0_opt.xyz
  C -1.53601400 -1.31101800 -0.90241000
  C -0.78383510 -0.40614144  0.07080637
  C -1.70015585  0.69909372  0.59645865
  H -2.54026360  0.25267673  1.12324770
  H -2.07113823  1.29478833 -0.23384122
  H -1.15614241  1.34709267  1.28008931
  N  0.27962304  0.23043526 -0.66193448
  C  1.48193759  0.10154262 -0.38541436
  O  2.00149212 -0.67029800  0.66226241
  C  3.24758176 -0.80023791  0.87574800
  H  3.87406951 -0.22004619  0.14800776
  H  2.25469460  0.60736717 -0.96809517
  H -0.40511530 -1.00096270  0.91542765
  H -1.84234857 -0.73603604 -1.77326967
  H -0.90381534 -2.13463093 -1.22807751
  H -2.41969018 -1.72140438 -0.41763426
