17
opt_min/./Product_8402_0_opt.xyz
  C  2.61196600  1.00875000  0.72454700
  O  1.40085776  1.09299182  0.25505483
  C  0.56684349  0.14510317  0.04511458
  C  0.61156132 -1.34473193  0.19871908
  H  0.72248143 -1.71053490  1.22281962
  H  1.35032333 -1.85405289 -0.42569975
  C -0.83175930 -1.37034429 -0.35219827
  H -1.56753866 -1.72445521  0.36575945
  H -0.94520748 -1.91818785 -1.28403710
  C -0.82426351  0.17134899 -0.51126260
  C -1.85925816  0.93849183  0.30495503
  H -1.87642980  0.57793237  1.33119128
  H -2.85129205  0.81663842 -0.12544410
  H -1.61116146  1.99783684  0.31512432
  H -0.88424243  0.50330803 -1.55379584
  H  3.04966332  0.06785610  1.00937130
  H  3.13336437  1.93563329  0.84984882
