11
opt_min/./Product_3054_0_opt.xyz
  O -0.56373100  1.19187800 -1.00179900
  C -0.35670991  0.37849669  0.13087872
  C -1.46604384 -0.66960238  0.31892301
  H -1.51147149 -1.29419550 -0.57049327
  H -2.42933197 -0.18278197  0.46086295
  H -1.24796698 -1.29411103  1.17963982
  C  0.96228884 -0.17539343  0.28231575
  C  2.06855604  0.14008278 -0.43219770
  N  3.13361517  0.20748059 -0.89838161
  H -0.35796881  1.01549169  1.05047346
  H -1.49005079  1.44465033 -1.06135533
