15
opt_min/./Product_9591_0_opt.xyz
  O  2.40560800  0.42656300 -0.72280000
  C  1.33781308 -0.12167600 -0.01555060
  H  1.70078773 -0.55616589  0.95470481
  C  0.24987575  0.91387397  0.29311446
  H  0.07654411  1.51369620 -0.60351416
  H  0.53509790  1.57620817  1.10750501
  C -0.97695129  0.04881206  0.61148316
  O -2.21459911  0.64964730  0.32619411
  H -2.19158127  0.99848493 -0.57261028
  H -1.02608187 -0.16896993  1.68481141
  C -0.71235630 -1.25207391 -0.17632460
  H -1.17476441 -2.14113040  0.24924980
  H -1.13773790 -1.16742482 -1.19204722
  C  0.71377159 -1.37441904 -0.51228587
  H  2.94858161 -0.29402462 -1.05988115
