12
opt_min/./Product_5216_0_opt.xyz
  C -1.56849900  0.47594300 -0.13594300
  C -0.67349262 -0.49281542  0.59916882
  C -1.02476938 -1.13359041  1.67240622
  C  0.66784214 -0.73518148 -0.04770243
  H  0.64201479 -1.49562277 -0.82826498
  C  1.64421899  0.35316037 -0.15529656
  H  2.31350235  0.39058744 -1.00815064
  H  1.44866653  1.30439732  0.32559273
  O  1.82360106 -0.73005175  0.71684098
  H -1.94049903 -0.00420707 -1.04125878
  H -1.01135015  1.36776555 -0.41466695
  H -2.41169895  0.74986727  0.49096186
