12
opt_min/./Product_5628_0_opt.xyz
  C -0.85641900 -0.66905700 -0.59283000
  H -1.02696658 -0.67204964 -1.66842845
  H -0.97701532 -1.67593776 -0.20604092
  C -1.56983987  0.42375413  0.16485682
  H -2.61630686  0.60803776  0.30407719
  C -0.45179696  1.02955601  0.55610364
  H -0.24060835  1.89425518  1.15580105
  C  0.44711152  0.04729409 -0.15078090
  O  1.28409146 -0.73883662  0.72734561
  C  2.51890744 -0.57064980  0.87339026
  H  2.94045236  0.23307804  0.21985900
  H  1.05200027  0.46244246 -0.96452329
