11
opt_min/./Product_4789_0_opt.xyz
  C  1.55186900  0.19338300 -0.32628800
  C  0.24278876  0.13734654 -0.06144076
  C -0.70359917  1.20322162  0.03614116
  H -0.56835344  2.25758481 -0.08202357
  O -1.88636057  0.74125245  0.32274326
  N -1.95338968 -0.55236756  0.45447938
  C -0.62378325 -1.07651678  0.22113263
  H -0.30868893 -1.64219848  1.10191655
  H -0.66101632 -1.78049758 -0.61506629
  H  2.15495530 -0.69324846 -0.36238031
  H  2.03913223  1.13210792 -0.51524712
