11
opt_min/./Product_10684_0_opt.xyz
  C  2.06393300 -0.32761400 -0.01175600
  C  3.18553838  0.31203332  0.04428000
  C  0.63821915 -0.16570203 -0.01951089
  C -0.12599028  0.97190028  0.04292761
  H  0.23429868  1.97691093  0.11096847
  C -1.47012841  0.53423306 -0.00292166
  H -2.34602688  1.14863511  0.02497491
  C -1.42416964 -0.82330491 -0.08876659
  H -2.20424643 -1.55615566 -0.14570791
  O -0.15601119 -1.26083343 -0.09973019
  H  2.39370276 -1.37558094 -0.08699707
