12
opt_min/./Product_4351_0_opt.xyz
  O  2.39923500  0.07661700 -1.03443700
  C  1.65190245  0.94618690 -0.48642189
  C  0.59745025  0.35768147  0.39971820
  H  0.90428571  0.60983997  1.42680325
  C -0.87448947  0.64269711  0.08826434
  H -1.43515170  1.13626568  0.87633471
  H -1.02483887  1.16004652 -0.85645052
  C -1.00543264 -0.87719037  0.02024779
  H -1.31896717 -1.29270388 -0.94258051
  H -1.60258011 -1.32895445  0.81825708
  O  0.38946403 -1.07288839  0.24692695
  H  2.17598289 -0.86950048 -0.83820340
