13
opt_min/./Product_7571_1_opt.xyz
  C  1.29842800  1.56029100 -0.36389700
  C  1.07512199  0.18446373 -0.57274502
  H  1.67248038 -0.25717780 -1.36577702
  C  0.75489115 -0.76817481  0.60463426
  H  1.29777087 -1.70162644  0.59792926
  H  0.68887490 -0.30407562  1.57903731
  C -0.31017314 -0.52602983 -0.36052266
  C -1.55429023  0.25903135 -0.00606520
  H -1.77975664  0.16757918  1.05490198
  H -1.44984939  1.31582621 -0.24120721
  H -2.39886355 -0.12233653 -0.57396066
  H -0.48604145 -1.29541810 -1.10293579
  H  0.64098573  1.94670335  0.43945353
