17
opt_min/./Product_11161_0_opt.xyz
  C  1.73369900 -0.07871400  0.42501200
  H  2.79411561  0.02412123  0.19184324
  H  1.69053685 -0.40161504  1.47319547
  C  0.91600338  1.20984295  0.19540669
  H  0.83044303  1.81223862  1.09927983
  H  1.39907274  1.81754529 -0.57348234
  C -0.43619090  0.71583415 -0.31050703
  H -0.87369707  1.38242075 -1.05178197
  C -0.19588686 -0.75333445 -0.74415454
  H -0.46909387 -1.06509543 -1.74960213
  C  1.12862544 -1.21005796 -0.30797280
  C -1.18997892 -1.23434512  0.35527281
  H -2.05714103 -1.75323495 -0.04446078
  H -0.72778110 -1.86026072  1.11814338
  C -1.42299694  0.22526365  0.76213014
  H -2.44577553  0.56254567  0.59991878
  H -1.13508362  0.46331188  1.78535046
