14
opt_min/./Product_663_0_opt.xyz
  O -2.02611600  0.65193000  0.29203200
  C -1.13737203 -0.28905382  0.81347161
  H -1.36468115 -0.59778097  1.83108860
  C -0.61326864 -1.32520095 -0.12706767
  H -0.50237607 -2.33557963  0.22790935
  H -0.93455966 -1.24884327 -1.15188441
  C  0.31194219 -0.25729209  0.39681716
  C  0.82242194  0.82119279 -0.53918665
  C  2.18959622  0.78914170 -1.02614710
  H  2.75289735 -0.03634067 -0.55592920
  H  0.78209720  1.80451425 -0.04851194
  H  0.16418566  0.93297877 -1.40607969
  H  1.02792931 -0.57128398  1.14606249
  H -2.05393131  1.42333839  0.86691983
