14
opt_min/./Product_6938_0_opt.xyz
  O  1.41146900 -0.53349600 -1.16784800
  C  2.10664337 -0.82010816 -0.04994099
  N  2.05264831 -0.34863926  1.10381632
  H  1.35558901  0.38167331  1.24643593
  H  2.85023920 -1.58233853 -0.27449535
  C  0.31671047  0.31709104 -1.11041478
  C -0.67867326  0.20152201 -0.26401418
  C -1.96951150  0.71571236  0.19609518
  H -1.98850871  1.64830942  0.74646629
  H -2.84499614  0.56489481 -0.42188643
  C -1.32674713 -0.48883674  0.85527413
  H -0.91549878 -0.38631148  1.85179687
  H -1.75638164 -1.46418186  0.66642562
  H  0.33997736  1.06939150 -1.88733124
