11
opt_min/./Product_2228_1_opt.xyz
  C -0.01373400  0.60984400 -0.24870300
  C  1.21487428  0.01451929  0.42656972
  H  1.13196474  0.08251844  1.50900754
  H  1.31211571 -1.03879608  0.16123859
  H  2.12247536  0.52545212  0.11126236
  C -1.28063495 -0.16612640  0.10132519
  H -1.39034922 -0.23148049  1.18272829
  H -2.16409324  0.31101083 -0.31374230
  H -1.21940827 -1.18058853 -0.29135517
  H -0.13172471  1.64995033  0.06908261
  H  0.12501845  0.60942372 -1.33203150
