15
opt_min/./Product_10960_0_opt.xyz
  C  2.17910000 -0.08456800 -0.05693100
  C  0.69881170 -0.18902807 -0.11302442
  C -0.09138221 -0.78687993 -1.00159091
  C -1.54632208 -0.61316363 -0.73337487
  H -2.15126700 -1.48460307 -0.52088853
  C -1.52627029  0.58545771  0.19753787
  H -2.42094747  0.62371395  0.82226743
  H -1.44974340  1.51723026 -0.36464328
  C -0.21440982  0.34814282  0.99404295
  H -0.34366925 -0.32585592  1.84424298
  H  0.19367333  1.28463585  1.38610702
  O -0.94713636 -0.61975012 -2.02435079
  H  2.62119698 -0.24439052 -1.03929467
  H  2.46392070  0.90129004  0.31280361
  H  2.60120050 -0.81577039  0.63318570
