13
opt_min/./Product_6384_0_opt.xyz
  C  0.14950600 -1.26474600  0.25199200
  H  0.34809948 -2.22035557 -0.22907299
  H  0.61385403 -1.32460364  1.24905494
  C -1.25123711 -1.02760490  0.62017815
  C -1.48230095  0.40697745  0.40192806
  H -2.21204632  0.91703963  1.02344817
  C -0.27230563  1.05633143 -0.19152475
  H  0.01555366  2.07461009  0.04234770
  C  0.76661202 -0.01669696 -0.46310045
  O  2.08180087  0.27857208 -0.09101226
  H  2.08949932  0.74217432  0.75447640
  H  0.78637209 -0.22207339 -1.54053256
  O -1.42219072  0.85693003 -0.93094110
