7
opt_min/./Product_11848_1_opt.xyz
  C  0.32461829  0.23788707 -0.62779558
  C  3.18173976  0.76137184 -3.60659224
  N -3.31502632  2.77009966  2.80119081
  C -18.92069059  9.87006917 -20.46520534
  N -14.75290338 -7.90284831 -10.13221461
  H -4.01214365 -3.21371383  10.17079394
  H  2.61465915  0.31076851 -2.78395594
