15
opt_min/./Product_6882_0_opt.xyz
  C -1.32665700  1.26858600 -0.43623900
  C -1.00891780 -0.09708998  0.09634882
  C  0.36454874 -0.61384025 -0.22676508
  O  1.33986774  0.32328538  0.26178877
  C  2.59774176  0.02804771  0.02315104
  O  3.01843771 -0.93209854 -0.55205222
  H  3.24110590  0.81748832  0.45053567
  H  0.54658612 -1.59118724  0.23091879
  H  0.49656583 -0.71815801 -1.31090553
  C -1.86086499 -0.80533084  0.82070427
  H -2.84827170 -0.43581748  1.03332423
  H -1.60790239 -1.77384251  1.21298244
  H -1.07950500  2.02240329  0.30937796
  H -2.38423917  1.35556702 -0.66854433
  H -0.74708119  1.48136026 -1.32973007
