10
opt_min/./Product_3676_0_opt.xyz
  N -0.83088357 -1.96038077 -0.69734410
  C -3.81017445 -1.18028825 -2.41743092
  C  1.06169954 -9.13251592 -4.72315429
  O -2.69487802 -1.76448778 -2.62914969
  H -2.85532696 -2.87350552 -1.69329587
  C  6.37358181  2.08708797 -11.38488701
  N -5.50432458  6.33526157  5.64544104
  H  9.83042195 -13.98044322 -12.49444222
  H -3.85899474 -1.26468480 -1.60912221
  H -4.77521193 -12.46320916  10.66170383
