12
opt_min/./Product_5661_0_opt.xyz
  N -1.91114400 -0.19321900  0.03299300
  C -0.57841066  0.14738769 -0.00111093
  C  0.00869192  1.34420627  0.22475787
  H -0.45270144  2.29415760  0.41901042
  N  1.39484262  1.25657664  0.18699639
  C  1.71376646  0.04265951 -0.05477781
  H  2.73589230 -0.28042000 -0.12986998
  C  0.51827722 -0.85372522 -0.21058876
  H  0.48216936 -1.31409112 -1.20016291
  H  0.50657151 -1.64924728  0.53699579
  H -2.55786474  0.57555771 -0.05323240
  H -2.17298828 -1.01405725 -0.49139003
