11
opt_min/./Product_665_0_opt.xyz
  C -1.09149200  0.13505900 -1.16070500
  C -1.37396497 -0.52008736  0.16635830
  H -2.27211568 -0.14579400  0.64378575
  H -1.26608479 -1.59255624  0.29862855
  C -0.09824829  0.24226009  0.34663707
  H -0.03517618  1.17896082  0.87560532
  C  1.06148439 -0.57591409 -0.10278458
  H  0.96343562 -1.64467638  0.03638720
  H  2.05699463 -0.19709699  0.07793860
  C  0.32105408  0.09429249 -1.22738946
  H  0.86564670  0.75820010 -1.88287630
