9
opt_min/./Product_1207_0_opt.xyz
  C -1.79167219  0.19619164 -0.52780326
  C -13.99215329 -5.56516158  12.97200818
  C -27.59195748  6.30834406  5.79632532
  C  8.39262362 -2.00424554 -4.33789305
  O  2.81844769  5.54693095  0.88372017
  H -1.52471954  7.10754985  0.36510828
  H -5.38584813  1.01809413  5.15222288
  H -4.20001577  2.66801340  4.81058319
  H -8.52393704  2.68578922 -2.54246410
