10
opt_min/./Product_2361_0_opt.xyz
  O -1.06822300  1.50016200 -0.79683200
  C -1.22933732  0.81342801  0.44819206
  H -1.57812099  1.38235823  1.28577753
  C -1.40907728 -0.64649084  0.01725539
  H -2.24110930 -0.79848995 -0.67160952
  H -1.38165977 -1.39737899  0.80229007
  O -0.15292868 -0.58418275 -0.68890109
  C  0.00553832  0.77005511 -0.32256551
  O  1.22157109  1.29983212 -0.19416103
  H  1.69273786  1.23019813 -1.03605494
