10
opt_min/./Product_9909_1_opt.xyz
  C -1.09823388 -0.21966998 -0.65521223
  H -2.13147154 -0.36881971 -0.78697439
  N -0.07475413 -0.53612680  0.08005689
  C  0.51375817 -1.18231530  1.02734331
  H  1.54804062 -0.99601032  1.23960665
  H -0.03025929 -1.93410687  1.56638340
  C  0.15995079  0.49391769 -0.92622528
  C  0.36576066  1.83537721 -0.46729975
  N  0.51266296  2.90762186 -0.09543461
  H  0.79254283  0.22347082 -1.77828353
