10
opt_min/./Product_4779_0_opt.xyz
  C  1.77972500 -0.17876400  0.30626500
  N  0.59037094  0.30951801  0.25264134
  C -0.57848933 -0.53749344 -0.10472706
  O -0.33540183 -1.70778451 -0.34420231
  C -1.72153537  0.21569704 -0.08455525
  H -1.71959564  1.26338820  0.15034490
  H -2.66357512 -0.25026130 -0.30026488
  H  0.41103819  1.28329325  0.47861821
  H  1.88213714 -1.22500064  0.05445287
  H  2.63675309  0.41778169  0.56722889
