9
opt_min/./Product_8563_0_opt.xyz
  N  1.87385758  0.36863081  0.41197665
  C  18.83443752 -4.41827580  5.21469110
  N  3.84539927 -6.29041617  0.15987391
  C  11.99289117  6.60982037  11.13689546
  C  2.48844130 -2.27417520 -0.26869092
  H -31.87947168  6.15136707 -14.14999662
  H  1.19287094 -2.01134429  8.56655454
  H  24.15013158 -8.40649202  1.95169490
  H  8.90182647 -0.53327430  0.78370470
