11
opt_min/./Product_7331_0_opt.xyz
  N -2.11302100  0.29137600  0.21340800
  C -0.85487469 -0.31976398  0.24048765
  C -0.48884250 -1.63050323  0.40296611
  O  0.90281031 -1.61310841  0.19135492
  C  1.30336597 -0.41504350 -0.06018648
  O  2.59332224 -0.13175655 -0.28113631
  H  2.73010954  0.80304666 -0.47569275
  N  0.28865302  0.44585570 -0.04832053
  H  0.31125289  1.43726520 -0.23861488
  H -2.82342126 -0.38018600  0.47402355
  H -2.16366653  1.11236774  0.81099497
