13
opt_min/./Product_98_0_opt.xyz
  C  1.40709900  0.17092500  0.36002700
  H  2.25935835  0.18283315 -0.32040839
  H  1.74511722  0.54923113  1.32523310
  C  0.89402055 -1.22722868  0.48253803
  C -0.39524596 -1.05394265 -0.23804893
  H -1.00514632 -1.92699496 -0.46144027
  C -0.92528136  0.14038921  0.62091597
  H -1.94523285  0.40341842  0.35256632
  H -0.82226316  0.09013964  1.70244643
  C  0.15588284  0.85164296 -0.21038311
  H  0.15596296  1.92362215 -0.40829431
  N -0.10850585 -0.07601855 -1.33375027
  H -0.97161956  0.16423116 -1.81523095
