15
opt_min/./Product_985_0_opt.xyz
  C -1.34112300 -1.12178900 -0.27087700
  N -0.60624467 -0.30532814  0.42944984
  C -0.97265302  1.02482543  0.70444822
  H -0.82290682  1.28512324  1.74932964
  H -1.98079475  1.26172459  0.38014317
  H -0.15524555  1.62969973  0.12497752
  C  0.76916871 -0.51981633  0.64039475
  C  1.56830678  0.35415881 -0.47610156
  O  1.24306653  1.62752369 -0.46639392
  H  2.62841450  0.17631177 -0.21296460
  H  1.34731104 -0.16132588 -1.43893271
  H  1.04741020 -1.56457170  0.51759038
  H  1.07535826 -0.14141921  1.61340005
  H -0.95156117 -2.07146916 -0.58282788
  H -2.33563400 -0.84006604 -0.56058213
