11
opt_min/./Product_2438_0_opt.xyz
  C  2.09511700  0.04153800  0.44291800
  N  1.12335122 -0.53594854 -0.12815650
  C -0.15489757 -0.21291604  0.08772812
  C -1.50501617 -0.78272960 -0.25585436
  H -1.57588468 -1.45029131 -1.10543868
  H -2.18152747 -1.02008641  0.55577131
  C -1.16067630  0.65159154 -0.50430979
  H -1.17110215  1.33439359 -1.32442706
  O -0.70040963  0.95972277  0.78942381
  H  3.08903451 -0.29075242  0.19137195
  H  1.97608206  0.85876129  1.15025627
