9
opt_min/./Product_2053_0_opt.xyz
  N  0.26546932 -0.76276519 -0.10438589
  C -0.86727339  0.19540188 -0.28320477
  C -0.86197135  0.87178040 -1.48009632
  N -0.91099982  1.32562932 -2.54386852
  H -1.21037913  0.63995064  0.63336516
  C  1.23599693  0.08214293  0.39554389
  N  1.96468421  0.85988564  0.82249133
  H  0.03847648 -1.53748268  0.53345601
  H  0.51985838 -1.13579568 -1.02938118
