16
opt_min/./Product_9642_0_opt.xyz
  C -2.06009600 -0.02379900 -0.18548800
  C -0.92074073  0.46404318 -1.04004671
  H -1.22076439  0.70557917 -2.05832912
  N  0.09279550  1.35918977 -0.53878237
  H  0.04410442  1.49907343  0.46825375
  C  0.48966400  0.00600504 -0.89756938
  C  0.91692950 -0.98207975  0.14662673
  O  2.13519037 -0.59132434  0.89536566
  C  3.00961396  0.23263529  0.55114311
  H  2.83268366  0.74450219 -0.42109823
  H  1.15288209 -1.94842959 -0.30471700
  H  0.17525768 -1.11603698  0.93620048
  H  1.07085537 -0.03456276 -1.81694716
  H -2.45421458 -0.96065791 -0.57885241
  H -1.75587338 -0.18483952  0.84720373
  H -2.86007130  0.71543230 -0.19273051
