20
opt_min/./Product_9129_0_opt.xyz
  C  3.05006000  0.47814900 -0.15040400
  C  1.54787953  0.72663432 -0.13226691
  C  0.76196953 -0.58134505 -0.13999137
  C -0.73140201 -0.38886713 -0.14528575
  N -1.17781718  0.78802817 -0.13302191
  C -2.58004315  1.09539637 -0.15376601
  H -2.73386794  1.92763998  0.53546502
  H -2.83825671  1.43722364 -1.15750513
  H -3.24228522  0.26781618  0.12104015
  C -1.53486329 -1.66772159 -0.16624229
  H -2.20516300 -1.69827412  0.69347863
  H -0.87450190 -2.52810291 -0.13603844
  H -2.15076857 -1.71733387 -1.06378659
  H  1.03518260 -1.16790804 -1.02362262
  H  1.03141686 -1.17390197  0.73904983
  H  1.24985658  1.32756662 -0.98969310
  H  1.27725160  1.28239888  0.76777085
  H  3.33835811 -0.16982979  0.67592201
  H  3.35006928 -0.00441554 -1.08018502
  H  3.59213162  1.41586361 -0.06116275
