13
opt_min/./Product_4721_0_opt.xyz
  C -0.76211600 -1.17438800 -0.44627200
  C -0.04519768  0.10377164 -0.03708996
  C  1.43403232 -0.06884917  0.25387593
  H  1.94121925  0.89522113  0.24811064
  H  1.90612807 -0.71454176 -0.48316944
  H  1.58426707 -0.51471804  1.23894160
  C -0.81959969  1.12926043  0.75087207
  H -1.26023223  1.40009711  1.67930702
  C -0.56939470  1.43008391 -0.49110963
  H -0.64475266  2.09790604 -1.31598574
  H -0.09824446 -1.82934274 -1.00620814
  H -1.10748955 -1.71427287  0.43545299
  H -1.62913834 -0.94723731 -1.06475167
