13
opt_min/./Product_2752_0_opt.xyz
  C -1.81940300  0.00346000  0.66248700
  H -2.32299276 -0.47900275  1.49092975
  H -2.15328208  1.00916703  0.44027191
  N -1.46707570 -0.88554022 -0.43693171
  H -1.54425605 -0.45741427 -1.35492054
  C -0.41427144 -0.32866702  0.35819487
  O  0.37221008  0.69788119 -0.17331327
  C  1.76477244  0.44703722 -0.16003988
  C  2.22471691 -0.62879513 -1.01142571
  H  3.30086800 -0.79374034 -0.83956842
  H  2.19587079  1.33730520 -0.65845049
  H  2.13023821  0.45537199  0.88181777
  H  0.13629546 -1.04233521  0.96761753
