13
opt_min/./Product_94_0_opt.xyz
  C -1.14122400  0.71629500 -0.01809900
  H -1.90963125  1.11134848 -0.68285215
  H -1.56931405  0.81714964  0.99413132
  C -0.74528551 -0.72906612 -0.28633952
  H -1.39604150 -1.34751179 -0.89361887
  C  0.73051709 -0.76438616 -0.33440711
  H  1.31296701 -1.43209346 -0.95781970
  C  1.22683329  0.65504576 -0.11965608
  H  1.78860035  0.76744662  0.82569001
  H  1.91819994  1.00154728 -0.88969012
  C  0.07065203  1.56766355  0.04874045
  N  0.01100489 -1.38859275  0.75943249
  H  0.04453447 -0.85155671  1.62720774
