7
opt_min/./Product_581_0_opt.xyz
  O -2.32780900  0.99112000  0.83927900
  C -1.72414689  0.39911588 -0.01263856
  C -0.33088076  0.08879798  0.02248632
  C  0.85109329 -0.17306086  0.04729478
  N  2.10865159 -0.46338306  0.05993825
  C  3.24997485 -0.73193563  0.06332480
  H -2.21817205  0.02868131 -0.93364007
