15
opt_min/./Product_8458_0_opt.xyz
  C -0.20250100 -1.17043600  0.05547300
  H -0.17921762 -1.61476848 -0.94350261
  H -0.45198421 -1.95230396  0.77988819
  C  1.16831380 -0.59816996  0.36775401
  H  1.99701777 -1.26174857  0.12851827
  C  1.47702342  0.86056445  0.24496711
  H  2.40365325  1.19598047 -0.21308862
  O  0.41473837  1.76060829  0.06193989
  C -0.68879666  1.19534714 -0.61043707
  H -0.40403816  0.92173122 -1.64073856
  H -1.43699124  1.98843994 -0.63938510
  C -1.23191600 -0.04584696  0.10436955
  H -2.15928798 -0.36060066 -0.37399026
  H -1.43560761  0.22303825  1.14350705
  C  1.43655229  0.18513521  1.59495993
