13
opt_min/./Product_7962_0_opt.xyz
  N  2.24590200 -0.29214900  0.05182800
  C  0.99759191 -0.32219630 -0.04641848
  O  0.20303983 -1.15633755 -0.69248284
  C -1.17816454 -0.94378956 -0.30049007
  H -1.48789158 -1.82587464  0.26931695
  H -1.78249334 -0.88815797 -1.20993068
  C -1.25060879  0.33580867  0.53165358
  C -0.65786249  1.44540068 -0.26634798
  H -0.37119767  1.34734109 -1.31447023
  H -0.81259742  2.47124707  0.04184490
  N  0.21146926  0.66406841  0.63072083
  H  0.64163917  1.11484805  1.43186800
  H  2.73511256 -1.03418282 -0.43550504
