15
opt_min/./Product_9917_0_opt.xyz
  N  2.13496031 -0.25528474 -0.49958839
  C  0.69474518 -0.07562099 -0.60246477
  H  0.39688535 -0.45418553 -1.59450103
  C -0.05353372 -0.86081128  0.46880550
  H  0.15945080 -1.92406324  0.37497745
  H  0.26448981 -0.52389800  1.45752909
  C -1.56454813 -0.63592216  0.32862276
  H -1.94200394 -1.08214492 -0.60137158
  H -2.06561593 -1.10527885  1.18037874
  O -1.92602905  0.71690652  0.37906810
  N -0.89989157  1.62557875 -0.22279130
  H -1.39202192  2.48513400 -0.41955925
  C  0.24944143  1.36272590 -0.64395832
  H  2.60509613  0.50970702 -0.96952954
  H  2.42097006 -0.24146050  0.47250728
