15
opt_min/./Product_8884_0_opt.xyz
  C  2.48939900  0.82052600 -0.31375800
  N  1.12017825  0.41026955 -0.31196381
  C  0.75076026 -0.56417053  0.39849651
  C -0.63502327 -1.03179175  0.41153746
  H -0.84223379 -1.78462046  1.16915856
  C -1.74813801 -0.10424289 -0.09420679
  N -2.46299313  1.02500816  0.23715211
  H -1.82918288  1.76630968  0.53037060
  H -3.12950810  0.84182716  0.98370575
  C -1.43789749 -1.07703610 -0.88510570
  H -1.55878206 -1.60283700 -1.79818709
  H  1.43803277 -1.10170943  1.07580487
  H  2.51919535  1.90841056 -0.23169192
  H  2.92867049  0.55343910 -1.27843158
  H  3.09193600  0.36606570  0.48426934
