15
opt_min/./Product_10348_0_opt.xyz
  C -1.74391600  0.27364200 -0.65377300
  C -0.72699197  0.01169866  0.41283395
  N -0.90325562 -0.00717722  1.66070235
  H -1.86082869  0.18938942  1.94936291
  C  0.67145228 -0.26767579 -0.06155462
  N  1.28446195 -1.34077306  0.63320808
  H  1.12968233 -1.25070751  1.62926677
  H  2.27091838 -1.42054411  0.41597727
  C  1.45161001  0.87963676 -0.60220127
  H  0.98269986  1.84912559 -0.72646944
  H  2.52646925  0.89698700 -0.46348933
  O  0.95127733 -0.15104339 -1.41697594
  H -2.61046713  0.78913657 -0.24264732
  H -1.31157630  0.84548257 -1.46999852
  H -2.05942388 -0.68597533 -1.06412814
