9
opt_min/./Product_9108_0_opt.xyz
  C  0.06024100 -0.49737400 -0.29181800
  C  1.17286369  0.50109906 -0.06933496
  O  2.18522775  0.26656326  0.51930395
  H  0.96128278  1.50046986 -0.49094890
  C -1.26332429 -0.02039767  0.25429624
  O -1.47518876  1.03411197  0.77309617
  H -2.06888177 -0.77682666  0.14991386
  H  0.31458616 -1.44535036  0.18444170
  H -0.05659269 -0.67932534 -1.36129140
