11
opt_min/./Product_10686_0_opt.xyz
  C -0.74135300 -0.76252600  0.50078000
  H -1.25429820 -1.27535966  1.28248813
  C -1.35542356  0.14024636 -0.54707822
  C -2.22514628  0.97456781 -0.94081774
  C -0.23783646 -0.82578096 -0.84679012
  H -0.07968072 -1.43067719 -1.71079603
  C  0.69004345 -0.34501525  0.25738886
  C  1.14592746  1.06313877  0.31099542
  O  2.26738260  1.39323879  0.57622272
  H  0.35160279  1.80386984  0.09673338
  H  1.44541611 -1.06027832  0.58480065
