15
opt_min/./Product_9022_0_opt.xyz
  C  1.77461000  0.09054400 -0.01105600
  C  0.35101223 -0.26921726  0.35841817
  H  0.34377070 -0.91529880  1.23943550
  C -0.72610776  0.82463055  0.46978255
  H -0.78364686  1.56679140  1.25998035
  O -0.65930081  1.40041375 -0.86636636
  C -0.59905682  0.40595506 -1.67902766
  C -0.63845555 -0.78684532 -0.71899672
  H -0.60926397 -1.79660159 -1.11235176
  C -1.76065353 -0.27511695  0.21620406
  H -1.95378785 -0.92538515  1.06515379
  H -2.69975829  0.03261708 -0.24240521
  H  2.30470706 -0.80869820 -0.32117996
  H  1.80527266  0.81074714 -0.82597363
  H  2.29477049  0.51019704  0.84863712
