14
opt_min/./Product_8277_0_opt.xyz
  C -2.01131500  0.40237600  0.39887500
  C -0.56028578  0.24839584  0.12623763
  O  0.32699235  1.23152343  0.45944745
  C  1.55649356  0.97774724  0.46354609
  O  2.63024562  1.51588431  0.37874902
  N  1.53721709 -0.73234339 -0.08439293
  H  1.72739038 -1.28601023  0.74666434
  H  2.27336782 -0.85423971 -0.77152596
  C  0.16872214 -0.85153632 -0.59443684
  H -0.27658821 -1.82903323 -0.39239358
  H  0.20289841 -0.71500679 -1.69213190
  H -2.60268124  0.58226913 -0.50729914
  H -2.42453155 -0.48750157  0.88296781
  H -2.14171639  1.24745148  1.06677561
