14
opt_min/./Product_11764_0_opt.xyz
  C  2.02613400  0.02960700  0.10904800
  C  0.58435602 -0.11149838 -0.24786259
  O -0.08178390 -1.32161664 -0.51065444
  C -1.29719860 -0.55592929 -0.63929378
  H -2.05631666 -0.97790856 -1.28518673
  C -1.50360339 -0.09304561  0.80347155
  H -1.43478700 -0.85182248  1.58105563
  H -2.37922772  0.53888461  0.94605366
  N -0.29936079  0.72499280  0.63372130
  C -0.47110112  0.74637844 -0.82620016
  H -0.53490882  1.59056946 -1.47956251
  H  2.63863277 -0.57042943 -0.56283426
  H  2.30533897  1.07485650  0.02474522
  H  2.16650097 -0.31312009  1.13013975
