12
opt_min/./Product_11602_0_opt.xyz
  N  2.32128900  0.40981800 -0.34788600
  C  1.24241192 -0.26941367 -0.59777595
  C  0.32114510 -0.35504647  0.59330113
  C -1.09030608 -0.62607321  0.13899465
  H -1.19925130 -1.38679653 -0.62511359
  O -2.12486327 -0.70584052  1.19721625
  C -2.16528037  0.31218776  0.37413954
  O -2.76516304  1.30050755  0.14477562
  H  0.35280670  0.53897872  1.23328271
  H  0.66974438 -1.20244023  1.19676465
  H  2.53665143  0.89029717  0.53405620
  H  3.02032333  0.50688721 -1.07095435
