16
opt_min/./Product_9351_0_opt.xyz
  C  1.78618200 -0.57779900 -0.04294000
  N  0.76671168  0.44183346  0.08775224
  C -0.17711334  0.70651364 -1.02702914
  H  0.18720384  1.27779502 -1.87956912
  C -0.99177305 -0.52642637 -1.26260376
  C -1.11748249 -0.99886066  0.15202575
  H -0.61934841 -1.95564905  0.30084383
  H -2.17403154 -1.13415902  0.38413116
  C -0.45287937  0.19423880  0.87159497
  H -0.37287471  0.21156491  1.95944964
  C -1.07892824  1.34797766  0.06993741
  H -0.71817718  2.32785789  0.34899488
  H -2.15216171  1.32869439 -0.09456187
  H  2.61676603 -0.15304844 -0.60098330
  H  1.46060642 -1.49086622 -0.55246543
  H  2.13756025 -0.83441368  0.95225367
