12
opt_min/./Product_3205_0_opt.xyz
  C  1.99173900  0.19033600 -0.02124800
  C  0.65465315  0.09427897 -0.00594239
  C -0.35801351  1.12916365  0.04228140
  H -0.14971743  2.17726813  0.07406446
  C -1.57225741  0.53878494  0.03954817
  H -2.55135824  0.97606446  0.06755257
  N -1.43563995 -0.81271466 -0.00705606
  H -2.12928252 -1.53416252 -0.02123580
  N -0.06736037 -1.08894493 -0.03509355
  H  0.28531062 -2.02465045 -0.07088679
  H  2.62120745 -0.67927527 -0.05870738
  H  2.46917854  1.14937981  0.00386342
