16
opt_min/./Product_1890_0_opt.xyz
  C -1.99681200  0.41665200  0.98763100
  H -2.78206958 -0.21315318  1.37975780
  H -1.59962255  1.12578027  1.69590588
  C -2.03636241  0.81706506 -0.45942427
  H -1.67366484  1.80382603 -0.70267628
  H -2.84792634  0.46993828 -1.08122204
  C -1.02432452 -0.18197917  0.01409906
  O  0.31641444  0.21820837  0.10097032
  C  1.25277618 -0.77066131 -0.28869797
  C  2.64344378 -0.17983805 -0.14771356
  H  3.39220358 -0.95648453 -0.28451425
  H  2.74841793  0.24276253  0.84855356
  H  2.79891067  0.60165938 -0.88522468
  H  1.05073968 -1.07975122 -1.32407531
  H  1.13946459 -1.65316723  0.36227238
  H -1.16141391 -1.21940072 -0.27220302
