14
opt_min/./Product_278_0_opt.xyz
  C  2.03512800  0.11488600  0.36122900
  C  0.69167167 -0.62173093  0.33167036
  H  0.85259167 -1.66534015  0.66188309
  O -0.26427743 -0.01133553  1.20650545
  C -1.31441814  0.51931879  0.42721200
  H -1.19712842  1.60571960  0.31662184
  H -2.25761285  0.31239573  0.94521067
  C -1.21101914 -0.17702330 -0.94227920
  H -1.44519196  0.46155362 -1.79397814
  H -1.85368814 -1.06641830 -1.01893933
  C  0.14379298 -0.74886180 -1.02950962
  H  2.74029927 -0.38747727 -0.29513204
  H  2.41720545  0.12679634  1.37864904
  H  1.89323439  1.13969719  0.02226687
