14
opt_min/./Product_5248_0_opt.xyz
  C -1.68375400 -0.07654500  0.01351400
  H -2.58755162  0.23583416  0.51409685
  H -1.83865926 -0.81651707 -0.75862311
  C -0.45206567 -0.15259023  0.85810390
  H -0.46175017 -0.08920932  1.93193788
  C  0.69407732 -0.81939647  0.05414351
  C  1.90561549 -0.78461685  0.85278853
  H  2.15356895  0.26872684  1.08656101
  H  0.46587505 -1.82475840 -0.30958350
  C  0.50068225  0.32192769 -1.00722719
  H  1.38163159  0.94720897 -1.12307834
  H  0.18702541 -0.05119666 -1.98183840
  C -0.60385234  0.94031171 -0.17137004
  H -0.74190198  1.99457569 -0.00474218
