10
opt_min/./Product_9993_0_opt.xyz
  C -0.04621600 -0.17691600  0.08720300
  C  1.20415579 -0.57202176  0.16790275
  O  2.30340300  0.26935764  0.12555753
  H  2.00301384  1.14504565 -0.14091767
  H  1.47900658 -1.60432596  0.29203340
  C -1.49321912 -0.46199584  0.06869081
  H -1.97506736 -0.71491688  1.01119757
  H -1.95104852 -0.91977052 -0.80278269
  N -0.92494644  0.84096733 -0.08440224
  H -1.11769042  1.81433236 -0.04620452
