19
opt_min/./Product_7576_0_opt.xyz
  C -1.88367200 -0.94730100  0.63407800
  C -1.30588304  0.19791911 -0.18427709
  O -0.32656940  0.93600134  0.58115015
  H -0.24293710  0.54082671  1.46977562
  C -0.56042336 -0.27967344 -1.43471659
  C  0.86939887 -0.49077076 -0.94442750
  C  1.15038571  0.75935633 -0.11489114
  C  2.05128898  0.43459001  1.06410314
  H  1.73216986 -0.44038766  1.66121823
  H  2.14370340  1.29622459  1.72375580
  H  3.03628617  0.20940837  0.66258420
  H  1.57095017 -0.52865192 -1.77689845
  H  0.95004556 -1.44079405 -0.38813413
  H -1.01397335 -1.17823229 -1.84853318
  H -0.56528611  0.50447679 -2.18980689
  H -2.10137924  0.91232712 -0.43000345
  H -2.69586491 -1.42045214  0.08885486
  H -1.12273536 -1.69859677  0.83603520
  H -2.28629392 -0.58496678  1.58042740
