10
opt_min/./Product_5472_0_opt.xyz
  C  1.80977100  0.05386600  0.00160700
  C  0.51250597 -0.22727565  0.11657147
  N -0.08709869 -1.34105567  0.64074625
  O -1.42372011 -1.16013235  0.53389092
  C -1.69669180 -0.02496607 -0.01373410
  H -2.69971704  0.30636377 -0.18755211
  N -0.56612055  0.62715557 -0.30884053
  H -0.47006446  1.52897327 -0.73915512
  H  2.14032706  0.97555484 -0.43467237
  H  2.53789157 -0.64706841  0.34822110
