12
opt_min/./Product_1938_0_opt.xyz
  O -2.14070400  0.62326400  0.26466600
  C -1.37224080 -0.53499954  0.04044680
  C  0.08065724 -0.23504477  0.39031560
  O  0.61537752  0.60228835 -0.65868021
  C  1.82669435  1.04284411 -0.70204086
  O  2.65059044  0.76572039  0.26292227
  H  2.28646490  0.28560035  1.03802220
  H  0.10540405  0.28702362  1.35258110
  H  0.65678257 -1.16759218  0.44157917
  H -1.73232225 -1.34690968  0.69032168
  H -1.42147907 -0.86831777 -1.00030797
  H -2.81825873  0.70792494 -0.41001914
