11
opt_min/./Product_299_0_opt.xyz
  C  1.55320600 -0.14659900 -0.61601800
  O  0.31482868  0.44125321 -0.96887364
  C -0.68987437  0.25754266 -0.04159205
  C -1.34343406  1.27564836  0.45466462
  O -2.03723750  2.14030727  0.83551653
  N -0.90941163 -1.07337066  0.44671375
  H -1.63527665 -1.54494286 -0.08818123
  H -1.17009090 -1.06790479  1.42587389
  H  2.25099680  0.15549254 -1.39692911
  H  1.90409054  0.21074317  0.35701932
  H  1.48358834 -1.23754596 -0.58565601
