7
opt_min/./Product_1193_0_opt.xyz
  C -0.86061200 -0.07036700 -0.02231300
  N  0.51278487 -0.32612264 -0.24164231
  C  1.63243809  0.00066858 -0.02589395
  O  2.77840468  0.15238918  0.06322483
  H -1.39173365 -1.01921415 -0.10372679
  H -1.03731335  0.35722744  0.96634553
  H -1.23775824  0.61025302 -0.78791773
