13
opt_min/./Product_1149_0_opt.xyz
  C -1.44429400  0.48019600  0.66714000
  C -0.84970897 -0.20637816 -0.53959561
  H -1.46556651 -0.12556328 -1.43467560
  C  0.58601807 -0.42572015 -0.75459858
  C  1.66723921 -0.01381626  0.21434188
  H  2.47366949 -0.73926675  0.17318386
  H  2.06438476  0.96018105 -0.05993298
  H  1.29441107  0.02359880  1.23155874
  H  0.91976641 -0.48362038 -1.78976780
  O -0.27049904 -1.47476720 -0.38856274
  H -0.69761844  0.68843143  1.42560290
  H -2.20884349 -0.15610767  1.10334607
  H -1.91001814  1.41181681  0.36215774
