11
opt_min/./Product_5086_0_opt.xyz
  N  3.52023799 -0.01049489 -0.48962004
  C  2.60396275  0.01461280  0.19271932
  C  1.43107542  0.09403581  1.02288405
  C  0.30161424 -0.64576714  0.32413867
  O -0.60677663  0.21484309 -0.03828450
  C -1.73668769 -0.29636362 -0.72411811
  H -1.65385005 -1.37911258 -0.84415684
  H -1.79358372  0.19390708 -1.69644598
  H -2.62634856 -0.04810052 -0.14161748
  H  1.63781556 -0.42570856  1.96302595
  H  1.20414201  1.15327661  1.20182663
