11
opt_min/./Product_9942_0_opt.xyz
  C  2.13194200 -0.40391500  0.14730800
  C  0.75602508 -0.18997733  0.66495717
  O  0.04143652  0.46888143 -0.24203814
  C -1.28270689  0.73126026  0.09263123
  H -1.42872846  1.49795888  0.84789444
  C -2.34119505 -0.19287554 -0.28881690
  O -2.97333628 -1.17169450 -0.15031628
  O -2.15759337  0.85398335 -1.06263324
  H  2.25246238 -1.48821464  0.08278907
  H  2.85096422 -0.05637825  0.88595076
  H  2.32268482  0.04490647 -0.83066048
