7
opt_min/./Product_1622_0_opt.xyz
  C  1.35436600 -0.18671800 -0.02443200
  O  2.30274447 -0.81467572 -0.20282570
  C  0.25061231  0.49704317  0.12289979
  C -1.06801168 -0.11744313 -0.02478607
  O -1.30731531 -1.26466941 -0.28627013
  H -1.87480926  0.62254329  0.12821229
  H  0.28327618  1.53865961  0.38484890
