9
opt_min/./Product_11455_0_opt.xyz
  C  0.07982500  0.77135700 -0.12544900
  H  0.21654872  1.82250197 -0.26500752
  C -1.10050473 -0.10400017 -0.12990067
  H -1.19349592 -0.86790105  0.63370844
  H -2.03888432  0.28311095 -0.50177503
  N -0.06414044 -0.25025406 -1.14787339
  C  1.03846210 -0.33806924 -0.19396735
  H  1.00454950 -1.11912007  0.56008324
  H  2.01732140 -0.16577591 -0.62140747
