14
opt_min/./Product_11474_0_opt.xyz
  C -0.73111006  1.07326797 -0.17901999
  H -1.09087532  1.22102887  0.83142895
  H -1.22438445  1.66878400 -0.93173095
  C  0.75320361  0.83423279 -0.35102240
  C  1.62415448  0.86756457  0.76931586
  N  2.31565115  0.88419043  1.68172906
  H  1.20689997  1.20834499 -1.26387039
  C -0.23128645 -0.29915524 -0.53448296
  O -0.36947078 -0.72426942 -1.85330136
  H -1.25028239 -1.09802775 -1.98171929
  C -0.30530007 -1.39841722  0.50498241
  H -0.08932905 -0.99615280  1.49076974
  H -1.30487908 -1.83688893  0.50203205
  H  0.41935978 -2.17632842  0.26890624
