17
opt_min/./Product_6905_0_opt.xyz
  C  0.16020400  1.48854700  0.62639800
  C  0.22445475  0.16059318 -0.12203462
  O  0.91793454 -0.80078190  0.68153391
  C  2.18956699 -1.16016717  0.21991978
  H  2.86802102 -0.29903922  0.17449726
  H  2.14548812 -1.62959997 -0.77155451
  H  2.57848736 -1.88504302  0.93579793
  C -1.15837343 -0.39680434 -0.43515345
  H -1.12235709 -1.25284985 -1.10594218
  C -2.24300893 -0.35498231  0.60744906
  H -2.56819272 -0.76508321  1.53021036
  C -2.38567481  0.45873747 -0.39601567
  H -2.92631234  1.21011405 -0.91743731
  H  0.77189593  0.29350854 -1.06658532
  H -0.37980214  2.23151735  0.04473196
  H -0.35828780  1.33825981  1.57123578
  H  1.16265548  1.85298162  0.83714330
