14
opt_min/./Product_10699_0_opt.xyz
  C  1.73886600 -0.46878800 -0.15689000
  C  0.35745796 -0.35366869  0.49505092
  H  0.47297756 -0.60575722  1.55279712
  C -0.29843110  1.03141479  0.31616099
  H  0.26258201  1.65639079 -0.37886416
  H -0.41829076  1.58449160  1.24336154
  C -1.63752554  0.71648428 -0.29613551
  O -2.54047892  1.44216905 -0.60218039
  N -1.65233905 -0.67934132 -0.48379557
  H -2.45864534 -1.11310638 -0.91264232
  C -0.59077396 -1.36786172 -0.08974941
  H  1.66994017 -0.33678073 -1.23170761
  H  2.15891242 -1.44973164  0.04622043
  H  2.40443554  0.28163657  0.26003622
