14
opt_min/./Product_5408_0_opt.xyz
  C -2.21806600  0.03265900  0.72375500
  C -1.02371367  0.17913870 -0.20408136
  O  0.13283047 -0.24257847  0.48460933
  C  1.31183324 -0.11017819 -0.26657425
  C  2.48776237 -0.43796400  0.60001383
  C  3.76938339 -0.44436567  0.63185439
  H  2.18348594 -0.82975179  1.57848828
  H  1.41979155  0.92032502 -0.64568052
  H  1.29787510 -0.78346144 -1.14090727
  H -1.16871620 -0.43134778 -1.10771451
  H -0.90633692  1.22808591 -0.51401582
  H -2.31082784 -0.99627372  1.05543179
  H -3.12573732  0.31544427  0.19691223
  H -2.10870887  0.66902749  1.59479742
