15
opt_min/./Product_9210_0_opt.xyz
  C  3.33817000 -0.50945298 -0.19814804
  C  1.90138166 -0.41916054 -0.34112676
  C  0.71173632 -0.34778615 -0.46487993
  C -0.72869475 -0.26291358 -0.59587346
  C -1.36031505  0.24146412  0.70463539
  O -2.77954149  0.29996239  0.55654381
  C -3.32506267  1.46788497  0.71002727
  H -4.41376474  1.29537190  0.55974996
  H -1.14728715 -0.45336771  1.52390990
  H -0.97395787  1.23225684  0.97163781
  H -1.13736783 -1.24913737 -0.83791453
  H -0.98978221  0.41872804 -1.41017490
  H  3.61588715 -0.37182303  0.84371820
  H  3.82351951  0.25456064 -0.80255935
  H  3.68038259 -1.48718563 -0.53554305
