12
opt_min/./Product_8626_0_opt.xyz
  C  0.68855400 -0.79225800  0.33325900
  H  1.29087670 -1.65705295  0.07144829
  H  0.52915886 -0.80601484  1.41929217
  C -0.63809532 -0.65344459 -0.39682872
  H -0.49881275 -0.86231049 -1.46196299
  H -1.43389475 -1.29289839 -0.02368144
  C -0.90561965  0.84092034 -0.21251275
  H -1.37862537  1.05789099  0.75283056
  H -1.50063709  1.28696331 -1.01219248
  O  0.38306527  1.44830967 -0.23423519
  C  1.34638653  0.54575801  0.02787486
  O  2.50998490  0.81157238  0.02385663
