15
opt_min/./Product_10351_0_opt.xyz
  C  0.60245400  1.56249300  0.26941200
  C  0.05877399  0.26309553 -0.32836967
  N  0.89278327 -0.86470906  0.06242824
  C  2.00096133 -1.11059702 -0.55314519
  H  2.52804299 -1.96011793 -0.08014795
  H  0.54076965 -1.34216418  0.90038348
  C -1.40849674  0.07414705  0.05402334
  O -2.16384881  1.00446788  0.20757502
  N -1.80970312 -1.21465941  0.22229121
  H -2.80141415 -1.38052030  0.30245190
  H -1.23904449 -1.98434395 -0.08858421
  H  0.10170687  0.34660896 -1.42257843
  H -0.02481391  2.39265681 -0.04223296
  H  0.59322682  1.50976192  1.35722622
  H  1.62301680  1.71930505 -0.07095188
