12
opt_min/./Product_4850_0_opt.xyz
  C -1.80760000  0.41198700  0.20980800
  C -0.30304046  0.65082282  0.14669421
  C  0.48363013 -0.62379323  0.25717477
  O  0.06597884 -1.73026250  0.35033576
  O  1.86186276 -0.31218097  0.23168781
  C  2.70093752 -1.32179449  0.32013561
  H  3.70492381 -0.85680325  0.27808241
  H  0.03395011  1.31618932  0.94465166
  H -0.01599153  1.13055026 -0.79176934
  H -2.16645438  0.44727741  1.23264100
  H -2.34391864  1.16007791 -0.36501261
  H -2.04785212 -0.56735710 -0.19327198
