16
opt_min/./Product_11352_0_opt.xyz
  C -1.27583000 -0.84739800 -1.09534000
  C -0.32389731  0.05255045 -0.30219871
  C -1.10119237  0.83715655  0.75989264
  H -1.83234163  1.48012828  0.27631113
  H -1.61817790  0.15244938  1.43008573
  H -0.42380529  1.45677539  1.34401499
  C  0.36968732  1.02518401 -1.24880497
  N  1.64648714  0.73737430 -1.11431456
  H  2.37402019  1.21692641 -1.62391563
  C  1.94176661 -0.29332938 -0.19775997
  H  2.96411868 -0.58201257 -0.02985665
  C  0.80139949 -0.73906857  0.31403926
  H  0.65387994 -1.51827884  1.03615458
  H -1.77285729 -1.55114524 -0.42966886
  H -0.72705268 -1.40821410 -1.85018295
  H -2.02487170 -0.23737349 -1.59320014
