19
opt_min/./Product_10190_0_opt.xyz
  C -2.84441444 -0.20902702 -0.75572922
  C -1.93118498 -0.57866055  0.40615581
  C -0.44137388 -0.63290678  0.05174007
  C -0.14401060 -1.63510745 -1.06540729
  H -0.79577325 -2.50144191 -0.98527804
  H -0.28961713 -1.18715618 -2.04654943
  H  0.88597707 -1.97601690 -0.99876077
  C  0.13968839  0.74350550 -0.29403738
  C  1.59832491  0.82065043  0.05549086
  O  2.17104502 -0.04043038  0.65906979
  H  2.03879917  1.72797738 -0.26841161
  H -0.35647357  1.53348982  0.27875366
  H  0.01508491  0.99058007 -1.35062492
  H  0.08823257 -0.96522612  0.95175508
  H -2.22581652 -1.55969824  0.78513623
  H -2.07251414  0.13927377  1.21835374
  H -2.78518567 -0.95236201 -1.54608747
  H -2.57598792  0.75923246 -1.17212296
  H -3.87631661 -0.15702749 -0.41575693
