16
opt_min/./Product_6767_0_opt.xyz
  C  2.70980200  0.04711800  0.26671900
  N  1.73164365 -0.54717594  1.16162702
  C  0.48986964 -0.89476343  0.88858983
  O  0.19794112 -0.65216117 -0.42075316
  C -1.14729670 -0.88743924 -0.76094383
  C -1.99352851  0.38436122 -0.62762189
  O -2.06665967  0.86158338  0.69150037
  H -2.15336684  0.11181191  1.29017049
  H -3.00000239  0.17854126 -1.02453374
  H -1.54291215  1.19091542 -1.21245976
  H -1.17141225 -1.23803574 -1.79580866
  H -1.55759203 -1.66227527 -0.09887546
  H  2.04404230 -0.73073435  2.10112435
  H  2.18073966  0.53253405 -0.55027825
  H  3.36772879 -0.72033851 -0.14948654
  H  3.30878229  0.78009774  0.80503627
