13
opt_min/./Product_11284_0_opt.xyz
  C -2.08652419  0.68141456  0.20516238
  C -1.06687237 -0.43421679  0.06139642
  O -0.06574930  0.00823633 -0.88012120
  C  1.00329198 -0.59204707 -1.22298053
  N  1.32294589 -1.82519069 -0.71619421
  C  0.69063048 -2.64103544  0.12635699
  N  0.17510620 -3.37668446  0.83869064
  H  2.20070756 -2.19903171 -1.05865756
  H -1.53994361 -1.34365449 -0.32392719
  H -0.58868183 -0.65288603  1.02116682
  H -1.62762717  1.55388582  0.66398678
  H -2.46958269  0.95985046 -0.77311708
  H -2.91195193  0.34898402  0.82926303
