7
opt_min/./Product_583_0_opt.xyz
  O -1.41821600  0.59473799 -0.98090000
  C -1.07451493  0.21886076  0.09105506
  C  0.33970854 -0.19959968  0.43674476
  C  0.71475169 -0.61381972  1.61473947
  C  1.26415092 -0.11188530 -0.63390001
  N  2.01766146 -0.04207534 -1.48880390
  H -1.74978133  0.13469276  0.95490770
