17
opt_min/./Product_9034_0_opt.xyz
  C  1.99507800 -0.27614600 -0.42878400
  C  0.67635387  0.25095086 -0.98243938
  H  0.81048450  0.50499027 -2.04384845
  C -0.50218298 -0.69562794 -0.82850540
  H -0.66010189 -1.42801471 -1.60002787
  C -0.93759642 -0.95644389  0.58245751
  H -1.46720243 -1.87616874  0.77539908
  H -0.32421896 -0.62183718  1.40247935
  C -1.62407367  0.09950762 -0.23565155
  H -2.64825503 -0.00718759 -0.54681045
  C -1.07766850  1.49403858 -0.01261389
  H -1.18655083  1.83163366  1.02193811
  H -1.55523609  2.22069183 -0.67791536
  O  0.31675295  1.44247527 -0.27623934
  H  1.84438175 -0.76194252  0.53005134
  H  2.43967641 -0.97900970 -1.12395726
  H  2.66603745  0.56651897 -0.29585731
