11
opt_min/./Product_1779_1_opt.xyz
  C -1.62620900  0.18008700  0.03782300
  C -0.73024077 -1.00847511 -0.13197527
  H -0.69868387 -1.62804446  0.76295345
  H -0.97498099 -1.66512785 -0.96719948
  C  0.50729320 -0.10063910 -0.19806894
  O  1.53438889 -0.51630821  0.66545464
  H  2.25184208  0.12790983  0.66022643
  H  0.88352654  0.04626304 -1.21360867
  C -0.41355575  1.04139669  0.28363655
  H -0.30324642  1.23697221  1.34792789
  H -0.41880571  1.99383398 -0.24649748
