8
opt_min/./Product_7472_1_opt.xyz
  N -1.50818400 -0.21989200  0.19494900
  C -0.35599657 -0.48293347 -0.32679422
  C  0.89005484 -0.17791966  0.26956567
  N  1.51775467  0.92430514  0.19725780
  H  2.47837831  0.88375962  0.53334199
  H  1.32573023 -1.13172304  0.63953564
  H -1.64232640  0.29264706  1.06684578
  H -2.34358984 -0.48701194 -0.30820300
