10
opt_min/./Product_799_0_opt.xyz
  O -1.70556500  0.40898100 -0.58039100
  C -0.66541449 -0.01174327  0.24092491
  H -0.94326673  0.13329449  1.29935236
  C -0.20773491 -1.46038784  0.09509159
  N  1.12973329 -1.41303648 -0.09201268
  C  1.53012448 -0.16311722 -0.12833209
  H  2.57290747  0.10444812 -0.24599122
  N  0.57324607  0.74203611  0.00819604
  H  0.65148316  1.74592690 -0.04463759
  H -2.04583829 -0.36605744 -1.04536824
