13
opt_min/./Product_8525_0_opt.xyz
  O  0.55038100  1.79280700  1.37547100
  C  0.52908325  0.83104774  0.65333410
  C  1.73243393  0.08976316  0.10177177
  H  2.32726854 -0.31499613  0.92847889
  H  2.36207553  0.77200365 -0.47990120
  O  1.26682038 -0.95910108 -0.72305603
  C -0.15322150 -1.01285360 -0.71965111
  H -0.47802490 -1.97404575 -0.30212943
  H -0.50968372 -0.95581558 -1.75205910
  C -0.65780390  0.13194476  0.10964925
  C -1.91935139  0.48264942  0.33554526
  H -2.14514344  1.32876628  0.95935143
  H -2.73951900 -0.06718370 -0.09438911
