13
opt_min/./Product_4822_0_opt.xyz
  C -1.63312867 -1.02137649  0.38510635
  O -0.24004872 -1.16391909  0.30382006
  C  0.45332068 -0.00652500 -0.01824681
  C  1.94174349 -0.20344639 -0.09815793
  H  2.22487405 -0.58638757 -1.07886051
  H  2.23005607 -0.93412220  0.65314200
  H  2.46290018  0.73253304  0.08042461
  C -0.11481550  1.14085793 -0.27420604
  N -0.60307233  2.26156942 -0.34066492
  H -0.92471404  2.60357937 -1.24493769
  H -2.03325440 -2.01282602  0.58936722
  H -2.05189121 -0.64340721 -0.55538396
  H -1.91385830 -0.33390727  1.19161207
