11
opt_min/./Product_1844_0_opt.xyz
  N -1.69966300 -0.68612600 -0.24306500
  C -0.40245001 -0.41933585 -0.06672901
  C  0.61383219 -1.34036479  0.23387373
  C  1.69356908 -0.49564831  0.32473384
  H  2.71761250 -0.75883907  0.54094943
  O  1.50024341  0.84258279  0.12768342
  C  0.13053070  0.99957925 -0.14002531
  H  0.00286664  1.46570934 -1.12073599
  H -0.32102311  1.63835291  0.62696458
  H -1.98690601 -1.65001063 -0.23631338
  H -2.35811648  0.01531767 -0.53715150
