7
opt_min/./Product_10921_1_opt.xyz
  O  1.04646500 -0.27177800 -0.59067100
  C -0.30335874 -0.34814289 -0.17156180
  C -1.13094902  0.80122715  0.05725311
  H -0.55766258  1.74375790 -0.01384214
  H -0.80414360 -1.01926986 -0.88269464
  H -0.38394205 -0.88119201  0.79944952
  H  1.49341688  0.43084991 -0.10401438
