11
opt_min/./Product_8309_0_opt.xyz
  C  2.46695700  0.55442700 -0.18474700
  O  1.68502676 -0.44013062 -0.03721626
  C  0.37899563 -0.38638467 -0.04987886
  C -0.48667100 -1.52825725  0.10204100
  N -1.69188876 -0.90334562  0.02271631
  H -2.57515078 -1.38269590  0.08648554
  C -1.54927456  0.45590251 -0.15656482
  H -2.38219639  1.12630961 -0.24446733
  N -0.31102164  0.80838002 -0.20293489
  H  3.52166514  0.34042474 -0.15806975
  H  2.09412176  1.55442899 -0.35129220
