8
opt_min/./Product_355_0_opt.xyz
  N  0.42146586  0.78141214  1.51728500
  C  0.05077743  0.65747554  0.31351923
  C -0.49178117 -0.59415931 -0.12755606
  N -0.87722083 -0.81465565 -1.30888349
  N -1.22814354 -0.99100344 -2.36635819
  H -0.57301427 -1.40286446  0.58201941
  H  0.10162226  1.43350419 -0.46183276
  H  0.79505890  1.69486656  1.75700517
