11
opt_min/./Product_3394_0_opt.xyz
  N  1.27593300  0.80026900 -0.62550900
  C  1.53880639 -0.35760515  0.13885456
  O  0.90484444 -0.43748539  1.38201290
  C  0.25105063 -1.06622527  0.28729613
  C -0.73668231 -0.19770686 -0.37987168
  C -0.09106011  0.90035876 -0.80094077
  H -0.50040003  1.77410827 -1.27453100
  H -1.77469672 -0.43112194 -0.49552913
  H  0.14298192 -2.13816354  0.36707973
  H  2.52020717 -0.80274788  0.05029754
  H  1.87014086  1.61004511 -0.60427255
