11
opt_min/./Product_1630_0_opt.xyz
  N  2.07043800  0.58635200  0.03313700
  C  1.15609547 -0.40770652  0.21926121
  O  1.13926162 -1.09793136  1.22849049
  C  0.35194367 -0.78072865 -0.94570280
  O -0.88568689 -0.60865480 -1.03491966
  C -1.68306033  0.03678737 -0.00520578
  H -2.48811116  0.56025826 -0.51654047
  H -1.06545461  0.71692344  0.58237246
  H -2.08144985 -0.75118253  0.63663058
  H  2.66072144  0.83956880  0.81239150
  H  1.98041589  1.24897217 -0.72008158
