13
opt_min/./Product_11623_0_opt.xyz
  C  2.16155700  0.42924400  0.89621900
  O  0.92870469  0.04218645  1.47062500
  C -0.05341712 -0.32400531  0.61715326
  C -0.75934422 -1.52853768  0.53463395
  C -1.66513290 -1.23647255 -0.48268042
  H -2.41332417 -1.87445704 -0.91502133
  N -1.53583566  0.02852366 -0.96592540
  H -2.04356353  0.50939783 -1.69384517
  N -0.51426494  0.61041052 -0.29293137
  H -0.24544435  1.57109496 -0.45114562
  H  2.82547504  0.63839923  1.73209993
  H  2.58150502 -0.38391760  0.29493331
  H  2.06943857  1.32410692  0.27118048
