13
opt_min/./Product_9477_0_opt.xyz
  O  2.45402700  1.16177900 -0.58823600
  C  2.05982150  0.38162221  0.22725299
  C  0.61455147  0.20151929  0.62046477
  C -0.09521142 -0.61231151 -0.47006755
  O -1.47703042 -0.83486513 -0.18382147
  C -2.29337266  0.20500424 -0.19582634
  O -2.02389761  1.34370563 -0.43288187
  H -3.31180819 -0.15294908  0.04125073
  H  0.00702897 -0.10031542 -1.43255129
  H  0.33418118 -1.61434612 -0.54165900
  H  0.53946188 -0.32050493  1.57447415
  H  0.13470808  1.17931581  0.69272056
  H  2.75890680 -0.31159224  0.73839960
