18
opt_min/./Product_6806_0_opt.xyz
  C -1.67459400  0.28895300  0.29939300
  H -2.69617846  0.51111102 -0.01337518
  H -1.67567105  0.05480082  1.37151352
  C -1.11856079 -0.90980088 -0.48829294
  H -1.67800229 -1.02285079 -1.41940750
  H -1.28258116 -1.81271046  0.10350960
  C  0.37090772 -0.75374213 -0.80606800
  H  0.49486516 -0.30367319 -1.79609655
  H  0.85059359 -1.73324339 -0.81915496
  C  1.06509503  0.17780267  0.19751522
  C  2.57182849  0.23839436 -0.04577680
  H  2.78143954  0.87756499 -0.90094153
  H  2.97313062 -0.75358189 -0.24635870
  H  3.08277542  0.65153269  0.81998387
  H  0.88459024 -0.20038783  1.21598373
  C  0.44109434  1.55074412  0.09793445
  N -0.85359330  1.48652692  0.11493081
  H -1.38225682  2.34905022  0.06407563
