13
opt_min/./Product_309_0_opt.xyz
  C -0.78224900  1.23173600  0.39692500
  C  0.03252003  0.18389113 -0.34606108
  O  1.32878250  0.12509035  0.30687244
  C  2.18229286 -0.72361928 -0.16426560
  H  3.09020636 -0.60854184  0.47252892
  C -0.62523440 -1.18824949 -0.33345713
  H -0.86511770 -1.47728183  0.68842117
  H -1.53903481 -1.16965427 -0.91933068
  H  0.06413484 -1.91936291 -0.75082946
  H  0.21096598  0.50455317 -1.38053867
  H -0.93961063  0.92088807  1.42707786
  H -0.25630077  2.18415699  0.40088668
  H -1.74581532  1.36414855 -0.08602476
