10
opt_min/./Product_2392_0_opt.xyz
  N  1.64790600 -1.06425700 -0.07607200
  C  0.62909354 -0.30005128 -0.02962224
  N -0.66199786 -0.78111517  0.03715215
  H -0.94994693 -1.74025273  0.05673036
  N -1.52655453  0.30505293  0.07420052
  H -2.52650840  0.23791719  0.12422680
  N -0.85797421  1.42878965  0.03483621
  C  0.40689042  1.14570585 -0.02647848
  H  1.15735046  1.90793719 -0.06793418
  H  2.52096171 -0.54930125 -0.12226903
