11
opt_min/./Product_10662_0_opt.xyz
  C  1.41355200  0.27221900  0.08636600
  C  0.11740306 -0.28600419 -0.44744321
  H  0.23933513 -0.73333253 -1.43773780
  O -0.49986313 -1.26769355  0.43803454
  C -1.59192162 -0.43372018  0.52158197
  H -2.45845037 -0.69159051  1.10311983
  C -1.13604054  0.53353774 -0.27196574
  H -1.47033761  1.47944358 -0.63994565
  H  1.27511121  0.61844208  1.10945723
  H  2.19216285 -0.48727457  0.07011074
  H  1.72859071  1.11417325 -0.52908598
