12
opt_min/./Product_8685_0_opt.xyz
  C -1.67532600 -0.11399800 -0.33894200
  N -0.26873750 -0.48289177 -0.41802749
  C  0.65332352  0.48221244  0.12813222
  C  2.04426638 -0.07653125  0.23907983
  O  2.34946017 -1.22870570  0.11452759
  H  2.80348457  0.68851797  0.50510491
  H  0.38741882  0.85503970  1.13804610
  H  0.68192210  1.35737703 -0.53143315
  H -0.09009247 -1.39572037 -0.01666499
  H -2.23958147 -0.75519961  0.34068642
  H -1.78735212  0.91512943  0.00219719
  H -2.12338647 -0.18847085 -1.33122589
