10
opt_min/./Product_5487_0_opt.xyz
  O  2.34570200  0.04387100 -0.42203800
  C  1.34336790 -0.39833572  0.32607916
  C  0.10047980  0.23958576 -0.11771808
  H  0.16586342  1.02400914 -0.87969036
  C -1.11266417 -0.64470552 -0.16587732
  H -1.00024319 -1.67272945  0.14862414
  H -1.80952882 -0.48174750 -0.98248807
  N -0.96149157  0.31455596  0.87411622
  H -1.53567624  1.14783901  0.78000291
  H  3.17686013 -0.38603394 -0.16139759
