14
opt_min/./Product_6915_0_opt.xyz
  N  2.21031300 -0.88456100 -0.11533500
  C  0.92688653 -0.32438112 -0.00826948
  C -0.28586316 -0.80625028  0.29945787
  H -0.49987398 -1.79904057  0.65500502
  C -1.27867921  0.22932562  0.08652488
  N -2.64928087 -0.03262489  0.25440681
  H -2.83632037 -0.66052960  1.02703532
  H -3.18584647  0.81925997  0.34206808
  C -0.74670894  1.41051285 -0.35152605
  N  0.75837915  1.05072802 -0.47072557
  H  1.00567611  1.14444702 -1.45632444
  H  1.29439766  1.74067617  0.05586964
  H  2.19875031 -1.87014822  0.11097010
  H  2.90292809 -0.41267966  0.45962793
