17
opt_min/./Product_9661_0_opt.xyz
  C  2.14710600 -0.69049200  0.07443800
  C  0.76898052 -0.12865478  0.40647340
  H  0.60733664 -0.09069227  1.49067688
  C  0.43932395  1.23060737 -0.20947318
  H  0.81869913  1.27974286 -1.23266266
  H  0.86998480  2.04818574  0.36734282
  C -1.09054456  1.22056061 -0.19724649
  H -1.55211833  1.89620321 -0.91239395
  H -1.43693054  1.46398976  0.80948562
  C -1.41564438 -0.23652035 -0.49071431
  C -1.53778854 -1.12352528  0.67835974
  H -1.93185928 -2.11044935  0.36447065
  H -1.74749765 -0.44678753 -1.50901701
  O -0.23277222 -1.01423707 -0.15258068
  H  2.05720389 -1.74830657 -0.16561213
  H  2.82254857 -0.59230540  0.91944799
  H  2.58448874 -0.18031918 -0.78148015
