16
opt_min/./Product_10044_0_opt.xyz
  C -3.02802200 -0.09264000 -0.40529800
  C -1.67258824  0.58910948 -0.48618269
  O -0.67306399 -0.36885879 -0.14918281
  C  0.58525549  0.05607712 -0.21896345
  N  0.87188876  1.23035847 -0.56383606
  H  1.85416536  1.45725567 -0.60773492
  O  1.39992401 -0.98069867  0.10242585
  C  2.79066466 -0.73826893  0.13923005
  H  3.23839929 -1.66305907  0.49436669
  H  3.03228899  0.07715350  0.82367015
  H  3.18712235 -0.52008141 -0.85747121
  H -1.47656587  0.97280761 -1.49339593
  H -1.61061210  1.43178241  0.21009700
  H -3.16400854 -0.54273507  0.57125056
  H -3.11109080 -0.87249903 -1.15644802
  H -3.80851926  0.64033839 -0.58072852
