12
opt_min/./Product_7065_0_opt.xyz
  O  1.84938800 -0.97669200  0.43052700
  C  0.72825169 -0.32427683  0.05074396
  N -0.47689642 -0.87602031  0.25723441
  H -0.61573450 -1.46034337  1.07684833
  C -1.54363572 -0.09752063 -0.33464416
  H -2.36154189  0.07731375  0.36336640
  H -1.91865297 -0.61621094 -1.22025392
  C -0.83000602  1.19700833 -0.80485273
  O -0.15060123  1.74390450  0.28974009
  C  0.63441839  0.95466436 -0.59308751
  H  1.45451348  1.45525856 -1.08026700
  H  2.16211853 -1.60197623 -0.23437856
