10
opt_min/./Product_5282_0_opt.xyz
  C -1.76249816  0.32193984  0.41991612
  H -2.45555902  0.63951903  1.16001466
  C -1.08652636  0.55172916 -0.66980977
  H -0.83269836  1.21441021 -1.46176022
  C -0.81652881 -0.76476774  0.00267767
  N  0.37402707 -1.02442155  0.73280334
  N  1.37904790 -0.34828135  0.64958523
  C  2.42339363  0.17136629  0.70050781
  H  3.37403089  0.58372078  0.80419296
  H -1.18657218 -1.68979492 -0.43147447
