14
opt_min/./Product_11010_0_opt.xyz
  C  1.30227700 -0.64167500  0.38994200
  C  0.17166814 -0.06751295 -0.45402940
  H  0.42439358 -0.16918896 -1.51268356
  C -1.15605554 -0.76154490 -0.14845433
  H -1.05389050 -1.69693668  0.40679863
  H -1.80013724 -0.91586837 -1.01741226
  O -1.85183513  0.15773101  0.74978179
  C -1.33576314  1.31474700  0.83977367
  C -0.13776137  1.38928975 -0.06096372
  H  0.70246526  1.90458031  0.40527089
  H -0.44970086  2.00117784 -0.91522187
  H  2.22399301 -0.08633576  0.22999100
  H  1.47212940 -1.68701936  0.13553749
  H  1.06074894 -0.58849976  1.45204251
