14
opt_min/./Product_6180_0_opt.xyz
  O  1.82571800 -0.39417800 -0.64735100
  C  0.80435158 -0.06670274  0.28016069
  H  1.22463266 -0.06099521  1.29406810
  C  0.24239668  1.32467246 -0.10087440
  H  0.90894738  1.84969476 -0.78359878
  H  0.12872410  1.95976283  0.78519385
  C -1.13055345  1.20908437 -0.61663753
  C -1.59349136 -0.14147943 -0.25361734
  H -2.24628755  0.06545637  0.60497101
  H -2.22868562 -0.59017200 -1.01652148
  C -0.40173594 -1.02521250  0.15958935
  H -0.59161552 -1.58556359  1.07341420
  H -0.17882426 -1.73711626 -0.63796541
  H  2.45627331 -0.99512338 -0.24178778
