12
opt_min/./Product_10589_0_opt.xyz
  O  3.20645523 -1.16067074  0.75180974
  C -6.09986767  11.29787121  8.33063971
  C -7.19494506 -0.50509332 -3.58960982
  C -7.65270225 -8.55024351 -0.59945174
  C  9.80440222 -2.61759556  19.22712595
  C  9.89016610  12.41336799 -1.30966927
  N -7.55771410  3.81492627 -18.63719375
  H -32.24419605  1.85305891  25.27776708
  H -6.46906567 -1.74538493  1.67697585
  H -8.87474743 -13.93414113  0.95221929
  H -1.86645455 -16.87148068  8.26244421
  H -1.26133900 -12.90626224  4.84097004
