11
opt_min/./Product_2547_0_opt.xyz
  C  2.44005647  0.42632372 -0.49594338
  C  1.27484022  0.66401504 -0.36471611
  C -0.13923175  0.93490764 -0.19672804
  C -0.78436206 -0.05884500  0.78221567
  N -0.70529916 -1.37009365  0.29151905
  C -0.65858928 -2.44633027 -0.14484762
  H -1.84090363  0.18762842  0.92841464
  H -0.26818404 -0.03044945  1.75064010
  H -0.26886514  1.94883665  0.19386705
  H -0.63406457  0.86159674 -1.16913341
  H  3.46094626  0.22292587 -0.62094971
