14
opt_min/./Product_819_0_opt.xyz
  C  1.24726100 -0.35294500 -0.69914500
  H  0.73757625 -0.53895890 -1.63408918
  H  2.31551691 -0.50710090 -0.75169748
  C  0.54158637 -0.70320092  0.57820466
  H  1.08555513 -1.15659575  1.39377021
  C -0.94431106 -1.00161343  0.44116720
  H -1.15503823 -1.70217410 -0.38003589
  H -1.38846587 -1.45154891  1.32860143
  C -1.65987231  0.22670243  0.02124659
  C -0.64161264  1.28218796 -0.16657518
  H -0.72487991  1.51966330 -1.23746208
  H -0.89501078  2.20579403  0.35308145
  C  0.73470647  0.73723273  0.19530205
  H  1.42188128  1.38281409  0.72017210
