10
opt_min/./Product_1599_0_opt.xyz
  O  2.21128100 -0.29506200  0.57839800
  C  1.28644340  0.46445712 -0.07883057
  C  0.08474532  0.05997196 -0.36853749
  C -1.13603044 -0.35803705 -0.58161703
  C -2.23383990 -0.09530707  0.36255833
  O -2.12744188  0.39438979  1.45525089
  H -3.22335096 -0.39958314 -0.03565867
  H -1.39642160 -0.87935194 -1.49391949
  H  1.59565184  1.46066937 -0.38445494
  H  3.03191281  0.19877521  0.67093389
