12
opt_min/./Product_5749_0_opt.xyz
  C  1.24547900 -0.38159500  0.10537100
  C -0.19348186  0.03652548  0.04548606
  C -1.03585969  0.17658645  1.25837139
  H -2.10395789  0.11617856  0.99569590
  O -0.50570026  1.41269833  0.45718693
  H  0.24092954  1.75408041  0.97917582
  C -0.96899972 -0.31435477 -1.16635753
  O -0.84021136 -1.33810926 -1.78920592
  H -1.77273841  0.41458106 -1.38717272
  H  1.83100557  0.13282334 -0.65627480
  H  1.27991666 -1.44935461 -0.10185016
  H  1.66983048 -0.21220328  1.09299031
