14
opt_min/./Product_2453_0_opt.xyz
  C -1.64326700 -0.19522100  0.37889000
  C -0.44015735  0.25024213 -0.45065039
  H -0.79035248  0.83566895 -1.31957799
  N  0.53636892  0.96157349  0.34465601
  H  0.68051793  1.90235831  0.00366760
  C  1.78846752  0.18081697  0.31343309
  H  2.63227032  0.75746448 -0.07495391
  H  2.04954331 -0.14221424  1.32815524
  C  1.54466675 -1.04440083 -0.52019224
  N  0.31913734 -0.92116640 -0.92723303
  H -0.17800569 -1.66010948 -1.40076316
  H -2.37077538 -0.70564690 -0.24915383
  H -1.31840255 -0.85953109  1.17523552
  H -2.11565708  0.67647000  0.82472802
