15
opt_min/./Product_9694_0_opt.xyz
  O  2.53771700  0.59445300 -0.01295100
  C  1.19015086  0.43367388  0.37355583
  C  0.59181155 -0.69137418 -0.46508025
  C -0.81704385 -1.07335860  0.00148607
  C -1.74218840  0.04652301 -0.10844831
  C -2.59629396  0.91901058  0.26430058
  H -3.37424263  1.49324554  0.68143287
  O -2.03968570  0.96907379 -1.14853361
  H -0.80534154 -1.41892020  1.03777517
  H -1.18849841 -1.88100176 -0.63556150
  H  0.56042281 -0.37057804 -1.50650609
  H  1.24474665 -1.56171749 -0.39436775
  H  1.13030326  0.17681519  1.44330059
  H  0.62266029  1.35938679  0.20929202
  H  2.90465541  1.36659740  0.42817462
