13
opt_min/./Product_9844_0_opt.xyz
  C -1.36576200 -0.18788200 -0.20900400
  H -1.53934774 -0.58112358 -1.21699737
  H -2.32549448  0.00987241  0.28261310
  O -0.62789138 -1.13021315  0.56186382
  C  0.56947501 -0.47981204  0.93760890
  H  1.05284581 -1.03677640  1.72928305
  C  1.43288637 -0.24371247 -0.32976329
  H  2.44279029  0.11918858 -0.12105921
  H  1.48068435 -1.15650670 -0.93602231
  O  0.68889116  0.77257869 -1.05324256
  C -0.45538820  1.04410278 -0.24977999
  H -0.90681586  1.97209673 -0.58015710
  C  0.41746230  0.99001061  0.96725852
