17
opt_min/./Product_10916_0_opt.xyz
  O  2.15869600 -0.63602700  1.02033700
  C  1.74832357 -0.38796920 -0.31299880
  C  0.34325862  0.25308311 -0.34301100
  C -0.67552333 -0.70929262  0.26909661
  C -2.09328178 -0.23523773  0.28581076
  C -2.55179616  0.91012380 -0.18557042
  H -3.59808876  1.14709883 -0.12805337
  H -1.90981051  1.65149559 -0.62741807
  H -2.78610618 -0.93505893  0.73544796
  H -0.35877622 -0.93307377  1.29118641
  H -0.63223080 -1.65288470 -0.27878716
  O  0.37417300  1.50664425  0.30069882
  H  0.42053185  1.33978613  1.24863057
  H  0.08637966  0.46880303 -1.38396046
  H  2.44676653  0.28151560 -0.82047228
  H  1.73124871 -1.34232118 -0.84735427
  H  2.78872558  0.03437304  1.28926171
