15
opt_min/./Product_8453_0_opt.xyz
  C  1.15845000  0.53984800 -0.46780700
  H  0.93718631  0.80813304 -1.49839561
  H  2.10234645  0.99870801 -0.18149547
  C  1.05501854 -0.97009056 -0.17404226
  H  1.89546059 -1.36176468  0.39270897
  H  0.89331209 -1.60196766 -1.04597778
  C -0.20026784 -0.72439469  0.68868196
  H -0.15221225 -1.15051906  1.69389703
  C -1.52660842 -0.96370374  0.03489886
  H -2.07829249 -1.87645574 -0.03490653
  O -2.05003038  0.15169130 -0.39236399
  C -1.30759253  1.20037989 -0.17852571
  H -1.67206564  2.17486073 -0.42131743
  C -0.02451556  0.81089702  0.49324510
  H  0.23149363  1.42349438  1.35646881
