11
opt_min/./Product_1426_0_opt.xyz
  C  1.23991800  0.31982400 -0.40743500
  H  2.17130549  0.21365871 -0.92936578
  C  0.47585855  1.41910802 -0.23960427
  C -0.78382502  1.11672876  0.13995004
  H -1.51542709  1.74344878  0.61430236
  C -0.95640416 -0.37480763 -0.08356846
  H -1.13566027 -0.62348324 -1.13252961
  H -1.74203725 -0.83013308  0.51808043
  C  0.51121821 -0.82106624  0.28029873
  H  0.79029408 -1.80869809 -0.08767471
  H  0.63385849 -0.80817643  1.36442828
