7
opt_min/./Product_8866_1_opt.xyz
  N  2.24587708 -0.94490471  0.28861672
  C  1.30101505 -0.32633541  0.10215027
  C  0.11654581  0.41737724 -0.16384282
  H  0.25239787  1.23771507 -0.86112743
  C -1.19663412 -0.20718202  0.02444840
  H -1.91909983 -0.88990424 -0.35050176
  N -0.90385515  0.58858388  0.93657463
