14
opt_min/./Product_5606_0_opt.xyz
  C  1.82335800 -0.06993700  0.14914600
  C  2.62190698 -0.57417563 -0.72207101
  C  0.45642104 -0.13435903  0.73358719
  H  0.52803286 -0.41897622  1.78579648
  C -0.56826463 -0.98966247 -0.03823786
  H -0.23829928 -1.22356678 -1.04725667
  H -0.88435437 -1.90467781  0.45416866
  C -1.55988519  0.18418530  0.00470963
  H -2.36163249  0.04732955  0.72627999
  H -1.99287262  0.47187617 -0.94925146
  C -0.44013824  1.10513298  0.52063891
  H -0.66419512  1.69303119  1.40652646
  H -0.05119745  1.76383148 -0.25396630
  H  2.46617055  0.69897422  0.60686591
