14
opt_min/./Product_9499_0_opt.xyz
  C  2.29012300 -0.02493200  0.59105800
  N  1.49331130 -0.24720984 -0.68610318
  C  0.07913819 -0.22169271 -0.43633647
  N -0.60579817 -1.34820705 -0.28348939
  N -1.82654818 -0.96365280  0.11048071
  H -2.52595963 -1.65623367  0.33281015
  C -1.93454066  0.37684107  0.19809405
  H -2.84312430  0.86320538  0.48761620
  C -0.71644368  0.90781249 -0.15015426
  H -0.42895236  1.93589542 -0.19551029
  H  1.74982162  0.49778732 -1.33865165
  H  1.75434134 -1.15324019 -1.07812573
  H  1.93214188  0.93164706  1.00819806
  H  1.97024574 -0.81268331  1.29156400
