17
opt_min/./Product_11639_0_opt.xyz
  O  2.56138800  0.31956900  1.02386500
  C  2.05591485  0.09750754 -0.27771077
  C  0.55435784  0.36706029 -0.27528490
  C -0.17471127 -0.56646960  0.68931812
  C -1.67028434 -0.28830621  0.72506799
  O -2.24242434 -0.52164184 -0.59237483
  C -3.27786932  0.03955214 -1.02657861
  H -3.71482075  0.77908783 -0.30701753
  H -2.16756645 -0.97058282  1.41848180
  H -1.87930400  0.74234951  1.02828709
  H -0.01196385 -1.60068706  0.38688129
  H  0.23214274 -0.43113499  1.69012737
  H  0.38993192  1.40321194  0.02209666
  H  0.17218438  0.22671942 -1.28626439
  H  2.54538449  0.76516241 -0.99982472
  H  2.24650319 -0.93968088 -0.58595302
  H  3.51664161  0.21673924  1.01278615
