13
opt_min/./Product_8518_0_opt.xyz
  O  1.17270200 -1.67133100  0.15575200
  C  0.46919953 -0.68604907  0.12360422
  C  1.08334697  0.69766808  0.29023927
  O  2.43009354  0.61931314  0.64447902
  H  2.73317242 -0.27305583  0.40707974
  H  0.95561124  1.23607289 -0.66457489
  H  0.55042196  1.26357093  1.06335427
  C -0.98699414 -0.72987886 -0.10221857
  H -1.36621149 -1.74146221 -0.22700362
  C -1.68052211  0.42173952 -0.81523546
  H -1.81070704  0.85217420 -1.77570751
  C -1.89099976  0.34377418  0.45810830
  H -2.33039621  0.66612985  1.36883185
