17
opt_min/./Product_11366_0_opt.xyz
  C  2.73834000 -0.15891800  0.16363100
  C  1.30090380 -0.40493106  0.50430323
  C  0.28517610  0.16637398 -0.12090664
  C -1.15516123 -0.05331174  0.22992175
  C -1.94185645 -0.62815708 -0.96135915
  H -1.97319919  0.08891409 -1.77802199
  H -2.96080584 -0.86757987 -0.66821999
  H -1.45484893 -1.53265386 -1.31431739
  C -1.83189603  1.23119328  0.64651307
  O -1.34862544  2.32701007  0.63447167
  H -2.88981092  1.08744427  0.95077300
  H -1.23277403 -0.75555257  1.06650234
  H  0.45780910  0.85469267 -0.93699478
  H  1.10857068 -1.08615909  1.32301026
  H  3.37889607 -0.91857009  0.60180909
  H  3.05006500  0.81269016  0.54387897
  H  2.88485734 -0.15539227 -0.91415571
