14
opt_min/./Product_6914_0_opt.xyz
  N  2.32007400 -0.39747500  0.17705400
  C  0.83837768 -0.15277063  0.05107150
  C -0.10025755 -1.10689300 -0.15663197
  C -1.28738304 -0.25228867 -0.16375887
  N -2.63745106 -0.69486852 -0.34990849
  H -2.72362986 -1.15919014 -1.24888288
  H -2.86686528 -1.37969524  0.36405334
  C -0.97388016  1.06111090  0.03165229
  H -1.59797166  1.93380234  0.07690926
  N  0.38854350  1.16714401  0.17643973
  H  0.89792038  2.01950826  0.34218857
  H  2.86969556  0.28174524 -0.35848033
  H  2.62931171 -0.40403137  1.15631684
  H  2.42652597 -1.33702287 -0.21672547
