13
opt_min/./Product_10033_0_opt.xyz
  N -1.71672100  0.26750100  0.73166800
  C -0.71174113  0.25308423 -0.29870384
  H -1.20508441  0.56143092 -1.23301387
  C  0.44349965  1.16352436  0.02748039
  H  0.29346630  2.20192683  0.25246134
  C  1.59122828  0.49511164  0.01215968
  H  2.57416991  0.87664735  0.20703591
  C  1.33063090 -0.93345038 -0.32015987
  O  2.11041088 -1.84783451 -0.44251247
  N -0.01826236 -1.00773609 -0.48657066
  H -0.48053111 -1.85989524 -0.75910144
  H -2.45160416 -0.40171439  0.53540814
  H -1.30982938  0.04507672  1.63387907
