12
opt_min/./Product_3471_0_opt.xyz
  N  2.42606000  0.11820300 -0.00030500
  C  1.68512984 -0.88664986 -0.35697217
  C  0.28316651 -0.77826836  0.12110236
  O -0.14053047  0.52008163  0.28009521
  C -1.49767871  0.75133568  0.57671768
  H -1.60663044  1.83388373  0.64391322
  H -1.78385404  0.29861946  1.53196807
  H -2.14708817  0.36666402 -0.21580127
  N -0.37901355 -1.83317691  0.28438127
  H -1.33939674 -1.72626220  0.60265498
  H  2.08216739  0.90942828  0.55158552
  H  3.39841544  0.13748625 -0.27201329
