13
opt_min/./Product_10125_0_opt.xyz
  O  2.44745000 -1.02728700  0.37544400
  C  1.35636990 -0.28669438  0.26580498
  N  1.28763745  0.83707137 -0.31804715
  C -0.08014076  1.31055955 -0.24409736
  H -0.47220403  1.40539248 -1.26285843
  H -0.12331318  2.29274266  0.22869235
  C -0.81827618  0.22571979  0.54961025
  H -1.50577219  0.50111747  1.33362093
  C -0.84593530 -1.09609648 -0.10076859
  H -0.55301892 -1.15147324 -1.14509636
  H -1.54758403 -1.86156210  0.20270636
  N  0.17937221 -0.78458869  0.88290275
  H  3.19285565 -0.56500794 -0.03434522
