12
opt_min/./Product_280_0_opt.xyz
  C -1.31802200 -0.09713000 -0.40534400
  H -1.08955992 -0.65108854 -1.30533712
  H -2.35590719  0.17034319 -0.29388612
  C -0.56353999 -0.44878515  0.84284520
  H -1.06675282 -0.54689613  1.79584192
  O  0.54359447 -1.29220608  0.72755423
  C  1.43658771 -0.65344618 -0.07679217
  H  2.32605227 -1.20758025 -0.31840329
  C  1.08449039  0.58615617 -0.42489496
  H  1.68129223  1.27869837 -0.98297775
  C -0.26459737  0.85454775  0.11518047
  H -0.54589304  1.83423589  0.46751852
