15
opt_min/./Product_9908_0_opt.xyz
  C  1.96430100 -0.95337300 -0.14170900
  C  1.34083610  0.17216242 -0.48244065
  N  0.19522811  0.68883325  0.07783414
  C -0.75466421 -0.08369570  0.81029663
  H -1.27700097  0.50814638  1.55661784
  C -1.37663325 -1.26485575  0.22888943
  H -2.00724196 -1.70116709 -0.50553379
  N -0.51047507 -1.50922756  1.11085417
  C -0.16525902  2.06953522 -0.12195296
  H -0.14185456  2.61561047  0.82765453
  H -1.16953645  2.15441799 -0.54813674
  H  0.54250334  2.53836717 -0.80072417
  H  1.75166266  0.79484657 -1.26959412
  H  2.83632017 -1.26723565 -0.68568722
  H  1.60874567 -1.60068155  0.63786417
