13
opt_min/./Product_5535_0_opt.xyz
  O  1.87132900  1.22703100  1.41506000
  C  2.02926934  0.45217162  0.51480146
  C  1.02274369  0.04169298 -0.51680566
  C -0.28008973  0.81036379 -0.40463839
  C -1.45375040 -0.00534102 -0.79812369
  H -1.37832026 -1.04798573 -1.11610503
  H -2.36879970  0.47250925 -1.12281771
  N -1.16191901  0.16257493  0.63859026
  H -1.75211135  0.78442214  1.18058170
  H -0.89105957 -0.67638962  1.15264068
  H  0.93177446 -1.06071462 -0.43292258
  H  1.45711410  0.24040664 -1.50045792
  H  3.01281320 -0.05984571  0.37858602
