17
opt_min/./Product_9653_0_opt.xyz
  C  2.66601500  0.47227000 -0.12018100
  C  1.37695122 -0.31746110 -0.15644045
  C  0.34950761  0.14205013  0.85999311
  C -0.95593085 -0.66056240  0.81078219
  C -1.76282539 -0.32559087 -0.40402083
  C -2.97383737  0.19867360 -0.37134089
  H -3.46980644  0.41451557  0.56112345
  H -3.51779454  0.42310645 -1.27197626
  H -1.28243584 -0.53643588 -1.34898310
  H -1.53933084 -0.45368999  1.70932000
  H -0.70868784 -1.72382947  0.79162947
  H  0.79835099  0.05908067  1.85202582
  H  0.14161424  1.19964904  0.68523414
  O  1.20089913 -1.23989370 -0.90813345
  H  3.31951772  0.15325291 -0.92624942
  H  2.46511230  1.53609238 -0.20997396
  H  3.16415308  0.30491982  0.83202071
