15
opt_min/./Product_10474_0_opt.xyz
  C -0.70725400 -1.00440400 -0.62256600
  C -0.25826666  0.09952164  0.34497599
  O -0.31402646 -0.35574505  1.67538941
  H  0.52122672 -0.80471067  1.86002211
  C  1.17836874  0.55398812  0.01990280
  O  2.07109665 -0.49447654  0.34701770
  H  2.71874397 -0.60008470 -0.35355657
  H  1.23540561  0.83752700 -1.03461236
  H  1.42149751  1.43354070  0.63658822
  C -1.19375838  1.28236535  0.19668271
  C -1.12982265  2.35285766 -0.51471065
  H -2.08095196  1.15455125  0.81386663
  H  0.02205742 -1.81389446 -0.60476567
  H -0.79938020 -0.61869561 -1.63552144
  H -1.67027167 -1.39813663 -0.30024351
