12
opt_min/./Product_2293_0_opt.xyz
  O  2.04111800  0.46321700  0.03427200
  C  0.76594776  0.11302819 -0.25495377
  C -0.46261116  1.00860548 -0.05367724
  H -0.73684795  1.55942675 -0.95087914
  H -0.37491932  1.68336787  0.79257671
  C -1.28751322 -0.26644370  0.22376382
  H -2.12077958 -0.45405794 -0.44864421
  H -1.61652643 -0.33733301  1.25944743
  C -0.02989494 -1.10011782 -0.03253649
  H  0.22126666 -2.07154637  0.35760748
  O  0.46897026 -0.76136048 -1.31508497
  H  2.54633171 -0.29599000  0.35104252
