9
opt_min/./Product_9476_0_opt.xyz
  C -1.62612300  0.67926200 -0.51387100
  C -0.57058768 -0.09651739 -0.35413139
  O  0.71098591  0.40721348 -0.46867336
  C  1.73417498 -0.41889956 -0.29799156
  O  1.69594954 -1.58350981 -0.03532105
  H  2.66814629  0.16034307 -0.41015641
  H -0.62331797 -1.15393099 -0.12835860
  H -2.61450454  0.27220585 -0.42174070
  H -1.52105211  1.72525783 -0.73757326
