16
opt_min/./Product_9640_0_opt.xyz
  C -2.25565700 -0.29369800 -0.33915400
  C -1.37983518  0.49698569 -1.27403889
  H -1.92111701  1.16979098 -1.93228879
  N -0.08932296  1.07022609 -0.89663783
  H -0.24915215  0.51688311  1.13813414
  C -0.10541264 -0.05862635 -1.79178983
  O  0.39526122 -1.20623674 -1.17298720
  C  1.10587454 -0.77355551 -0.02029294
  C  0.50229212  0.59491114  0.34828982
  H  1.26754895  1.30585418  0.66157020
  H  2.17124997 -0.66483184 -0.27180313
  H  0.99884475 -1.53547959  0.75233160
  H  0.21581418  0.08489614 -2.81637050
  H -3.07501282 -0.72525123 -0.90977958
  H -1.70518489 -1.10705546  0.12668395
  H -2.67225263  0.35084200  0.43363224
