13
opt_min/./Product_9843_0_opt.xyz
  C -2.32205700  0.25541300  0.30785300
  C -1.01271070  0.12282293  0.31976267
  O -0.04353324  0.99882751  0.76655419
  C  1.00528237  0.09187889  0.41630148
  C  1.94327052  0.59236450 -0.65002692
  O  1.86630541  1.63512246 -1.22538823
  H  2.73972713 -0.14804075 -0.88104280
  H  1.57977511 -0.21851212  1.29612041
  C -0.02749131 -0.94206009 -0.09229454
  H -0.07265799 -1.87424850  0.46399459
  H  0.01227316 -1.14737878 -1.15955819
  H -2.93696879 -0.53754506 -0.07635267
  H -2.79927220  1.14608558  0.66952403
