14
opt_min/./Product_1164_0_opt.xyz
  C  2.29442600 -0.55826300  0.36552200
  O  0.89629027 -0.66292634  0.41408510
  C  0.21501903  0.40656339 -0.12859348
  C -1.10669682  0.38440049 -0.27895027
  O -1.80266605  1.44727021 -0.80270739
  H -1.26414735  2.24547683 -0.78787139
  C -1.97501402 -0.77966409  0.07156785
  H -2.54291053 -0.55903298  0.97472652
  H -2.68281706 -0.96192595 -0.73440386
  H -1.35931276 -1.65736038  0.23630848
  H  0.80825264  1.27755400 -0.38579741
  H  2.68560706 -1.42821819  0.89054575
  H  2.66156533 -0.56471886 -0.66810994
  H  2.64717264  0.35228727  0.86349200
