13
opt_min/./Product_8856_0_opt.xyz
  N  3.62071000  1.01522201  2.06818000
  C  2.86501306  0.64563922  1.28903105
  C  1.95654441  0.19050856  0.30817472
  N  0.70939481  0.26015055  0.51207073
  C -0.20471819 -0.17339875 -0.43351220
  H  0.19530698 -0.57453187 -1.37015542
  C -1.48275354 -0.78260977  0.10029593
  H -1.56944155 -0.88127824  1.16965516
  H -1.89849380 -1.60790654 -0.45606823
  C -1.51742496  0.57840755 -0.49171452
  H -1.96224974  0.72190788 -1.46264660
  H -1.60966567  1.41976176  0.17601848
  H  2.41379283 -0.20507074 -0.61239941
