14
opt_min/./Product_3795_0_opt.xyz
  C -1.73913890 -0.28067411  0.53272462
  C -0.72282320 -0.11354025 -0.58963805
  C  0.54643450  0.56565951 -0.08741258
  H  0.30692544  1.54095246  0.34122376
  C  1.74319217  0.58532777 -0.99606472
  H  2.06389268  0.94208231 -1.94598149
  O  2.46289252 -0.13246662 -0.13298730
  C  1.48381997 -0.24717798  0.77196706
  H  1.53901699 -0.74430466  1.71022623
  H -1.14574607  0.49126368 -1.39536266
  H -0.46616368 -1.08988944 -1.00466659
  H -2.63168796 -0.78145364  0.16722324
  H -1.31198328 -0.86670019  1.34289644
  H -2.02673473  0.69075183  0.93188312
