13
opt_min/./Product_7929_0_opt.xyz
  C -1.16036700  0.10513900  1.20921700
  H -0.85770087 -0.45620528  2.08632102
  H -1.39715245  1.14663892  1.44287078
  C -1.65026714 -0.63478033  0.04519473
  H -2.23772469  0.01853116 -0.62189771
  N -0.20113009 -0.05747593  0.09995116
  C  0.13506150  0.95571008 -0.79233732
  H -0.53007302  1.76674365 -1.01109438
  N  1.28175343  0.77341176 -1.34558576
  C  1.79362772 -0.38006475 -0.78683319
  H  2.75830355 -0.73826201 -1.08050968
  C  0.92015337 -0.89494970  0.10294713
  H  0.94392158 -1.77059810  0.71834111
