8
opt_min/./Product_11817_0_opt.xyz
  C -0.29298494 -0.23623099 -0.44488503
  C  0.19435100 -1.42715471 -0.11608167
  H  0.75187346 -1.57992184  0.79250956
  H  0.04818922 -2.28712919 -0.74778363
  C -0.11825489  0.90560717  0.36619564
  C  0.04257592  1.87582559  1.05604405
  H  0.16982461  2.72643031  1.65566527
  H -0.85322598 -0.07815042 -1.35677059
