14
opt_min/./Product_7133_0_opt.xyz
  N -0.67668200 -1.09105700  1.11717100
  C -0.49849210 -0.17006447  0.27966906
  O  0.67098549  0.41527911 -0.13507868
  C  1.85422643  0.15776324  0.48404496
  C  3.00754656  0.55841791 -0.02230198
  H  3.05998410  1.08313818 -0.95900805
  H  3.93018834  0.37262275  0.49271908
  H  1.80678939 -0.36888553  1.43419667
  C -1.63125959  0.44015115 -0.42428761
  C -2.88773115  0.06931520 -0.22181997
  H -3.70811378  0.52648387 -0.74768013
  H -3.11910369 -0.71028034  0.48248224
  H -1.37821508  1.22000489 -1.12770134
  H  0.15412015 -1.47845551  1.55651423
