11
opt_min/./Product_5454_0_opt.xyz
  O  1.83063200  0.69573700  0.22633800
  C  0.58014835  0.17054524  0.28446500
  N  0.31404160 -1.21333878  0.52650003
  H  1.11652462 -1.79833327  0.33612008
  C -0.25565565 -0.58217637 -0.68192985
  H -0.08280173 -0.89808918 -1.69157774
  C -1.40569660  0.25591769 -0.12178664
  H -1.83627333  0.94985041 -0.83904200
  H -2.16498157 -0.27905184  0.44323122
  O -0.48971339  0.94893494  0.76285410
  H  1.78426935  1.60692157  0.53423536
