18
opt_min/./Product_4840_0_opt.xyz
  C  3.14593300 -0.18704800 -0.09726800
  C  1.97351034 -0.73332639 -0.36606902
  C  0.75795712  0.02835397 -0.78982127
  C -0.40334534 -0.17985951  0.18819043
  C -1.65712143  0.58347146 -0.23323432
  C -2.81723311  0.34473768  0.72722498
  H -2.52705444  0.60687965  1.74118552
  H -3.67270344  0.95102183  0.45061720
  H -3.11696352 -0.69839492  0.71774950
  H -1.43267401  1.65069671 -0.26962381
  H -1.94471317  0.27000778 -1.23839111
  H -0.09191066  0.15506776  1.17866298
  H -0.63773277 -1.24342907  0.25333841
  H  0.45115436 -0.31509191 -1.78077706
  H  0.99304547  1.09039902 -0.85925313
  H  1.83766498 -1.80263308 -0.27569648
  H  3.30173171  0.87632297 -0.17638962
  H  3.99180698 -0.78099381  0.20531432
