16
opt_min/./Product_7665_0_opt.xyz
  C  2.45853200 -0.15047700 -0.86833200
  O  1.58911233 -1.21486718 -1.22607392
  N  0.25338906 -0.89110405 -1.36034935
  C -0.43327815 -0.57123082 -0.17395857
  C -0.04243979 -1.08069248  0.99162348
  H  0.84411841 -1.68198123  1.07936606
  H -0.61429329 -0.91328643  1.88493250
  C -1.67718839  0.23549530 -0.34973384
  H -1.46196219  1.22667421 -0.75292792
  H -2.17606816  0.35267497  0.60792806
  H -2.34818087 -0.26579865 -1.04564883
  O  0.00413512 -0.08457594 -2.45687663
  H  0.32483896  0.82464986 -2.31436122
  H  2.14044318  0.33188431  0.06204502
  H  3.42765398 -0.61969492 -0.72333713
  H  2.54551760  0.59642677 -1.66688489
