15
opt_min/./Product_8207_0_opt.xyz
  C  1.33176800  0.04056300  0.62807600
  O  2.20403554 -1.04016587  0.45009157
  H  2.61804921 -0.98073404 -0.42063575
  C  0.21437785  0.10426967 -0.43996508
  H  0.69112167  0.21378528 -1.41883708
  C -0.72913661  1.22871228 -0.15719560
  H -0.40504535  2.25535672 -0.13195633
  C -1.96256346  0.75375892  0.05205955
  H -2.83958823  1.32483883  0.30722992
  C -1.92985184 -0.69310700 -0.06878818
  H -2.79147810 -1.32503750  0.07831630
  C -0.68825513 -1.08953111 -0.37571261
  H -0.33316972 -2.09273216 -0.51483714
  H  0.88110073 -0.10485271  1.61245288
  H  1.88160951  0.99417265  0.62452862
