10
opt_min/./Product_7273_0_opt.xyz
  N  2.83541200 -0.02864796 -1.01503100
  C  1.92313473 -0.02647155 -0.33066844
  C  0.73268499 -0.01509273  0.50633111
  H  1.06418296 -0.03454565  1.55226794
  N -0.04102261  1.17550921  0.24282977
  C -1.17507531  0.76244282 -0.17038699
  H -1.96481674  1.43468999 -0.45170967
  C -1.20636894 -0.70080507 -0.18488616
  H -2.02900458 -1.32056783 -0.47787766
  N -0.08943590 -1.16714680  0.21892964
