12
opt_min/./Product_7612_1_opt.xyz
  C  1.48486300 -0.59009900 -0.15114100
  C  0.41525661  0.19933792  0.58675218
  H  0.54965156  0.24769382  1.66571527
  N -0.14374099  1.35683571 -0.04548485
  H -0.01385762  2.29940360 -0.32547990
  C -0.95714223  0.29917698  0.03953946
  C -2.13064849 -0.23450863 -0.20886426
  H -2.33905109 -1.24562020  0.08944380
  H -2.90716026  0.30965833 -0.71690677
  H  2.00243328  0.03801442 -0.87035474
  H  1.03736690 -1.42244745 -0.69028217
  H  2.20787360 -0.99714615  0.54890622
