16
opt_min/./Product_2224_0_opt.xyz
  C  2.54840800 -0.33670400  0.27952500
  O  1.16393748 -0.53311002  0.37969165
  C  0.41314859  0.58719268 -0.04100434
  C -1.05446305  0.27897851  0.08256854
  C -1.51240717 -0.95494481 -0.64028104
  H -1.89744752 -0.69036148 -1.62119776
  H -0.68378945 -1.64445961 -0.76827044
  H -2.30040329 -1.45226156 -0.08642240
  C -1.88283694  1.06546850  0.75359500
  H -1.53589914  1.95118224  1.25286817
  H -2.93198897  0.84242185  0.81645175
  H  0.67380644  1.47483719  0.55556106
  H  0.65115193  0.80950299 -1.09752986
  H  3.01570134 -1.25190623  0.63121536
  H  2.86017986 -0.14433813 -0.75353498
  H  2.87458917  0.50164177  0.90352095
