16
opt_min/./Product_6468_0_opt.xyz
  C  0.81490600 -0.77322100  0.37127100
  H  0.91428789 -0.28265495  1.33539645
  H  1.13036974 -1.81126069  0.45369357
  C -0.53382963 -0.54629293 -0.32144488
  C -1.59796888  0.19302490  0.49217462
  O -2.79346594  0.35553841 -0.22902141
  H -2.58897305  0.88622192 -1.00839254
  H -1.18575876  1.16490445  0.79319226
  H -1.85182307 -0.38245241  1.38494373
  H -0.98008864 -1.44562860 -0.76147457
  N  0.12385978  0.33637204 -1.29852939
  H -0.04939052  0.16994756 -2.28135915
  C  1.44852434  0.01878532 -0.79071335
  O  2.13642076  1.18346548 -0.42637808
  H  3.07881012  1.08055690 -0.58702374
  H  2.06195893 -0.59845143 -1.46335477
