12
opt_min/./Product_4523_0_opt.xyz
  O  2.18075600 -0.21002400 -0.38183100
  C  1.03149482 -0.04592252  0.39997779
  C -0.24766807 -0.30617900 -0.39859902
  H -0.14320590 -1.23407678 -0.96353015
  C -1.58147716 -0.13449644  0.34293350
  H -1.52624089  0.19382461  1.38277407
  H -2.31202918 -0.93980360  0.23882037
  O -1.87072708  0.95174761 -0.53842903
  C -0.75869910  0.87948922 -1.22902194
  H  1.11087429 -0.77385473  1.21446511
  H  0.99350047  0.96450750  0.83450485
  H  2.12520570  0.38663760 -1.13849434
