11
opt_min/./Product_9089_0_opt.xyz
  O -1.52277800  1.76723000  0.38348600
  C -0.78589006  0.84013026  0.19361509
  C -1.15253868 -0.56782653 -0.20485386
  H -1.53280228 -1.12446209  0.65832293
  H -1.96251315 -0.60417916 -0.94137682
  C  0.07295738 -1.26200828 -0.65913463
  C  1.21806514 -0.50871592 -0.10062899
  H  2.09224040 -0.51496770 -0.75916512
  H  1.53310212 -1.03473275  0.80607622
  C  0.74755928  0.88329983  0.24516134
  O  1.41815129  1.85407724  0.45941049
