19
opt_min/./Product_7444_0_opt.xyz
  C  2.72916800  0.27684700 -0.48437200
  C  1.99277236 -0.51698456  0.62078060
  C  0.60451296 -0.01518172  0.52332402
  C -0.36839708 -1.04039059  0.09795420
  C -1.77006611 -0.52895647 -0.15294879
  H -2.50092115 -1.31966417 -0.28621817
  C -1.95732190  0.71095006 -0.97952570
  H -1.06690044  1.21127840 -1.32929125
  H -2.78477235  0.75099554 -1.67385113
  C -2.24800781  0.73918002  0.48609091
  H -3.27642937  0.79219420  0.81158688
  H -1.54366506  1.25369961  1.12217147
  H  0.00878073 -1.55359669 -0.80064234
  H -0.38980860 -1.81730034  0.87636283
  H  2.39213089 -0.23106526  1.59587022
  H  2.12898683 -1.59951304  0.48376299
  H  2.01499918  0.88471212 -1.04052289
  H  3.20835415 -0.40736841 -1.17889066
  H  3.47613853  0.94376060 -0.06502582
