13
opt_min/./Product_7910_0_opt.xyz
  C  2.15324900  0.76246000 -0.04201000
  N  0.75777790  0.40108706 -0.06587778
  C  0.30757623 -0.75349515  0.44018600
  O  0.96658771 -1.61944898  0.96391503
  N -1.10122278 -0.93486352  0.32609660
  C -2.01892749 -0.10370847 -0.21792507
  O -1.80046821  0.97279542 -0.71892164
  H -3.03732381 -0.52169803 -0.15818487
  H -1.40065565 -1.81901116  0.72028391
  H  0.08640421  1.04045487 -0.47927562
  H  2.30002388  1.68064062  0.52907085
  H  2.70405793 -0.04851745  0.43291108
  H  2.52757453  0.90464770 -1.05729623
