14
opt_min/./Product_8368_0_opt.xyz
  O -0.25175800  1.54488900 -0.09438100
  C  0.75582480  0.65217292 -0.56503217
  H  1.32614169  1.04817838 -1.39925268
  C  1.48549515 -0.14031093  0.54039010
  H  1.51983229  0.35196153  1.51015552
  H  2.48278373 -0.46583054  0.24493097
  N  0.43381344 -1.17425397  0.49372290
  H  0.74392038 -2.11985457  0.31617931
  C -0.23637009 -0.51740230 -0.62463821
  H -0.49410859 -1.09315690 -1.50891794
  C -1.26542677  0.54856480 -0.12763178
  O -1.83795454  0.38584434  1.11493976
  H -2.61814992 -0.17296216  1.05615267
  H -2.01674285  0.79364151 -0.89674284
