11
opt_min/./Product_4220_0_opt.xyz
  O  2.33923400 -0.73766400 -0.21807400
  C  0.98347956 -0.59152066 -0.08326513
  C  0.00173424 -1.49814710  0.23787936
  C -1.24118374 -0.63475053  0.18825944
  H -1.95712886 -1.04190023 -0.52615495
  H -1.75947059 -0.66075402  1.14683241
  C -0.80655133  0.73547704 -0.17135301
  H -1.36597299  1.63907238 -0.31572906
  N  0.50069345  0.69111546 -0.30557166
  H  1.11725083  1.44966240 -0.56820799
  H  2.56224771 -1.59237773  0.16232535
