13
opt_min/./Product_9479_0_opt.xyz
  O -1.52826300  1.69548600  0.16589600
  C -0.55168717  0.74961524  0.40232825
  H -0.47979084  0.48672615  1.47409926
  C -0.85914564 -0.52034880 -0.42920523
  H -1.79751563 -0.96236912 -0.10091600
  H -0.98441115 -0.15781583 -1.45667088
  C  0.29422830 -1.44592517 -0.29752430
  H  0.22063787 -2.46786136  0.02037188
  O  1.49154794 -0.91508313 -0.09861440
  C  1.70145623  0.35056061 -0.04608118
  H  2.70640190  0.71914794 -0.01728555
  O  0.70082856  1.28321820 -0.01046142
  H -1.51397352  2.38053767  0.84487996
