8
opt_min/./Product_115_0_opt.xyz
  O  2.04275000 -1.11834300  0.60727900
  C  1.27476705 -0.25287369  0.43567230
  C  0.14431663  0.31556114 -0.33542577
  C -1.23120380 -0.17136424 -0.10681811
  O -2.00912316 -0.40377644 -0.98716825
  H -1.47434771 -0.33130001  0.96026101
  H  0.33848598  0.81146757 -1.27901498
  O  0.84244823  0.89414790  0.83355613
