11
opt_min/./Product_533_0_opt.xyz
  O  2.07652900 -1.00329300  0.28872600
  C  0.90409759 -0.35019747  0.07771628
  C -0.37853530 -0.64809612  0.28706110
  N -0.92726589  0.68342040 -0.26636824
  C  0.51674591  0.95582833 -0.53130738
  H  0.79510271  1.86048067  0.01127368
  H  0.69998302  1.06756608 -1.60003660
  C -1.76219395 -0.41989224  0.14580304
  H -2.34769851 -0.23080395  1.04813373
  H -2.31702946 -0.94775124 -0.64050841
  H  2.58789697 -0.55932419  0.97957164
