14
opt_min/./Product_10675_0_opt.xyz
  O  2.63827100 -0.65229700  1.20114900
  N  1.78460240  0.19935401  0.84564525
  C  0.63519294 -0.01983622  0.31260390
  C -0.11831377 -1.26096789 -0.02687827
  H  0.32909467 -1.86458220 -0.81694168
  H -0.30653124 -1.90429082  0.83216200
  C -1.30346110 -0.37328711 -0.45112865
  H -1.56781400 -0.44792105 -1.50390193
  H -2.19019133 -0.48139256  0.16886980
  C -0.48045195  0.89498937 -0.09394347
  O -0.96680368  1.66186959  0.98410811
  H -1.47471537  2.41255336  0.65878866
  H -0.25666132  1.53895146 -0.95341415
  H  2.03929951  1.19173190  1.00730762
