13
opt_min/./Product_4986_0_opt.xyz
  C -0.49937537  2.53223584 -1.95511776
  C  0.22611284  1.20914688 -1.71973878
  O -0.34767107  0.57627003 -0.57754492
  C  0.44826093 -0.18182919  0.22720823
  N  1.48334212 -0.81610255 -0.12425523
  C  2.66177392 -1.06934346 -0.37515678
  H  3.36095590 -0.23550375 -0.29782633
  H  0.05112643 -0.28142553  1.22759908
  H  1.29258136  1.40005787 -1.55372436
  H  0.12973561  0.53892556 -2.58353660
  H -0.43071217  3.14694828 -1.06091090
  H -1.54932865  2.35848640 -2.17395056
  H -0.04523160  3.06231369 -2.78767583
