18
opt_min/./Product_11577_0_opt.xyz
  C -2.48600800 -0.16805500 -0.25519900
  C -1.31689753  0.80906507 -0.17457782
  C -0.02682341  0.15442085 -0.63513007
  H -0.15041917 -0.20686029 -1.66778785
  C  1.28212127  0.93895210 -0.43637046
  H  1.84070877  1.13428511 -1.34753581
  H  1.18515179  1.85181257  0.13944254
  C  1.79622888 -0.27688847  0.35354880
  O  2.83811729 -1.00364301 -0.21609220
  H  2.59752818 -1.22455758 -1.12592024
  H  2.12080109 -0.10471961  1.38432305
  N  0.45924937 -0.87218480  0.30189144
  H  0.41861759 -1.83867801  0.00836324
  H -1.53193233  1.68243403 -0.79051464
  H -1.18261343  1.13676732  0.85566098
  H -2.59719102 -0.53150158 -1.27513947
  H -2.30070893 -1.01447583  0.39645174
  H -3.41694120  0.30974969  0.03026791
