9
opt_min/./Product_214_0_opt.xyz
  O -2.09717201 -0.30693886 -0.24048706
  C -1.10535238  0.32227030 -0.41175391
  C  0.22701185  0.10758894  0.31911466
  O  0.11637818 -0.96961392  1.20681204
  H  0.90770136 -1.04628649  1.75367809
  C  1.25275117 -0.10581398 -0.69549709
  N  2.06812622 -0.30165457 -1.47130934
  H  0.46153931  1.05613533  0.83620386
  H -1.02899429  1.16245221 -1.13357649
