13
opt_min/./Product_3437_0_opt.xyz
  N  2.10948500  0.89827700  0.41856300
  C  1.12470649  0.23226064 -0.01084184
  O  1.36530224 -0.88890502 -0.71015119
  H  2.32756785 -0.99160838 -0.77536903
  C -0.31634866  0.52277321  0.18243103
  H -0.50868661  1.52118342  0.55739163
  C -1.21852967 -0.58165080  0.68589832
  H -1.97252347 -0.31874501  1.41106627
  H -0.76601075 -1.54917967  0.83634095
  C -1.35501516 -0.09213155 -0.71375974
  H -2.20800628  0.51881606 -0.96807543
  H -1.00971778 -0.72409109 -1.51601963
  H  1.87064712  1.73212273  0.94284911
