16
opt_min/./Product_2818_0_opt.xyz
  C -2.42384800  0.47078400 -0.23453000
  C -1.35419178 -0.38537268 -0.88429332
  H -1.59074963 -0.65857567 -1.90996551
  C -0.53323692 -1.33717419 -0.05668665
  H -0.53179820 -2.24675863  0.49184553
  C  0.08736829 -0.27018206 -0.47346271
  C  1.28026654  0.58292175 -0.56015515
  C  2.46229934 -0.02206946  0.19340778
  H  2.67814437 -1.01448581 -0.19615215
  H  2.21496652 -0.12025213  1.24815168
  H  3.34629024  0.59984693  0.09081232
  H  1.04067937  1.57377278 -0.16129379
  H  1.53395031  0.72235428 -1.61716239
  H -2.83001812  1.18645461 -0.94399717
  H -2.00571885  1.01226903  0.61344967
  H -3.24387214 -0.14263932  0.13971467
