11
opt_min/./Product_58_0_opt.xyz
  C -1.59853500 -0.22049200 -0.08102000
  O -0.32829915  0.30923267 -0.36772637
  C  0.54684904  0.26645855  0.71262861
  O  1.73065736  0.97211634  0.32287922
  C  2.78015912  0.41476360 -0.09050374
  H  2.72123788 -0.70039040 -0.09202723
  H  0.79915779 -0.77749666  0.98565811
  H  0.12481602  0.78648026  1.58786299
  H -2.17276373 -0.13802712 -0.99799338
  H -1.52947060 -1.27084149  0.22360605
  H -2.09742357  0.34402409  0.71622090
