16
opt_min/./Product_4317_0_opt.xyz
  O  2.14213600  0.60454100  0.48257500
  C  2.06150209 -0.60975268 -0.31293694
  C  0.62772157 -0.66035359 -0.82340787
  C -0.17384854 -0.03940312  0.33605666
  C -1.58538972  0.35232201 -0.07357056
  H -2.08309128  0.84009179  0.76032720
  H -1.56027345  1.04726954 -0.91119234
  H -2.16325602 -0.52405491 -0.36593080
  C  0.65152571  1.16097378  0.79476527
  H  0.56518546  1.92225071 -0.00964652
  H -0.24150178 -0.77848326  1.14902543
  H  0.33176776 -1.67778028 -1.07414113
  H  0.52365437 -0.02967158 -1.70872932
  H  2.81078026 -0.53573231 -1.10458236
  H  2.27931811 -1.47786045  0.31426109
  H  2.49475822  0.41432517  1.36429885
