11
opt_min/./Product_5887_0_opt.xyz
  C  1.10919879 -0.11143610  0.08242270
  N  0.74519571  0.10536407  1.46004374
  C -0.49856022 -0.43182798  1.94970855
  H -1.15931662 -0.96032429  1.26540894
  H -0.47526855 -0.82853506  2.95633513
  C -0.28250271  1.02649478  1.79066757
  N -0.89002199  1.91875536  1.13592155
  N -1.36260883  2.92394864  0.88640236
  H  0.24895417 -0.15362111 -0.59833052
  H  1.64969886 -1.05690086  0.02439977
  H  1.77082021  0.69490228 -0.23434040
