13
opt_min/./Product_684_0_opt.xyz
  C  2.11768000  0.22388900  0.07322500
  C  0.75216700  0.06661434  0.02624680
  C -0.18724573  1.12957638  0.05201393
  H  0.02057471  2.18521469  0.11279547
  N -1.45422520  0.69088610  0.07259166
  H -2.21208190  1.25699470 -0.27892514
  C -1.47603097 -0.75087184 -0.06578377
  H -2.03899681 -1.04702721 -0.96273518
  H -2.00584115 -1.18462732  0.79808966
  C -0.03498040 -1.10564741 -0.08282968
  H  0.31580348 -2.11726198 -0.08161919
  H  2.77524302 -0.62148543  0.03140886
  H  2.55426429  1.20092479  0.15528229
