12
opt_min/./Product_3300_1_opt.xyz
  O  3.29341800 -0.30941400 -0.02553300
  C  2.12793997 -0.20349912 -0.02983635
  C  0.84981307 -0.07476355 -0.11185598
  C -0.09510117  1.10037933  0.05280810
  H -0.00894066  1.86018024 -0.72441882
  H -0.02500656  1.58413335  1.02625064
  C -1.27728680  0.12983985 -0.09604011
  H -1.97674266  0.12174259  0.73755128
  H -1.83208945  0.26865076 -1.02119516
  C -0.30350541 -1.05850574 -0.14311526
  H -0.35333688 -1.67151751 -1.04340575
  H -0.34482503 -1.71026892  0.72873247
