14
opt_min/./Product_562_0_opt.xyz
  C  0.94871700  0.93969400 -1.05064200
  H  1.30119836  0.88374608 -2.06841245
  H  0.69695281  1.93019242 -0.70599738
  C  1.70184454  0.05008436 -0.02024092
  C  2.04246014  0.55961413  1.24697517
  H  1.27414546  1.27690396  1.57837617
  H  2.38317611 -0.66919581 -0.45875257
  C  0.21622322 -0.17744701 -0.45136943
  O -0.75593802  0.07336047  0.50612090
  C -1.97215997 -0.59984908  0.29664822
  H -2.61087770 -0.34996187  1.13926999
  H -1.82740294 -1.68668668  0.26679621
  H -2.45174219 -0.27885823 -0.63498176
  H  0.05564291 -1.08968781 -1.02053806
