7
opt_min/./Product_3712_0_opt.xyz
  C -1.35616870  0.08061214 -0.03090534
  C -9.89292726 -2.19288480  0.35003039
  N  6.53317334  1.95599068  8.06504734
  O  8.13893358  3.85480528  3.86731203
  H  2.29919584 -7.57045438 -16.26260800
  H  0.53310247 -2.96719303 -0.64705528
  H -0.62600361  0.74750379  0.47178473
