10
opt_min/./Product_5708_0_opt.xyz
  O  1.05842600  0.68622500 -0.54664900
  C  1.98921264 -0.19186869 -0.15226264
  O  1.82508426 -1.19495303  0.46690814
  H  2.96527014  0.18879188 -0.50832638
  C -0.23407056  0.46718236 -0.24364432
  C -1.47529390  0.85033786 -0.30402540
  H -2.19112440  1.56230150 -0.62953958
  C -1.20219646 -0.44899226  0.42727826
  H -1.25284703 -0.47708469  1.50994085
  H -1.46061311 -1.39262190 -0.03947455
