12
opt_min/./Product_1061_0_opt.xyz
  N -1.84844200 -0.50695700  0.19019800
  C -0.53787256 -0.19525512  0.02515983
  C  0.05722877  1.17795621 -0.01938419
  H -0.18645506  1.73595289  0.88447529
  H -0.31915519  1.74898990 -0.86806016
  C  1.56627013  0.97697360 -0.12962971
  C  1.69941834 -0.36354332 -0.12657353
  H  2.58428132 -0.96843874 -0.18532290
  N  0.44200052 -1.05496649 -0.03475153
  H  0.32690626 -2.06044442 -0.00921048
  H -2.51780530  0.21744808 -0.00619197
  H -2.14931602 -1.44717278 -0.01443807
