13
opt_min/./Product_4329_0_opt.xyz
  C -0.45585400 -1.46683300 -0.07050100
  C -0.08530364 -0.00389947 -0.18956726
  C -1.17105480  0.96138770  0.23137336
  H -0.92583970  1.97578631 -0.07624683
  H -2.11444107  0.68033409 -0.23297000
  H -1.29796107  0.94345177  1.31423743
  C  1.29906074  0.40241816 -0.18530265
  O  2.38199517  0.63240876  0.51125812
  H  3.10481784  0.91729318 -0.06988872
  N  0.81091652  0.40249516 -1.34892491
  H -1.26347690 -1.70079258 -0.76243862
  H -0.79110967 -1.68025027  0.94378969
  H  0.39383004 -2.10507208 -0.30227031
