13
opt_min/./Product_7971_0_opt.xyz
  N  1.64410100 -1.29198400 -0.33235500
  C  1.00131933 -0.07803267 -0.18058670
  O  1.44889767  1.19605561 -0.34787509
  C  0.26774057  1.76870542 -0.01907484
  H  0.04057335  2.80416603 -0.03462381
  C -0.35180817  0.43651295  0.15880331
  C -1.69686327 -0.09706751 -0.20055068
  H -1.73042918 -1.06341877 -0.69429891
  H -2.44897579  0.61086705 -0.52001431
  N -1.29374055  0.00373263  1.16473073
  H -1.03389752 -0.87697844  1.59945595
  H  2.49562187 -1.36108573  0.22100827
  H  1.87360740 -1.51817163 -1.29978026
