7
opt_min/./Product_2393_0_opt.xyz
  N -1.26462194 -1.35159592 -0.00561841
  C -0.01382413 -0.87868135  0.02258417
  N  0.59722537  0.13920174  0.12134668
  N  1.52571724  0.91508928  0.36258962
  H  1.78683981  1.48486371 -0.44608853
  H -1.34921438 -2.35529079  0.04872798
  H -1.98349267 -0.84203226  0.49529000
