13
opt_min/./Product_10412_0_opt.xyz
  C  2.15851023  0.63898407  0.52582178
  C -0.70846349  7.86393224 -3.78903625
  C  0.60563246  6.37502583  5.22869970
  N -6.40615938 -0.89081934 -19.13854785
  C  1.50989936 -3.96731437 -7.97064044
  N  4.90164862  0.08871623 -2.33746492
  H -3.35352860  3.05090361  7.08281529
  O -9.59266711 -0.74026106  1.83005173
  H -10.70302919 -7.81240960 -7.49761433
  H  20.84438319  0.21390242  21.20538579
  H  1.15957558  1.16863309  1.37568135
  H  5.82064070 -2.35052880  9.37314523
  H  6.81690237  3.64443822  6.50507297
