14
opt_min/./Product_9979_0_opt.xyz
  O  2.57729200  0.73822000  0.70589300
  C  2.38508316 -0.39034710 -0.14646946
  C  1.01631633 -1.00303606 -0.16409372
  N  0.13415962 -0.25478436  0.42179867
  C -1.25939672 -0.60553223  0.49771310
  C -2.12852041  0.60432675  0.70842999
  O -1.72198783  1.71295394  0.90571724
  H -3.21079347  0.37470223  0.68153948
  H -1.56089089 -1.13661550 -0.40990659
  H -1.44956753 -1.28471222  1.34268399
  H  0.36044864  0.65373655  0.84902205
  H  3.12581886 -1.17258645  0.05563084
  H  2.56394462 -0.03662639 -1.16906032
  H  2.79721463  0.42450084  1.58746047
