14
opt_min/./Product_10672_0_opt.xyz
  O  2.48175000 -0.77077400  0.03343100
  N  1.73671491  0.44755023  0.07229761
  C  0.40149386  0.26883699 -0.32801411
  C -0.77742514  1.02792173  0.30011177
  H -1.09045592  1.91515025 -0.24654959
  H -0.60327968  1.27615469  1.34359810
  C -1.63915325 -0.23765885  0.10830632
  H -1.96343148 -0.68380345  1.04500963
  H -2.48163752 -0.14762584 -0.57577319
  C -0.41744156 -0.93430522 -0.50049202
  H -0.14561035 -1.97528929 -0.47573460
  O  0.00072954 -0.16428935 -1.60359365
  H  2.21865494  1.10402726 -0.54515355
  H  2.88389665 -0.84969371  0.91065539
