14
opt_min/./Product_2384_0_opt.xyz
  C  1.75177500  0.15970300 -0.07828500
  C  0.39982944 -0.13900633 -0.71140210
  H  0.37742652  0.23796060 -1.74134889
  O  0.03175218 -1.53278634 -0.68563047
  C -1.14596391 -1.27206494  0.08451517
  H -2.05335022 -1.56717022 -0.44910585
  H -1.14164041 -1.77479282  1.05515356
  C -0.82301679  0.19242500  0.10191230
  C -1.35895494  1.27940190  0.60862472
  H -0.90480697  2.24573936  0.47678399
  H -2.27292931  1.25145776  1.17895389
  H  1.79299428  1.20050988  0.22695204
  H  2.55206806 -0.02166056 -0.78904308
  H  1.89707135 -0.48282271  0.78326865
