10
opt_min/./Product_3935_0_opt.xyz
  O  3.30823479  1.46259870 -0.33452935
  N  2.38019496  0.76422862 -0.10861352
  C  1.49401991  0.05641270  0.10481057
  C  0.35929878 -0.79579606  0.37991110
  N -0.90062459 -0.09031622  0.12676281
  C -0.97649103  1.19341394  0.23560525
  H -2.00239330  1.53233689  0.00384483
  H -1.65927154 -0.73855011 -0.12878081
  H  0.38685132 -1.10898803  1.43340369
  H  0.40009253 -1.68925912 -0.25519185
