15
opt_min/./Product_7220_0_opt.xyz
  O  3.40572200 -0.04919900 -0.10739600
  C  2.13785614  0.52307997  0.09327196
  C  1.00737151 -0.32627093 -0.27910362
  C -0.31329421  0.32885890 -0.20416388
  C -1.39198043 -0.65286384  0.28324464
  C -2.74936584 -0.03855881  0.11363028
  O -3.51630875  0.20620633  0.99968082
  H -2.99455141  0.22419513 -0.93804429
  H -1.22958997 -0.90000888  1.33397552
  H -1.33286003 -1.56491424 -0.31254807
  H -0.54024225  0.59532082 -1.24427084
  H -0.34708339  1.25811197  0.38431886
  H  2.04793028  0.79667143  1.15913524
  H  2.09928933  1.47428086 -0.46544538
  H  3.27558240 -0.96465573 -0.38544550
