11
opt_min/./Product_8692_0_opt.xyz
  O  3.09733500  0.58199800 -0.08253500
  C  1.93585630  0.41478523 -0.02658253
  C  0.67285903  0.16010037 -0.16670403
  C -0.01278881 -1.21018776  0.00155627
  H  0.16738373 -1.86547953 -0.85757578
  H  0.30875774 -1.74047700  0.90229113
  N -1.41593542 -0.89531917  0.08648550
  C -1.55569611  0.36048709 -0.03078329
  H -2.51085031  0.85605189 -0.01448400
  N -0.40679478  1.07292647 -0.18666314
  H -0.30893309  2.06427202 -0.31332886
