9
opt_min/./Product_5533_0_opt.xyz
  C  1.57765500 -0.02390600 -0.01907800
  C  0.26728934  0.03897619 -0.01595833
  C -1.06360491 -0.57061988  0.17917525
  H -1.43261949 -0.75831812  1.18339466
  H -1.44185084 -1.25531561 -0.57676611
  N -0.82528707  0.78413319 -0.21505098
  H -1.24182101  1.65076832 -0.45585699
  H  2.17820499  0.83151200 -0.27687708
  H  2.10104417 -0.92641906  0.23412226
