14
opt_min/./Product_10305_0_opt.xyz
  C  1.95947600  0.71814900 -0.04702700
  N  0.77459830  0.21406362  0.04346632
  C -0.42421181  0.45801305  0.85027612
  H -0.34617039  1.13404833  1.69431509
  C -0.13289259 -1.02708362  0.94597222
  H -0.83242638 -1.72554886  1.38734952
  C  0.05152750 -0.90892203 -0.55553891
  H  0.60817584 -1.63761235 -1.13405555
  C -1.17916137 -0.22616609 -1.14075095
  H -1.62681551 -0.45368514 -2.08686043
  C -1.49020770  0.67446834 -0.21819499
  H -2.27357233  1.40372889 -0.17685576
  H  2.26536558  1.48271719  0.64403857
  H  2.70033277  0.22404418 -0.64934834
