16
opt_min/./Product_5315_0_opt.xyz
  C  2.18751900  0.38184400 -0.70637500
  C  0.80718479 -0.15913404 -1.05901070
  C  0.44183192 -1.41875051 -0.24236369
  C -0.94412976 -1.15344136  0.25585958
  C -1.35253198  0.07051517 -0.02579717
  C -0.31997674  0.85714262 -0.77268398
  H  0.04042599  1.68730050 -0.15913905
  H -2.30212136  0.50432608  0.23806014
  H -1.49996493 -1.89941879  0.79841162
  H  1.12515431 -1.55769224  0.60048332
  H  0.48681983 -2.32562028 -0.84908233
  H  0.79834223 -0.40976224 -2.12311031
  H -0.72938149  1.28177410 -1.69216553
  H  2.40528204  1.27712482 -1.28532486
  H  2.24020487  0.63274783  0.35097435
  H  2.95288170 -0.36095888 -0.92341801
