13
opt_min/./Product_8560_0_opt.xyz
  N -0.26715000  1.12875300  0.35059700
  C  1.10110045  0.82427888  0.23645412
  O  1.43833599 -0.36584307 -0.09125013
  C  2.62600846 -0.84752377 -0.27620450
  H  3.51094410 -0.24449903 -0.16041503
  H  2.66527452 -1.88222883 -0.54553596
  H  1.80035042  1.62993218  0.39467994
  C -1.24568878  0.25282217  0.16725180
  N -1.57699418 -0.93544734 -0.12694701
  C -2.67616663  0.05217133  0.17240484
  H -3.28320343  0.39154796 -0.65782711
  H -3.21028914 -0.05493986  1.10898968
  H -0.48684871  2.07572502  0.62160397
