9
opt_min/./Product_4391_1_opt.xyz
  O  2.18852900 -0.48401600 -0.15188300
  C  1.01949530 -0.31559619 -0.41295624
  N  0.29334632  0.85007791 -0.06932490
  H  0.73203219  1.71145083  0.21749421
  C -0.99968470  0.67922329 -0.43343928
  H -1.70954473  1.48256745 -0.43966687
  C -1.17799238 -0.68602949 -0.55327232
  C -0.00654723 -1.32568724 -0.70959797
  H  0.21547681 -2.37089803 -0.76809815
