15
opt_min/./Product_11150_0_opt.xyz
  C  1.75474800  0.18282500 -0.17433700
  C  0.66584249 -0.18891880  0.84269582
  C -0.72657477 -0.04877711  0.25269044
  C -1.01595318  1.33474061 -0.26307560
  C -0.62328015  1.84749315 -1.37852193
  H -1.58247084  1.96833175  0.40911769
  C -1.38706268 -1.18939456 -0.39063208
  H -0.88936406 -2.15035299 -0.40509017
  H -2.09996856 -1.01613847 -1.18477179
  O -1.76498617 -0.72717413  0.87851964
  H  0.78039990 -1.22297475  1.16941276
  H  0.72839200  0.43993945  1.72858814
  H  2.36612719 -0.67508489 -0.42318558
  H  2.40363804  0.96297058  0.20744953
  H  1.30249018  0.55542334 -1.09256736
