16
opt_min/./Product_484_0_opt.xyz
  C  1.40687100 -0.29515300  0.91550300
  C  0.81348737  0.20438245 -0.36758245
  C -0.64039761  0.02266650 -0.58049660
  H -0.94062557  0.33280758 -1.57587326
  C -1.44955941 -1.10485250  0.00777717
  H -0.96013342 -1.82558972  0.64179265
  H -2.22302516 -1.53180300 -0.61121721
  C -1.64334857  0.28876740  0.51286264
  H -2.55256479  0.80856434  0.25656773
  H -1.25997549  0.52947590  1.49183740
  C  1.55024101  0.83664001 -1.27079136
  H  2.60640933  0.99368461 -1.13678468
  H  1.12917199  1.21348643 -2.18753985
  H  2.49237845 -0.27074145  0.86911271
  H  1.09782602 -1.31531278  1.13096334
  H  1.08730365  0.32387909  1.75394417
