14
opt_min/./Product_9397_0_opt.xyz
  O -1.12250400 -0.96081000  1.19639500
  C -0.42502237 -0.13415227  0.29892621
  C -1.36080351  0.83863969 -0.40721109
  H -1.85192390  1.44618942  0.35115929
  H -2.11962483  0.29051605 -0.96169985
  H -0.80352654  1.48554497 -1.07921627
  O  0.50663918  0.60353913  1.09639872
  C  1.73226871  0.23668042  0.69210814
  H  2.54888901  0.68885603  1.23268783
  N  1.84581262 -0.57862493 -0.25883226
  C  0.50578636 -0.93883913 -0.66571551
  H  0.37353052 -2.01520406 -0.52147724
  H  0.33778098 -0.68454994 -1.71224223
  H -1.60446539 -1.62696275  0.69497203
