13
opt_min/./Product_8759_0_opt.xyz
  O  2.04134200  1.00834500  0.89318900
  C  1.36960820  0.78156787 -0.06868852
  C  0.81669950 -0.55047613 -0.47609453
  H  1.14439165 -0.79401362 -1.49255587
  O  1.06391757 -1.62685389  0.43157648
  C -0.18490069 -1.83666816  0.76552636
  C -0.70406851 -0.75114153 -0.18672647
  C -1.50271626  0.37958336  0.42947896
  H -1.79828496  1.11046999 -0.32059988
  H -0.92776798  0.88257294  1.20510960
  H -2.39618043 -0.04072932  0.88670134
  H -1.23380049 -1.18604851 -1.03767817
  H  1.05609813  1.57681025 -0.77589891
