16
opt_min/./Product_9645_0_opt.xyz
  C  2.61525900  0.18541200 -1.11830700
  C  1.61838114  0.28318248  0.02761734
  N  0.30861893 -0.13023507 -0.40771900
  C -0.79940485  0.01052093  0.39569678
  C -2.04805780 -0.11798685 -0.00330846
  C -3.47466039 -0.19980636  0.11024266
  H -4.06373912  0.70715929  0.17027969
  H -3.94246502 -1.09055494  0.51407298
  O -2.78924618 -0.39752034 -1.12908370
  H -0.59867862  0.23342112  1.43173586
  H  0.14467806 -0.21177954 -1.39545416
  H  1.94934568 -0.35461956  0.85819963
  H  1.58837523  1.32040434  0.39641692
  H  2.31637594  0.83880737 -1.93390075
  H  3.60008079  0.49229569 -0.77907524
  H  2.68010531 -0.83417389 -1.48520600
