13
opt_min/./Product_11617_0_opt.xyz
  C  2.26190400  0.53645900  0.92960600
  O  1.19551530 -0.29103148  1.33644081
  C  0.14039356 -0.31839143  0.51724514
  C -1.05520764 -1.06518530  0.79797866
  C -1.86235269 -0.75041029 -0.40213025
  H -2.09048214 -1.63857601 -0.99106073
  H -2.80757880 -0.30122790 -0.08719665
  N -1.08163668  0.21798322 -1.17032922
  H -1.13994498  0.32719064 -2.17251555
  N  0.11062731  0.36747981 -0.61702748
  H  3.03359563  0.43080942  1.69075628
  H  2.64697226  0.22381369 -0.04598313
  H  1.93961507  1.57954033  0.86062188
