9
opt_min/./Product_2124_0_opt.xyz
  C -1.36815514 -0.46437833 -0.18722428
  C  0.00335857  0.08711483 -0.42177196
  C  1.09016248 -0.30973128  0.16320465
  C  2.18437039 -0.69449182  0.73731009
  C  3.26568127 -1.06272446  1.29700903
  H  0.08057436  0.88424834 -1.15212133
  H -2.04558340  0.33625781  0.10784794
  H -1.74360684 -0.90957438 -1.10820648
  H -1.35263890 -1.21853807  0.59596597
