8
opt_min/./Product_4651_0_opt.xyz
  O -0.48613027  0.13565336 -0.81337635
  C -1.21952084 -0.19555238  0.33828478
  C -1.20774849  0.48790231  1.44367284
  O -1.15730635  1.05975590  2.45406273
  H -1.90170293 -1.02283030  0.20521611
  C  0.80841954  0.00908105 -0.72693048
  C  2.00059721 -0.09643551 -0.67789172
  H  3.04257645 -0.17991664 -0.67531900
