15
opt_min/./Product_11294_0_opt.xyz
  C -1.69974100  0.52889600  0.27822400
  C -0.43458070 -0.00045270 -0.40994732
  O -0.77714292 -0.70321460 -1.59639289
  H -1.18910528 -1.53863668 -1.35499632
  C  0.47520072 -0.87104739  0.50151669
  H  0.14712025 -0.90965547  1.54462021
  H  0.54117428 -1.89694916  0.13815044
  C  1.77669120 -0.14900370  0.43601297
  H  2.69895656 -0.59724372  0.77191132
  C  1.64580433  1.06804665 -0.14813335
  H  2.45202289  1.77366257 -0.25503107
  C  0.44875056  1.14114576 -0.89196548
  H -2.47895409 -0.22728122  0.25088044
  H -2.04684379  1.41363653 -0.24154202
  H -1.50041161  0.78510751  1.31634498
