16
opt_min/./Product_8598_0_opt.xyz
  C  0.09208500 -1.66711800 -0.73418800
  H  0.42964653 -2.09966528 -1.67520409
  H -0.34541911 -2.39456308 -0.05381107
  C -0.44911638 -0.25435886 -0.74903345
  C -1.54520906  0.13694660  0.16115950
  C -2.38180525  1.13207217 -0.06760269
  H -2.32534486  1.72197095 -0.96874429
  H -3.16211142  1.39639975  0.62401752
  H -1.60835599 -0.44473759  1.07251243
  H -0.45656778  0.26831415 -1.70777781
  N  0.80745577 -0.59044178 -0.19412096
  C  1.95809766 -0.11713005  0.33426780
  C  2.19241874  1.15645374  0.63867927
  H  3.12894968  1.45775064  1.06652185
  H  1.45461958  1.92367639  0.48596118
  H  2.70627104 -0.88301629  0.49486221
