15
opt_min/./Product_10630_0_opt.xyz
  O  1.37061300  1.36800400 -0.52295300
  C  1.81021328  0.46666450  0.12934804
  C  1.16092279 -0.86280836  0.37902026
  C -0.26383113 -0.95184417 -0.16556816
  C -1.22785772 -0.10784523  0.64902224
  H -1.18438649 -0.32240543  1.71681240
  C -2.51894951  0.36137373  0.05334098
  H -3.48900830  0.06770113 -0.26369969
  C -1.60707060  1.27264008  0.20169081
  H -1.25495752  2.26776703  0.09533273
  H -0.26897016 -0.60135509 -1.20043530
  H -0.59001299 -1.99614325 -0.16214379
  H  1.18182591 -1.05438164  1.45513282
  H  1.80263676 -1.61675481 -0.08882078
  H  2.80891868  0.54317083  0.61508766
