7
opt_min/./Product_130_0_opt.xyz
  O -0.51612899 -1.73871600 -0.11115304
  C -0.88543498 -0.60897865 -0.20712884
  C  0.00914546  0.62196793  0.00183204
  O -0.38239542  1.74715433 -0.10693469
  N  1.30615291  0.29336596  0.30720084
  C  2.40915555  0.01005247  0.57337677
  H -1.92595410 -0.32673096 -0.45290070
