15
opt_min/./Product_7510_0_opt.xyz
  O -0.91913200  1.14707700  0.08154300
  C -1.87359928  0.08442743 -0.07803962
  H -2.59224468  0.31634898 -0.86421013
  H -2.39836517 -0.11970579  0.85542798
  C -0.76544208 -0.90720901 -0.44997054
  H -0.60279960 -1.72567011  0.24211150
  H -0.78727621 -1.26896271 -1.47138772
  C  0.17655403  0.28838913 -0.25209039
  O  0.81668147  0.65956513 -1.43106434
  H  1.03278625  1.59853094 -1.39023178
  C  1.18659323  0.18665552  0.89833932
  O  2.13344356 -0.81562799  0.65221705
  H  2.46593820 -0.70642728 -0.24823604
  H  1.66304634  1.17098983  1.02558061
  H  0.67912472 -0.07597320  1.82661850
