13
opt_min/./Product_7870_0_opt.xyz
  N  1.48369800 -0.10713700  1.00750700
  C  0.82841630 -0.07419696 -0.20830123
  O -0.17112164 -1.04374029 -0.34283734
  C -1.36527001 -0.75239008  0.23702276
  H -2.00979333 -1.63167976  0.21914437
  O -1.44086380  0.04750284  1.34664764
  N -2.01458880  0.49445071  0.10694850
  H -1.37472868  1.19840973 -0.28246365
  C  1.12225348  0.71009211 -1.24030678
  H  1.92230865  1.42526831 -1.17619399
  H  0.59992259  0.61627358 -2.17202542
  H  0.93963896 -0.51829839  1.75757053
  H  1.94188054  0.74738344  1.29149740
