10
opt_min/./Product_2046_0_opt.xyz
  C  0.13155300 -0.54869000 -0.11465300
  C -1.23012133  0.08602395  0.07606406
  H -1.43616381  0.79573747 -0.72013061
  H -1.25863961  0.61098320  1.02531631
  H -2.00710228 -0.66893812  0.07722766
  H  0.12835115 -1.46399633 -0.69785615
  O  1.02394445 -0.53795345  0.95886411
  C  1.33719178  0.28373314 -0.12897588
  H  1.23657002  1.34372377  0.05683313
  H  2.19767420 -0.01529853 -0.71145501
