12
opt_min/./Product_2781_0_opt.xyz
  N  1.11803899 -2.77759700 -0.50039701
  C  0.53289352 -1.81585731 -0.69089686
  C -0.20529201 -0.59480336 -0.94429671
  N -0.05723337  0.33802544  0.17143462
  C -0.70485771  0.01453250  1.27586894
  H -0.62569145  0.64213730  2.13926886
  H -1.31889110 -0.86144836  1.30235605
  C  0.70210482  1.39824347 -0.03520633
  H  0.86253742  2.08963155  0.76632006
  H  1.24465612  1.50697660 -0.95009967
  H -1.26109008 -0.85181634 -1.08228614
  H  0.17230472 -0.14206835 -1.86561880
