15
opt_min/./Product_11169_0_opt.xyz
  C -1.29177900 -0.55696400  0.72291700
  H -0.58573694 -1.22478158  1.19906927
  H -2.31537271 -0.68544596  1.04909650
  C -1.09910781 -0.32127056 -0.77142500
  H -2.02856465 -0.21174059 -1.32410627
  C -0.83126336  0.78211028  0.33127205
  H -1.54873581  1.59350680  0.36370500
  C  0.57303352  1.15410942  0.49510687
  H  0.76726872  2.09517355  0.99092935
  C  1.55835350  0.38201345  0.04105916
  H  2.59059010  0.67313055  0.17938514
  C  1.29804512 -0.81489000 -0.81648183
  H  1.33233226 -1.72741094 -0.20266536
  H  2.09877658 -0.92870596 -1.55525080
  C -0.02549834 -0.91224737 -1.48062109
