10
opt_min/./Product_8996_0_opt.xyz
  C -1.32927100 -0.22767900 -0.17895700
  N -0.25180969  0.71295376  0.00807444
  C  1.01805885  0.28784722  0.16565342
  N  1.29833813 -0.94796300  0.19258575
  H  2.28475478 -1.14838176  0.31953234
  H  1.73801366  1.11584532  0.27402070
  H -0.44426217  1.69767666 -0.03574869
  H -2.21079246  0.29306238 -0.54507008
  H -1.02048591 -0.98903429 -0.89610832
  H -1.56602263 -0.73221016  0.76031607
