13
opt_min/./Product_953_0_opt.xyz
  C -1.69548500  0.58874500  0.29345800
  C -0.84037149 -0.40687612 -0.49091248
  C  0.38230823 -0.80198283  0.29826802
  C  1.55845219 -0.29129885  0.11112795
  C  2.71310951  0.24930015 -0.11687248
  H  3.42443029 -0.20490982 -0.78846596
  H  3.02360196  1.14442033  0.39841986
  H  0.23492933 -1.53245890  1.08694594
  H -0.52700432  0.03119505 -1.43860806
  H -1.42604554 -1.30326507 -0.70341683
  H -1.06563434  1.34354297  0.75934739
  H -2.25691197  0.08787344  1.07890590
  H -2.39821195  1.08675314 -0.36998213
