16
opt_min/./Product_7181_0_opt.xyz
  C -1.06177200 -1.47218900 -0.07632900
  N -0.61896170 -0.26390214  0.62370027
  H -0.41998242 -0.50156909  1.59607858
  C -1.78541697  0.75521484  0.64338903
  C -1.21657430  1.82792820  0.02870623
  H -1.72476558  2.75765831 -0.15819238
  C  0.15529099  1.61895324 -0.35861645
  H  0.77466570  2.34649821 -0.84988699
  C  0.54104875  0.38306506 -0.00064444
  C  1.82387139 -0.36065787 -0.12801027
  H  2.66058484  0.30676897  0.07080569
  H  1.87146000 -1.18748375  0.57965798
  H  1.95304769 -0.76891809 -1.13228856
  H -0.29659001 -2.24775849 -0.05204707
  H -1.97948173 -1.83574829  0.37958335
  H -1.27008483 -1.20196490 -1.10989584
