11
opt_min/./Product_2615_0_opt.xyz
  C -1.49686400  0.17357900  0.70066900
  C -0.35030230  0.89132943  0.05823275
  C  0.70774809  0.27107708 -0.39450313
  C  1.51154282 -0.89178357 -0.65698213
  H  1.29379228 -1.51726577 -1.51379815
  H  2.07645862 -1.35117449  0.14487621
  O  1.90635129  0.44865582 -0.98346179
  H -0.42377063  1.96598839 -0.01313039
  H -1.38421128 -0.90382097  0.62062974
  H -2.43684257  0.46670885  0.23961372
  H -1.54544571  0.43783294  1.75736296
