10
opt_min/./Product_2949_0_opt.xyz
  O -2.32443819  0.57835533 -0.36771512
  C -1.49585136  0.04916984  0.59648334
  C -0.30032798 -0.39261841  0.34534970
  C  0.91463779 -0.80351551  0.10377839
  C  2.04736760  0.04198890  0.12494716
  C  3.02363133  0.73988478  0.13900166
  H  3.87500748  1.35250010  0.14679922
  H  1.11923396 -1.84353654 -0.12274717
  H -1.89104672  0.04813437  1.60960809
  H -3.18323505  0.14794317 -0.33711815
