11
opt_min/./Product_8119_1_opt.xyz
  C -0.01373400  0.60984400 -0.24870300
  C  1.21487428  0.01451929  0.42656972
  H  1.13196474  0.08251845  1.50900756
  H  1.31211570 -1.03879608  0.16123861
  H  2.12247536  0.52545211  0.11126236
  C -1.28063494 -0.16612640  0.10132519
  H -1.39034920 -0.23148052  1.18272829
  H -2.16409324  0.31101084 -0.31374227
  H -1.21940828 -1.18058852 -0.29135520
  H -0.13172471  1.64995033  0.06908261
  H  0.12501845  0.60942371 -1.33203150
