14
opt_min/./Product_5379_0_opt.xyz
  C -1.56912900 -0.64672000  1.42803900
  C -0.91954514  0.13754764  0.32697443
  C  0.35985652  0.08311146  0.03290323
  C  1.70513371 -0.44023268  0.25256120
  H  2.25212811 -0.13568560  1.13331649
  H  1.91831022 -1.45871593 -0.03774758
  C  1.44193931  0.58474486 -0.82978239
  H  1.79859451  1.59170821 -0.66407679
  H  1.48378352  0.27773177 -1.86451158
  O -1.80587387  0.94136089 -0.34714307
  H -1.33994120  1.42102803 -1.03950862
  H -2.50075790 -1.07988570  1.07358512
  H -1.80217895  0.00947248  2.26287966
  H -0.90563123 -1.43162731  1.77218635
