16
opt_min/./Product_8_0_opt.xyz
  C  0.13350600  1.29217500 -0.52438700
  H -0.51049074  1.87511106 -1.18249219
  H  0.74318950  2.01734817  0.04404071
  C -0.60255621  0.33579030  0.43169564
  C -1.80242523 -0.28504945 -0.28156201
  H -2.59079461  0.45399594 -0.40863810
  H -1.50791003 -0.64901380 -1.26346236
  H -2.20476788 -1.11721102  0.29313096
  H -0.95944248  0.85580242  1.32499464
  C  0.46875441 -0.71625418  0.77506880
  H  0.03437746 -1.71583382  0.79204992
  H  0.89674059 -0.53044443  1.76038266
  C  1.52839568 -0.58551100 -0.34005216
  H  1.69513469 -1.50505659 -0.90028619
  H  2.51836278 -0.31344355  0.06146654
  C  1.23021058  0.57648282 -1.20160572
