12
opt_min/./Product_7071_0_opt.xyz
  O  3.39711559  0.55024509  0.64628806
  C  14.25643568  17.06627988 -17.34373062
  N -2.48855439  1.45627254  1.47601471
  C -6.02795088 -0.20829785  1.87461550
  C -0.42209813 -5.97677041 -8.88848810
  H  0.06177715 -5.79429877 -5.52356409
  O -1.72812134 -3.66112142 -19.95744447
  C -1.24849404  1.37588416  20.01947091
  H -6.76089375 -1.21869637  12.67845943
  H -11.96807226  1.37900314  0.91426172
  H -2.44226856 -2.02005721 -8.11215258
  H -5.67275374 -10.80015138 -5.87014658
