9
opt_min/./Product_9876_0_opt.xyz
  C -0.19949900 -0.00996483  1.03865700
  H  0.84663493  0.15763057  1.26257484
  H -0.79986196 -0.48442947  1.80628693
  C -0.61989998 -0.15452127 -0.36468580
  C  0.33516409 -0.11447708 -1.43696424
  C  1.13391834 -0.05149001 -2.32734404
  H  1.82378588  0.00540013 -3.11285204
  H -1.51842856 -0.73584831 -0.56627169
  O -0.84124625  1.02778871  0.35853061
