11
opt_min/./Product_6218_0_opt.xyz
  C -1.31855400 -0.23971900 -0.11490400
  H -1.51634907 -1.15851831 -0.67143302
  H -2.22920977  0.36036206 -0.04218523
  O -0.78937021 -0.49254441  1.19452614
  C  0.37632099  0.26263299  0.90169942
  H  0.81700069  0.87299833  1.67015348
  C  1.10994441 -0.33134243 -0.26119905
  H  1.02044904 -1.38976394 -0.45508233
  H  2.07617790  0.09878227 -0.47800568
  C -0.08117759  0.55630610 -0.50047472
  H -0.06126853  1.46289546 -1.07581960
