12
opt_min/./Product_4260_0_opt.xyz
  O -1.85010700 -0.17289700  0.40607900
  C -1.05181272  0.82510900 -0.17867997
  C  0.43826944  0.50193996 -0.15070141
  H  1.02537429  1.05586957 -0.88150058
  O  1.07654247  0.36541186  1.10379312
  C  0.95419423 -0.78507029  0.33777568
  O  2.07424355 -1.39212081 -0.15713072
  H  2.74438247 -0.72805296 -0.36638633
  H  0.25289542 -1.52712351  0.70716581
  H -1.33507696  1.00595568 -1.22177865
  H -1.22440018  1.74312832  0.39284156
  H -2.10478936 -0.81986559 -0.25981755
