9
opt_min/./Product_9541_0_opt.xyz
  C -1.06013000  1.47114600  0.43876800
  O -1.62680731  0.48239537 -0.16360832
  C -0.70344292 -0.57802486 -0.43022131
  H -0.65675732 -0.78099306 -1.50051028
  H -1.02862955 -1.48598956  0.08340918
  C  0.57329708 -0.01689287  0.13080769
  N  1.69838020 -0.54476208  0.13993106
  H  2.43163723  0.00565037  0.57026865
  O  0.22400924  1.22801584  0.63352456
