7
opt_min/./Product_4066_0_opt.xyz
  N  0.94423748 -0.37543136  0.01135248
  C  0.36346877 -3.36232584  8.09263465
  C -18.15346886 -2.38884563  4.55519144
  H -3.75348851 -7.67547272  2.40149453
  O -7.71443295 -17.16080117  34.76025678
  H  5.47862883  10.92116060 -19.84292116
  H  19.39049240 -18.64508979  57.25766602
