14
opt_min/./Product_6195_0_opt.xyz
  C -1.32104300  0.68202100  0.03293300
  H -1.00580775  1.37482778 -0.73414131
  H -2.05116022  1.07593877  0.72304030
  C -1.33200204 -0.74799899 -0.31604072
  H -2.05046222 -1.39932695  0.15922903
  H -1.04156763 -1.04122437 -1.30921666
  C -0.23993683 -0.19604026  0.62928559
  C  1.25570964  0.14793614  0.26364968
  C  1.04054784 -1.18982579 -0.19679831
  H  1.25265985 -1.91030665  0.60804503
  O  1.41667656  1.12724278 -0.70411661
  H  1.36037182  2.00012245 -0.29915672
  H  1.78909025  0.40595882  1.19402772
  H -0.37582925 -0.45349571  1.67286222
