17
opt_min/./Product_11528_0_opt.xyz
  C -2.24740200  0.25023400  0.78102800
  C -1.12082437 -0.50789813  1.35071665
  C -0.06286411 -0.90052450  0.40684060
  N -0.36019197 -0.84825437 -1.01978799
  H -1.13232388 -1.47131856 -1.23540717
  H  0.44260452 -1.14501759 -1.56814069
  C  0.95125112  0.21304572  0.77407930
  H  1.01511320  0.40534707  1.84092259
  C  2.16572581  0.41036345 -0.04267151
  H  3.07612320  0.74701506  0.43900301
  H  2.33996571 -0.22144044 -0.90729169
  N  1.08190493  1.37569019 -0.06049129
  H  0.50981760  1.30471935 -0.90030871
  H  0.40325096 -1.85279403  0.72337260
  H -2.16602324  0.55695381 -0.26408455
  H -3.10969354 -0.41284508  0.91109611
  H -2.44554494  1.10970575  1.42472827
