11
opt_min/./Product_10651_0_opt.xyz
  C  1.75150300  0.04527700 -0.14164600
  C  0.27633243 -0.00044540 -0.03855958
  C -0.71453291  0.56559251  0.66423729
  H -0.80669825  1.29075342  1.43891517
  C -1.67254277 -0.27780637 -0.13299353
  H -2.20377785 -1.05860793  0.40794345
  H -2.34211088  0.23128099 -0.82312106
  O -0.52248714 -0.81747803 -0.82292234
  H  2.19411994  0.08730216  0.85027913
  H  2.06446886  0.93087140 -0.69475395
  H  2.10892579 -0.83593592 -0.66631258
