12
opt_min/./Product_3722_0_opt.xyz
  C -2.39571459  0.29541053  0.08184099
  C -1.39271130  0.68805040 -0.70927747
  C -0.04848074  0.38774018 -0.49275503
  C  1.22898245  0.19520387 -0.54131509
  O  0.69766133 -0.37520197  0.61881394
  C  2.57193525  0.25789629 -1.09670884
  H  3.12985922  1.07747100 -0.64452269
  H  2.52234575  0.41838418 -2.16931560
  H  3.10015636 -0.66544083 -0.87293272
  H -1.56865945  1.29918614 -1.58685752
  H -3.41794836  0.54669742 -0.13695280
  H -2.20990687 -0.30762321  0.95161874
