12
opt_min/./Product_2007_0_opt.xyz
  C  1.79191476  0.02286688  0.34699318
  C  0.33384728 -0.01543266  0.09393561
  C -0.69372496 -0.79067461  0.48998978
  H -0.75169974 -1.63850300  1.14618041
  C -1.75498452 -0.06357376 -0.30932668
  H -2.54465311  0.42941835  0.25156390
  H -2.19670641 -0.63273806 -1.12567522
  C -0.56355448  0.82971377 -0.73797108
  O -0.44516459  1.79324197 -1.43497437
  H  2.13459550  1.05487470  0.38981552
  H  2.32300822 -0.47154764 -0.46678547
  H  2.03934623 -0.48228591  1.27819834
