13
opt_min/./Product_6661_0_opt.xyz
  C  1.99130400  0.71627400  0.35791600
  O  0.59461140  0.57213840  0.38357211
  C  0.12879094 -0.60466580 -0.13144901
  C -1.15766483 -0.82651911 -0.37418587
  C -2.24655336  0.17940791 -0.17230528
  H -2.57057379  0.57622339 -1.13280116
  H -3.10612832 -0.28210067  0.30419990
  H -1.89228097  1.00222452  0.43750467
  H -1.45107739 -1.79768830 -0.74246280
  H  0.87247253 -1.37327493 -0.30624058
  H  2.21071286  1.66829605  0.83390852
  H  2.49503818 -0.08506071  0.90929917
  H  2.37808275  0.72903896 -0.66795045
