13
opt_min/./Product_70_0_opt.xyz
  C  0.04793900 -1.30314400  1.03534100
  C -0.02984450 -0.17044244  0.06322401
  C  1.06966820  0.84026165  0.14137303
  H  0.92310056  1.45760129  1.02706473
  H  2.03521330  0.34839133  0.23674850
  H  1.08111197  1.48204476 -0.73422315
  C -1.05609212 -0.04631344 -0.78805413
  C -1.18353836  1.01060262 -1.70158744
  N -1.29856911  1.87023993 -2.45462903
  H -1.85573837 -0.77459754 -0.82021078
  H -0.69702613 -2.06352580  0.82394341
  H  1.03558696 -1.75864768  1.01242631
  H -0.10855154 -0.92024327  2.04327625
