11
opt_min/./Product_5453_0_opt.xyz
  O  3.48743700  0.59950600 -0.44596000
  C  2.40113872  0.24565093 -0.24572906
  N  1.25251355 -0.03908147 -0.20481937
  C  0.16937670 -0.62889212  0.48984274
  C -1.14520896 -0.23233942 -0.18321467
  O -1.48761318  1.06383163  0.24819322
  H -2.16500140  1.43003104 -0.32914652
  H -1.92702779 -0.95201054  0.10696313
  H -1.02151377 -0.27290511 -1.27295914
  H  0.27845201 -1.71960827  0.47824797
  H  0.15065080 -0.26761890  1.52395860
