13
opt_min/./Product_1198_0_opt.xyz
  C  1.78519600  0.46058200  0.25766500
  N  0.39725679  0.19197031  0.00909589
  C -0.55372764  0.83707896 -0.70187496
  O -0.54185426  1.85512168 -1.33809830
  C -1.59615468 -0.23690766 -0.34730667
  H -1.95543335 -0.79917096 -1.20279835
  H -2.43783218  0.11682273  0.23859562
  C -0.45456856 -0.89817825  0.44583484
  H -0.14158153 -1.88110867  0.08903524
  H -0.58934082 -0.92992468  1.52833508
  H  2.41235892  0.12056945 -0.57114384
  H  1.92545925  1.53574852  0.37685118
  H  2.09422080 -0.04659318  1.17033899
