13
opt_min/./Product_7936_0_opt.xyz
  C  1.43866600  0.91524800  0.30257200
  H  1.94847741  1.79188653  0.62947886
  C  1.84712712 -0.43819841 -0.25508441
  H  2.31348200 -0.45249582 -1.24134483
  H  2.39209120 -1.11246967  0.40657254
  C  0.35692700 -0.65773374 -0.27725782
  N -0.67166334 -1.33969965 -0.50356049
  C -1.78913073 -0.48801194 -0.11593380
  H -2.37016614 -1.01153213  0.65058825
  H -2.44205162 -0.35966189 -0.98549618
  C -1.16822774  0.80733663  0.37246328
  H -1.66835702  1.67555577  0.73806757
  N  0.12997297  0.63852044  0.24872075
