12
opt_min/./Product_10590_0_opt.xyz
  O  2.21816801 -0.78344297  1.38796900
  C  0.98376375 -0.75387725  1.06729637
  C  0.68253764 -0.15099235 -0.23063854
  H  1.51619566  0.22403976 -0.84268574
  C -0.51351116 -0.70482996 -0.96850569
  H -1.03953825 -1.51704301 -0.49101195
  H -0.45889612 -0.76362668 -2.04490657
  C -0.61961573  0.64228494 -0.33928649
  C -1.42407082  0.81184611  0.82244501
  N -2.10766165  0.98409778  1.72443576
  H -0.59757155  1.52017271 -0.97586238
  H  2.88448677 -0.43807617  0.73492999
