14
opt_min/./Product_4661_0_opt.xyz
  C  1.74682900  0.21521400 -1.00855200
  C  1.36838245 -0.92577185 -0.45560928
  O  2.13766705 -1.90866802  0.09365090
  H  1.56931028 -2.55565872  0.52353591
  C -0.13238150 -1.04499826 -0.34565812
  H -0.45396789 -1.30722300  0.66594834
  H -0.46670712 -1.84999974 -1.01072991
  C -0.65885792  0.31646986 -0.81719396
  H -1.27103533  0.79834654 -0.05588059
  H -1.27490580  0.19071573 -1.70697395
  C  0.58524771  1.16344454 -1.13455184
  H  0.72680423  1.95107182 -0.38769884
  H  0.52076156  1.65114028 -2.10883677
  H  2.75428880  0.53403448 -1.19528499
