9
opt_min/./Product_5102_0_opt.xyz
  O -1.48095900  1.61136100  0.16631500
  C -0.74344271  0.65798516  0.05819983
  N  0.64611231  0.70233165  0.16294474
  H  1.21978918  1.50910760  0.33832941
  N  1.13365756 -0.57257447 -0.01655519
  H  2.10586793 -0.82560251  0.00912001
  N  0.15946576 -1.41530763 -0.22600827
  C -0.96287988 -0.75768989 -0.19440957
  H -1.90511352 -1.24154557 -0.34148337
