9
opt_min/./Product_4238_0_opt.xyz
  O  1.63960600  0.57011700  0.35814800
  C  0.39323219  0.09194095  0.16311886
  C -0.05739686 -1.18360363 -0.03472246
  H  0.42011819 -2.14207300 -0.09874469
  O -1.39094377 -1.15629079 -0.18904097
  N -1.82698347  0.10919338 -0.07967616
  C -0.79109096  0.87348026  0.12410720
  H -0.89973172  1.93144429  0.23663919
  H  2.27880578 -0.14988925  0.36136697
