10
opt_min/./Product_5190_1_opt.xyz
  C  1.01911500  0.00421100 -0.71811800
  O  2.22480270  0.08828747 -0.17466227
  H  2.90317876  0.23505153 -0.85445629
  C  0.00757224 -0.26206578  0.35558048
  C -1.31558647  0.44802428  0.09554747
  H -2.06382969  0.12786446  0.81693547
  H -1.67322827  0.22399217 -0.90612796
  H -1.18996812  1.52459296  0.18146833
  H  0.38411023 -0.03850315  1.36148250
  H -0.14569523 -1.34673746  0.28698857
