14
opt_min/./Product_5069_0_opt.xyz
  C -1.48682200  0.26609600  0.11233000
  H -2.17390302  0.33916300 -0.73626383
  H -2.00056229  0.65112228  0.99615841
  C -0.14364410  0.94934020 -0.14822645
  H -0.20237286  1.65228526 -0.97722298
  H  0.22332917  1.47744748  0.72791590
  C  0.81684382 -0.23263576 -0.43380309
  N  2.08022449 -0.04594772  0.27078304
  H  2.67225425  0.61039565 -0.22732187
  H  2.56618873 -0.93225606  0.32480817
  H  0.95888455 -0.36644338 -1.52061189
  C  0.12457386 -1.48787493  0.06632198
  N -1.09088850 -1.12982835  0.32806536
  H -1.78108801 -1.78864301  0.66515332
