15
opt_min/./Product_4336_0_opt.xyz
  C -1.13322900 -1.34698300 -0.03327600
  C -0.55739608  0.03134326 -0.01259080
  C -1.43029416  1.22115083  0.25020785
  H -1.69650632  1.30663788  1.30819133
  H -2.35893978  1.13139724 -0.31402089
  H -0.91872283  2.13260450 -0.04925659
  N  0.72569983  0.19547615 -0.08666750
  C  1.83261730  0.89676119 -0.10235615
  H  2.23117987  1.86890940 -0.03924426
  C  1.95078869 -0.55016291 -0.30229837
  H  2.28367611 -1.21696765  0.49004643
  H  2.10133515 -0.96358321 -1.30045503
  H -1.31559869 -1.73748769  0.97355038
  H -2.09651631 -1.33445728 -0.54654641
  H -0.47075083 -2.03649557 -0.55257884
