13
opt_min/./Product_2030_0_opt.xyz
  O  1.55592000  1.28941700  0.01650600
  C  0.55669988  0.36990560 -0.16864169
  C -0.92520985  0.68420909 -0.38975641
  H -1.26087024  0.73615174 -1.42095551
  H -1.21950057  1.58298947  0.14853180
  C -1.26516502 -0.60945352  0.39071342
  H -1.72481849 -1.38656341 -0.21500153
  H -1.83771466 -0.44809426  1.29850410
  C  0.23064759 -0.84252518  0.62163802
  H  0.69606839 -1.24647958  1.50202374
  N  0.79061420 -0.95119294 -0.72477508
  H  1.78350150 -1.17676696 -0.69252325
  H  1.87303054  1.59911009 -0.84313340
