14
opt_min/./Product_11409_0_opt.xyz
  O  2.97366600  0.50522600  1.46067000
  C  2.19454021  0.39241402  0.60811983
  N  1.51554551  0.40978410 -0.36420317
  C  0.33525159 -0.09406458 -0.98198730
  C -0.46254191 -0.95158285 -0.04472046
  C -1.69168306 -0.69504608  0.37551136
  C -2.52494663  0.48337725 -0.02668714
  H -2.59261705  0.56318196 -1.11143006
  H -3.52822370  0.39626320  0.37826595
  H -2.08076477  1.40686501  0.34803286
  H -2.15811700 -1.38189052  1.06874352
  H  0.06074934 -1.82773972  0.31553960
  H -0.24309304  0.76711439 -1.32798114
  H  0.65366976 -0.67750509 -1.85488533
