11
opt_min/./Product_10025_1_opt.xyz
  N  2.05148600 -0.36547100  0.12040900
  C  0.71804121 -0.28832716  0.11637152
  N -0.06787756 -1.30515339  0.27528465
  C -1.37184645 -0.83655321  0.14408660
  O -2.37299900 -1.48497443  0.27014308
  C -1.29885427  0.66486620 -0.13943160
  H -2.16208667  1.27989775 -0.29133225
  C -0.00949563  0.98910974 -0.14725664
  H  0.45756820  1.93925357 -0.31328807
  H  2.61908368  0.46205793  0.15353268
  H  2.47458230 -1.24485152  0.36350164
