16
opt_min/./Product_9347_0_opt.xyz
  C  2.22356400 -0.47775100  0.52620200
  N  1.00686081 -0.53182101 -0.23826907
  C  0.23745721  0.62921207 -0.37729101
  H  0.87727231  1.49215708 -0.55738062
  C -1.08402785  0.66010589 -1.09673564
  H -1.29195477  1.33168293 -1.91082781
  C -1.85925813 -0.57848414 -0.71886233
  H -2.19850216 -1.40978094 -1.31007877
  C -1.83327619 -0.29636845  0.58322343
  H -2.14224156 -0.80881702  1.47874099
  C -1.04364394  0.96993265  0.39618865
  H -1.21878975  1.91279912  0.88079786
  H  0.46273429 -1.37829518 -0.12546864
  H  2.76375309  0.42958386  0.25217447
  H  2.05693796 -0.45722113  1.61442599
  H  2.83937890 -1.34097940  0.27492610
