14
opt_min/./Product_482_0_opt.xyz
  C  2.00352400 -0.58188800  0.33210000
  C  0.79132375 -0.13604939  0.07575662
  C -0.22636237 -0.44482143 -0.96440091
  H -0.01383931 -0.74899371 -1.97490929
  C -1.52523504 -0.75471758 -0.26254888
  H -2.33936887 -1.10243455 -0.88188062
  H -1.48765706 -1.22170869  0.71389971
  C -1.09994950  0.66583175 -0.41595881
  H -1.68281005  1.40325985 -0.94115527
  C -0.05614696  0.98196875  0.65340994
  H  0.42046394  1.95464573  0.51404193
  H -0.36483497  0.88682101  1.69383002
  H  2.44235448 -1.36058748 -0.27275867
  H  2.60844553 -0.20250053  1.13975828
