12
opt_min/./Product_7147_0_opt.xyz
  C -0.46858600 -0.05406400  0.21769300
  C  0.83403014 -0.73466970  0.24696239
  C  2.00745510  0.20796332  0.25034989
  O  1.97051121  1.40211484  0.24810422
  H  2.97676312 -0.34054770  0.28408933
  H  0.93600116 -1.39974020 -0.61942072
  H  0.90888592 -1.37478435  1.13367243
  C -1.19019919  1.02501599  0.19251899
  H -1.26279484  2.08310069  0.17860505
  C -1.95224424 -0.27826000  0.19892751
  H -2.47042249 -0.58933532  1.09935763
  H -2.44220128 -0.61531636 -0.70733863
