14
opt_min/./Product_11688_0_opt.xyz
  C -1.94186400 -0.64358500  0.24133200
  C -0.64497384  0.07112666  0.11165383
  C -0.37388691  1.35808583  0.30983808
  H -1.00271906  2.17827358  0.60211070
  O  0.95539716  1.67980349  0.15130276
  C  1.63772921  0.53482067 -0.10280693
  N  2.89288373  0.55596747 -0.10688824
  H  3.34048212 -0.33136071 -0.30048319
  C  0.63431749 -0.58063507 -0.33167333
  H  0.58794992 -0.75434855 -1.41561502
  H  0.88695138 -1.52424655  0.14641816
  H -2.45796530 -0.69372446 -0.71909424
  H -1.78009508 -1.66098380  0.59016160
  H -2.59737284 -0.12249904  0.93547664
