12
opt_min/./Product_4467_0_opt.xyz
  C -1.15887744 -1.50775790 -0.02543110
  C -0.04883135 -0.65719177  0.50370583
  C  0.29164755  0.55066131  0.04411565
  O -0.31573119  1.20382666 -0.99724926
  H -1.15434199  0.76658748 -1.19203993
  C  1.34486364  1.30203407  0.63347021
  C  2.19288886  1.98987163  1.13136684
  H  2.91824807  2.59219859  1.59141177
  H  0.50179455 -1.05094162  1.34352902
  H -2.03851971 -1.44595136  0.62178693
  H -0.85045172 -2.55142897 -0.04720332
  H -1.46253515 -1.21504446 -1.03043881
