10
opt_min/./Product_4813_0_opt.xyz
  O  2.34722400 -0.62695000  0.61133500
  C  1.18615625 -0.50445301  0.40080052
  O  0.24737546 -1.46192158  0.81838334
  C -0.98348064 -1.18035960  0.53235581
  C -1.02812435  0.14694961 -0.17093064
  H -1.62392823  0.81357798  0.45227286
  H -1.55481116  0.03025087 -1.11575882
  C  0.43117209  0.58678193 -0.31917751
  H  0.75448473  0.58954147 -1.36104170
  H  0.65088274  1.55841760  0.11316196
