17
opt_min/./Product_9552_0_opt.xyz
  C  2.51265700  0.10592700  0.66169700
  O  1.40959608  0.55659195 -0.08229199
  C  0.58921097 -0.45370464 -0.56886376
  H  1.11424469 -1.39529135 -0.72336024
  C -0.85847135 -0.54503211 -0.09848398
  C -1.32824741  0.43206687  1.00053813
  C -2.61520722  0.19345071  0.36633122
  H -2.79451232  0.97080513 -0.40253760
  H -1.17528475 -0.00385460  1.98639978
  H -0.80418878  1.38743017  0.90717549
  H -1.25770502 -1.55020958 -0.01003449
  C -0.50575080 -0.05592812 -1.48684300
  H -0.60674713  1.00583582 -1.66844929
  H -0.76013279 -0.66984687 -2.33766778
  H  3.16588320 -0.53954655  0.06142199
  H  3.07019564  1.00051629  0.94638853
  H  2.20480226 -0.42753463  1.56684794
