8
opt_min/./Product_6022_0_opt.xyz
  C  2.65486859 -1.56585949 -5.56585135
  O  2.37570554 -1.57902231 -4.31806247
  C  1.17328249 -1.63970747 -3.82780114
  C  0.87876846 -1.84703763 -2.49144503
  N  0.47233041 -1.89685071 -1.41214772
  H  0.32269841 -1.65109098 -4.50520394
  H  3.69254082 -1.51407632 -5.83266666
  H  1.88517695 -1.65839654 -6.31828002
