14
opt_min/./Product_9739_0_opt.xyz
  C -2.85835186  0.07446736  0.17471080
  C  12.14842680 -8.29365033  10.30799127
  C  20.78985393  0.97445293  12.47852799
  C -22.20932355  8.97817744 -16.06392030
  N -8.27925402  3.50851663  14.69731295
  C  8.14404152 -7.84277628 -10.49288641
  C  3.86797343 -3.54544952 -3.99320025
  H  9.88810992  19.15726244  7.10201954
  H  1.14849021  22.44917410 -1.48634045
  H -9.90513108  8.47117164  10.42939854
  H -4.05892380  19.83585489  4.78280031
  H  21.09595227  14.06394367  37.27096691
  H -6.50833579 -11.72953450  8.08057656
  H  3.67744061  17.78976399  10.27304562
