16
opt_min/./Product_11697_0_opt.xyz
  C  2.61852000  0.24119100  0.04867600
  N  1.31936658  0.07694524  0.05406650
  C  0.39785505 -0.52355137  0.80285495
  H  0.52545672 -1.13596954  1.66864746
  C -0.72968429 -0.06066547 -0.02811059
  C  0.34320948  0.60108266 -0.89469085
  H  0.31294881  1.68650706 -0.97696051
  H  0.45765890  0.16671767 -1.89349080
  C -2.04848926 -0.64861476 -0.40629101
  H -2.31615927 -1.59149109  0.04899856
  H -2.35455404 -0.56915001 -1.43959132
  C -2.00295362  0.59080654  0.44329114
  H -2.31539270  1.51807465 -0.01449821
  H -2.27896547  0.50079461  1.48317701
  H  3.20894821 -0.17751013  0.83908853
  H  3.07686080  0.78261953 -0.75268622
