11
opt_min/./Product_1619_0_opt.xyz
  N  2.07922300  0.25557900  0.12234000
  C  0.86023146 -0.14321875  0.52554255
  O  0.61440747 -0.71652129  1.56274180
  C -0.24231981  0.28346817 -0.47256806
  C -1.61541111 -0.14587363 -0.08385203
  H -1.76881665  0.04450972  0.97706789
  H -2.36530746  0.35162908 -0.69406547
  H -1.68428081 -1.22587683 -0.22823074
  O  0.05079307  0.88300447 -1.47860922
  H  2.90458966  0.04832212  0.66162422
  H  2.16553869  0.77147008 -0.74049748
