15
opt_min/./Product_7101_0_opt.xyz
  C -2.26410600 -0.95931300 -0.10504300
  C -0.99270010 -0.20182787 -0.11303961
  C -0.76559582  1.29361605 -0.15666748
  H -1.10502348  1.76857961 -1.09492110
  H -1.23591881  1.84747994  0.67879466
  O  0.65796483  1.38950114 -0.05686180
  C  1.15141995  0.09452699  0.05312835
  C  2.59175747 -0.18630340  0.22008090
  H  3.15385841  0.65806237 -0.16706726
  H  2.86344347 -1.08830513 -0.32308263
  H  2.86688514 -0.32198955  1.26987931
  O  0.19628125 -0.77500091  0.03578623
  H -2.07993332 -1.98498305 -0.41572399
  H -2.74034175 -0.98415757  0.88115187
  H -2.97059819 -0.50110592 -0.79614485
