12
opt_min/./Product_2811_0_opt.xyz
  C  1.94424000  0.29609200 -0.31612500
  C  0.97624272 -0.23409718  0.74114390
  O  1.12817728 -0.01930184  1.93256966
  C  0.10644138 -1.21411830  0.17219301
  O -1.07999023 -1.12713668 -0.21274710
  C -1.87025133  0.07412632 -0.07797660
  H -2.21823720  0.35029032 -1.07211657
  H -1.29007030  0.88085653  0.37075833
  H -2.72783393 -0.16725726  0.54663114
  H  2.78854213 -0.38490030 -0.38932436
  H  1.47336983  0.36528954 -1.29404494
  H  2.31384964  1.26740886 -0.00483833
