14
opt_min/./Product_5370_0_opt.xyz
  C  2.20210028  1.14305774  0.32839527
  C  1.42072417  0.11396594  0.39874292
  C  0.62328540 -0.90773083  0.43054242
  C -0.67179115 -0.98965696 -0.33470676
  C -1.80224157 -0.25120695  0.38627987
  O -1.49380292  1.12283382  0.45623925
  H -2.26289811  1.59906940  0.78807143
  H -1.92816305 -0.66707839  1.39801657
  H -2.73914923 -0.40567306 -0.16979049
  H -0.97125998 -2.03200052 -0.44994671
  H -0.54281506 -0.54454710 -1.32241789
  H  0.85089568 -1.74234120  1.08311923
  H  3.00524984  1.19339162 -0.38943024
  H  2.08615574  1.97650206  1.00126754
