16
opt_min/./Product_10009_0_opt.xyz
  C  2.69740400 -0.75897500 -0.68735600
  O  1.39642092 -0.63250022 -0.17862178
  C  0.78702207  0.58881500 -0.51626239
  C -0.62820399  0.60778793  0.04053975
  O -1.44768187 -0.23758604 -0.75745753
  C -2.70148588 -0.36401907 -0.35522197
  N -3.16937704  0.23019262  0.65050203
  H -4.14492047  0.03957425  0.84518060
  H -3.24035431 -1.04743985 -1.02832845
  H -0.63367901  0.24972205  1.07401225
  H -1.04063214  1.62228243  0.02024307
  H  1.35839484  1.42569536 -0.08222085
  H  0.75304341  0.71817547 -1.60855912
  H  2.70493914 -0.72035590 -1.78358300
  H  3.35660866  0.03052099 -0.30468088
  H  3.06270810 -1.72855217 -0.35700218
