12
opt_min/./Product_5215_0_opt.xyz
  C -1.68486700 -0.38380300 -0.10253000
  C -0.20977977 -0.30982081 -0.03656085
  C  0.70210941 -1.36196810 -0.01241330
  C  1.90289368 -0.65175930  0.09386258
  H  2.90398469 -1.05850632  0.13887093
  O  1.85335620  0.68060958  0.14408266
  C  0.48785752  1.02483977  0.05250251
  H  0.34522576  1.66548962 -0.82157445
  H  0.18443324  1.57553672  0.94675893
  H -2.09120922 -0.42571527  0.91068154
  H -2.11140156  0.48478072 -0.60306178
  H -1.98717998 -1.29649145 -0.61136283
