8
opt_min/./Product_3919_0_opt.xyz
  O  0.19941300 -1.22000200  0.05280300
  C  1.24466744 -0.33779071  0.01664474
  H  2.20651639 -0.81332273 -0.03202836
  C  0.88708574  0.99541311  0.05900790
  C -0.51058811  0.86167425  0.11553700
  H -1.26811890  1.62145632  0.16643104
  N -0.89537377 -0.42776921  0.12245878
  H -1.78925951 -0.89716743  0.13488673
