13
opt_min/./Product_9970_0_opt.xyz
  C -0.20469843  0.64611758  1.37290327
  C -0.65050317  0.31452084 -0.01397559
  O -1.92122754  0.77880324 -0.27405190
  H -2.24405289  0.46782883 -1.12821274
  C  0.10670858 -0.35593615 -0.89631816
  O -0.24626487 -0.67166621 -2.19744072
  H -1.12429062 -0.34002027 -2.41853107
  C  1.38801688 -0.84816666 -0.54469590
  C  2.46495756 -1.31884152 -0.29625365
  H  3.37733919 -1.77071267 -0.04707223
  H -0.42430795  1.69428988  1.57186799
  H -0.76351818  0.04891407  2.09491023
  H  0.85776150  0.45700634  1.49065897
