12
opt_min/./Product_10217_0_opt.xyz
  C -0.01112772  2.08767895 -0.62582413
  C -0.46513075  0.76896828 -0.13682884
  N  0.34848494 -0.13282440  0.17683925
  C  0.15708228 -1.40820657  0.59069681
  N -0.23080623 -2.33826117 -0.18544885
  H -0.19105730 -3.27179009  0.21076871
  C  0.57413267 -1.64456898  1.95417570
  N  0.84744695 -1.93337513  3.02831546
  H -1.54749252  0.61927101 -0.03820701
  H -0.39755196  2.86763771  0.02922728
  H -0.41674522  2.26791300 -1.61970990
  H  1.07231512  2.13353881 -0.66092099
