16
opt_min/./Product_8687_0_opt.xyz
  C -0.85792900  1.31619900 -0.17874500
  N -0.27225377 -0.01153158 -0.13465902
  C  0.96361581 -0.09392270  0.63767119
  C  2.13010444 -0.39956133 -0.31746309
  O  3.27026128 -0.48482786  0.03989532
  O  1.71810300 -0.55858871 -1.56698946
  H  1.18333597  0.83233734  1.17667622
  H  0.92219653 -0.88977439  1.38686859
  C -1.25218985 -1.01523435  0.24042638
  H -2.10248933 -0.95028491 -0.43764186
  H -0.81214109 -2.00656436  0.14638812
  H -1.61701859 -0.88192907  1.26754892
  H  0.72974114 -0.41292726 -1.52392020
  H -1.56973186  1.35757571 -1.00384061
  H -1.38382151  1.57574994  0.74914354
  H -0.07963987  2.05453355 -0.36034580
