10
opt_min/./Product_4762_0_opt.xyz
  O -1.00410900  0.16271300 -0.92186300
  C -0.28887411  0.84233859  0.09941177
  H -0.37580891  1.92097794  0.16744844
  C  1.08768179  0.12762383  0.00768467
  H  1.65135583  0.35429082 -0.89328678
  H  1.67546833  0.24630295  0.91771026
  O  0.53837274 -1.19628404 -0.05930499
  C -0.81251503 -0.88421049  0.01490639
  H -1.49739212 -1.72195845 -0.01006743
  O -0.92325566  0.03681180  1.08508657
