10
opt_min/./Product_11001_1_opt.xyz
  C -0.75417300  0.58161700  0.58707400
  O -1.61559850  1.07981779  1.24014349
  C -0.73987178 -0.37129893 -0.61391795
  H -1.31028203 -1.27502400 -0.41272606
  H -1.03266333  0.05617958 -1.56903303
  C  0.77271867 -0.50317079 -0.37385262
  H  1.39832380 -1.36439102 -0.53105500
  O  1.31358567  0.76947984 -0.50884221
  C  0.75445179  0.46539977  0.74353974
  H  1.34680101  0.55806568  1.63864568
