9
opt_min/./Product_5687_0_opt.xyz
  O -2.19827443  0.81569270  0.07137725
  C -5.88387497  0.51852264  1.99489774
  C  2.86551065  0.57698830 -0.22061365
  N -12.92153619  3.26111686  1.15002124
  C  1.48627110  5.55857406  2.88656239
  C  8.32830956  4.35185791 -17.15536828
  H  2.87050677  11.05102726 -17.93555562
  H -11.76446937  5.11360756 -7.80093251
  H -1.25762897  0.67364517 -0.07870853
