14
opt_min/./Product_9199_0_opt.xyz
  O  2.65612100  0.49783900  0.86803100
  C  2.23316629 -0.61582355  0.08360977
  C  0.79613398 -0.78328539 -0.17927552
  C -0.04304121  0.23082372  0.34972630
  C -1.37323290  0.10672320  0.21659378
  C -2.71997859  0.56415001  0.53150888
  H -3.17742615  1.38194836 -0.01229741
  H -3.09878663  0.42298733  1.53849182
  N -2.40051610 -0.60569480 -0.29188832
  H -2.61272364 -1.56186274 -0.05379206
  H  0.32347937  1.10584114  0.87987856
  H  2.59429601 -1.55395835  0.53161730
  H  2.68395712 -0.56675571 -0.92663322
  H  3.60846402  0.44393364  0.98887141
