17
opt_min/./Product_7043_0_opt.xyz
  C -1.30364200  1.09339400 -0.45341300
  C -0.76315430 -0.14711805  0.23923655
  C  0.64399705 -0.04362587  0.79042606
  C  1.69921866 -0.00508285 -0.32690243
  C  3.10234947  0.18650273 -0.01955757
  H  3.24432723  0.50937266  1.02762027
  H  1.58214596 -0.85564310 -1.00736616
  H  1.53396702  0.87669689 -0.96822061
  H  0.83426255 -0.90670887  1.43276715
  H  0.71874696  0.85479406  1.40780301
  C -1.26688827 -1.46287784 -0.16942119
  H -2.02933557 -1.53978884 -0.93552948
  H -0.64090023 -2.34317673 -0.06054288
  O -1.67748491 -0.86549698  1.03030474
  H -1.39670422  0.93733128 -1.52610372
  H -2.28769020  1.33083227 -0.05515552
  H -0.65044750  1.94471933 -0.27848576
