11
opt_min/./Product_6989_0_opt.xyz
  N  2.10934282  0.41227778  0.41007765
  C  0.86942832 -0.02004896  0.02353873
  C  0.27098082 -0.99552733 -0.72007851
  H  0.49749016 -1.84982660 -1.31266319
  N -1.01899903 -0.42178353 -0.38736853
  C -2.20020998  0.14944985  0.01959653
  H -3.21389868 -0.11525411 -0.18534883
  N -1.62746127  1.10069732  0.73563291
  N -0.38496516  0.53399004  0.34545664
  H  2.78025538 -0.32164656  0.59070577
  H  2.07523004  1.11095829  1.13949305
