14
opt_min/./Product_7353_0_opt.xyz
  O  2.63236750 -1.06504965  0.40251643
  C  1.44267011 -1.00991084  0.28667448
  C  0.68578740  0.19527360 -0.19030575
  H  1.15723544  0.60335919 -1.08876429
  N -0.75586995  0.03076023 -0.32547505
  C -1.39715231 -0.80710800 -1.09843895
  H -0.84286781 -1.42709843 -1.77267803
  H -2.46813403 -0.82946980 -1.08446960
  C -1.03204740  0.95680970  0.58809131
  H -1.98004563  1.27145654  0.96164317
  C  0.39714712  1.25614151  0.90784762
  H  0.77023621  2.25552481  0.67733767
  H  0.74468297  0.97085889  1.90453564
  H  0.78723616 -1.86246408  0.55525310
