16
opt_min/./Product_9648_0_opt.xyz
  C -2.34707600 -0.21132500 -0.32293400
  N -0.98211850 -0.27252009 -0.83408561
  H -0.76486435 -1.20084981 -1.18847323
  C -0.25465007  0.85738703 -1.49689434
  H -0.92099548  1.73628238 -1.46544948
  C  0.10028355  0.41472903 -0.12221632
  C  1.35311237 -0.38843985  0.10166197
  H  1.22876422 -1.46965909 -0.00497698
  C  2.67773492  0.17903060 -0.16036899
  H  2.72609874  1.20414269 -0.50061423
  H  3.49161690 -0.47358394 -0.44965850
  O  2.19689058 -0.00583501  1.14274976
  H -0.24425006  0.89018451  0.80050750
  H -2.52516712 -0.98926134  0.42176763
  H -3.04965024 -0.33522072 -1.14666377
  H -2.51135592  0.76214887  0.13472415
