16
opt_min/./Product_7605_0_opt.xyz
  C  2.37207800  0.30807800  0.65237100
  C  1.38421624 -0.52574955 -0.16344909
  N  0.57299865  0.35696553 -0.94256283
  C -0.67354176  0.36797601 -0.99204938
  C -1.68929192 -0.53543167 -0.30572650
  C -2.70468761  0.32697229  0.38606960
  O -2.72158004  0.55142007  1.56378950
  H -3.44458840  0.79936819 -0.29443088
  H -1.20760744 -1.18495651  0.42406688
  H -2.17276407 -1.13375335 -1.07744904
  H -1.11116758  1.12497054 -1.63397940
  H  1.93677727 -1.14573873 -0.87452068
  H  0.82273373 -1.19627236  0.50764825
  H  3.01816286  0.87412150 -0.00829002
  H  1.83431267  1.00569651  1.28794340
  H  2.97566693 -0.34268634  1.27757903
