12
opt_min/./Product_2806_0_opt.xyz
  C  1.74134400 -0.66967300  0.23935600
  C  0.76319940  0.19628096  0.00601240
  O  0.86438938  1.51330540  0.31190105
  H  0.08116461  1.96169911 -0.05118830
  C -0.54631486 -0.21101385 -0.58044518
  H -0.50919395 -1.02750760 -1.29652229
  C -1.79792255 -0.01230228  0.16536756
  H -2.64185617 -0.66491240 -0.02105590
  H -1.76183066  0.43021730  1.15480436
  O -1.43454516  0.82779158 -0.89258819
  H  1.62658690 -1.70918695  0.00271587
  H  2.66739206 -0.34322179  0.67143671
