13
opt_min/./Product_1006_0_opt.xyz
  O -0.04858000 -0.95944300  0.76202300
  C -1.17338921 -0.84566389 -0.08984587
  H -1.05713050 -1.51774985 -0.94836393
  H -2.07193133 -1.11333642  0.46581866
  C -1.13893451  0.62530708 -0.52994164
  H -1.49877013  0.78975360 -1.54381023
  H -1.69940656  1.25802907  0.16955468
  O  0.23387369  0.92670843 -0.47470499
  C  0.76586356  0.17345988  0.60469409
  N  2.11937019 -0.21087577  0.37135131
  H  2.64752943  0.60312053  0.08523769
  H  2.15337439 -0.90114834 -0.37015335
  H  0.73359858  0.77790407  1.53046932
