8
opt_min/./Product_1238_0_opt.xyz
  N -1.27357194  0.72412520  0.13359776
  C -0.99320978 -0.50412029 -0.00158436
  N  0.27529800 -0.97600538  0.02436068
  N  1.26544792 -0.28434290  0.20356921
  C  2.30413003  0.20637099  0.37302194
  H  3.25954647  0.60381160  0.51063702
  H -1.69943262 -1.33065575 -0.15750201
  H -2.26426018  0.93654370  0.09114779
