15
opt_min/./Product_11472_0_opt.xyz
  C  1.37454459 -0.80414410 -0.66689674
  N  0.84720983  0.21602994  0.22577834
  H  1.34733255  1.10107039  0.10525790
  C  0.23556398 -0.16682029  1.52738732
  H  0.49892325  0.59572325  2.27597249
  C -0.61696685  0.39586958  0.43585328
  C -1.58584443 -0.47804508 -0.32975865
  H -1.78076389 -0.08813416 -1.32846336
  H -2.52337654 -0.51528208  0.21984873
  H -1.20225642 -1.49132606 -0.40490968
  C -0.96738680  1.78182423  0.42090943
  N -1.23589516  2.89641790  0.48661686
  H  1.08121767 -1.77692169 -0.27291732
  H  2.46075147 -0.74758335 -0.67969905
  H  0.99271459 -0.68471575 -1.68145599
