10
opt_min/./Product_8631_0_opt.xyz
  N -2.38590600 -0.06716800  0.09589100
  C -1.13998717  0.05909074  0.11460083
  C -0.37247389  1.28217609 -0.04328038
  H -0.83783291  2.24446686 -0.11367171
  C  0.94003092  0.97121590 -0.24341985
  C  0.97700777 -0.42527837 -0.00659151
  O  2.01677320 -1.21911525  0.08730534
  H  2.83537002 -0.69861488  0.05878973
  O -0.21665790 -1.01564063  0.00886482
  H -2.74048346 -1.01049358 -0.03893812
