8
opt_min/./Product_1042_0_opt.xyz
  C  0.54245784 -3.01987815  2.40448427
  N  1.54514532 -3.53104519  2.84608887
  H  1.65377483 -4.49310055  3.10511749
  N -0.40120847 -2.30692873  2.16367030
  C -1.01223036 -1.78712351  1.05952148
  N -1.93785872 -0.93121548  1.17704039
  N -2.91039385 -0.34738136  1.17744515
  H -0.62178941 -1.94559482  0.06193864
