10
opt_min/./Product_5722_0_opt.xyz
  C -1.26061200 -0.38776300  0.35441000
  C -0.27470529  0.70714667  0.23041173
  C  1.03722736  0.43515994 -0.01744987
  C  1.49162449 -0.80629981 -0.43294608
  H  2.49666717 -1.06827595 -0.08937975
  H  1.73675783  1.27207832  0.04152080
  H -0.60021173  1.71356654  0.45598955
  H -1.34016920 -0.73083741  1.38825798
  H -0.89721218 -1.23031675 -0.23922484
  H -2.25079765 -0.06780700  0.03726252
