10
opt_min/./Product_801_0_opt.xyz
  O  2.15877900  1.04253000 -0.07950200
  C  1.12252519  0.42600752 -0.03710684
  C  0.87360481 -1.04827014  0.02352700
  H  1.63375386 -1.80717968  0.03924350
  N -0.35950471 -1.34125009  0.05818430
  C -1.11897878 -0.12891721  0.02171631
  H -1.75003479 -0.07186463  0.91604464
  H -1.76583329 -0.14569518 -0.86188034
  N -0.14188612  0.92815097 -0.03517998
  H -0.33832970  1.91110015 -0.06276460
