10
opt_min/./Product_7764_0_opt.xyz
  O -2.98100627 -0.87411121  0.45324034
  C  6.30450989 -5.41448580  10.42885782
  N -0.64107140 -13.61188943 -6.35833674
  C  0.10517254 -6.53739136 -0.43991806
  N -6.81389994 -9.33558516 -7.72219624
  C -11.16368840  4.56595077 -5.76620787
  N -4.91003981 -3.69454459 -10.86481797
  H -5.66946681  2.02954011  11.70730251
  H -18.41187250 -14.80056195  22.64374645
  H -8.28473650 -8.90490434 -0.42175059
