16
opt_min/./Product_10306_0_opt.xyz
  C -2.18254900 -0.24905400 -1.05288800
  N -0.76522866 -0.02772356 -0.92955543
  C -0.08075282 -0.72559559  0.13171149
  H -0.62212639 -1.43598153  0.74454361
  C  1.39440917 -0.95303345 -0.15070284
  H  1.87628672 -1.51928252  0.64954068
  H  1.53789771 -1.49367512 -1.08745497
  C  1.93701493  0.44406599 -0.24883249
  H  2.97296307  0.63161408 -0.47917573
  C  1.01540249  1.37253376 -0.02502899
  H  1.17224249  2.43590308 -0.02388619
  C -0.30668778  0.74958405  0.21293014
  H -1.03247498  1.21674137  0.86627132
  H -2.61535346  0.57523672 -1.61924066
  H -2.70518092 -0.33221369 -0.08876049
  H -2.33944308 -1.17574098 -1.60706851
