10
opt_min/./Product_4303_0_opt.xyz
  O  2.41041200  0.49052200 -0.04128800
  C  1.11677862  0.23743172 -0.05479075
  N  0.59915919 -0.93606868  0.00847490
  C -0.82086034 -0.73385414 -0.02342611
  H -1.29278279 -1.15728073  0.86456992
  H -1.26529452 -1.21539393 -0.89672816
  C -0.93167671  0.76215314 -0.10477436
  H -1.83712818  1.33697250 -0.14974022
  N  0.22111238  1.31105390 -0.12526427
  H  2.89844951 -0.34307251 -0.04038628
