13
opt_min/./Product_6166_0_opt.xyz
  C -2.31980911  0.65426993  0.35971278
  C -8.42484774  56.67675640  30.33219110
  C -25.43083925 -13.61968446  7.19807758
  C  0.31401682  24.51620591  9.54957751
  C -10.10077706  27.48337488  13.61307873
  N -12.45351565 -0.83953118  6.26039537
  H -1.97009355  13.67790232  49.24454826
  H  4.08252953  23.43272063  10.29333249
  H -13.26173638 -19.33752597 -23.42843265
  H -14.47192214 -6.10765817 -7.23501131
  H  7.63642643  6.87611786  5.92767969
  H -4.43648870 -6.74198676 -0.66809357
  H -4.25095849  9.50387915  14.87094856
