15
opt_min/./Product_11194_0_opt.xyz
  C -1.82025400  0.65733100  0.21390300
  C -0.65597713  0.00196901 -0.51401818
  H -1.00171271 -0.56721306 -1.38776768
  O  0.36898888  0.91627434 -0.89404720
  C  1.37784941  0.23170784 -0.11579104
  C  2.15508773  0.85021508  0.90638150
  H  1.99494709  1.93816499  0.94418280
  H  2.13019128 -0.24471338 -0.76776372
  C  0.31564228 -0.81159098  0.36472515
  O  0.50824582 -2.14106518  0.07600069
  H  0.68389509 -2.25842406 -0.86811420
  H  0.12541951 -0.75753228  1.43922941
  H -1.47690094  1.59148037  0.65482179
  H -2.63412488  0.87442329 -0.47300269
  H -2.18670499  0.00700430  1.00588129
