17
opt_min/./Product_9570_0_opt.xyz
  C -1.75531500  1.09670700  0.50721700
  C -1.11481504  0.06907967 -0.02568573
  C -1.56322680 -1.34597581  0.18401677
  H -2.63685945 -1.39982273  0.35784448
  H -1.06424016 -1.77436249  1.05553405
  H -1.31432210 -1.96554948 -0.67626735
  C  0.14990732  0.24096246 -0.82425618
  C  1.34759711 -0.29472017 -0.05054890
  H  1.39610273 -1.37999889 -0.00475331
  C  1.88531182  0.49837788  1.11213744
  H  1.69862305  0.80485708  2.11100573
  C  2.60967325  0.50062030  0.03174421
  H  3.46764840  0.81073149 -0.51381498
  H  0.05555746 -0.30197710 -1.77065439
  H  0.30663883  1.29849685 -1.04368491
  H -1.42041969  2.11194223  0.37418459
  H -2.64910446  0.95995513  1.09424738
