11
opt_min/./Product_4218_0_opt.xyz
  O  1.17263416  0.83969561  0.96597335
  C  1.22557975 -0.27175445  0.19222548
  C -0.08072189 -0.92195294  0.01682686
  C -1.19084545 -0.24484608 -0.05100450
  C -2.27518012  0.45062411 -0.13291575
  H -2.87315085  0.66522896  0.73759808
  H -2.62803443  0.83627273 -1.07514801
  H -0.06032567 -1.99169889 -0.11991385
  N  2.24028444 -0.76112669 -0.36392403
  H  3.11382279 -0.26134288 -0.21312246
  H  2.04038070  1.26169785  1.02322211
