12
opt_min/./Product_6058_0_opt.xyz
  C -1.68823700 -0.89984900  0.29600200
  H -2.10767531 -1.79261431  0.69166921
  C -1.83314704  0.34002202 -0.07320209
  H -2.44485790  1.19950078 -0.19881810
  C -0.44719913 -0.23112684 -0.21304947
  C  0.64161381  0.20061210  0.72495008
  H  0.27348089  0.44863487  1.71972495
  C  1.85461411  0.91257058  0.19115255
  H  2.26648157  1.80204481 -0.21991362
  C  2.04688857 -0.31558949  0.57651769
  H  2.68537059 -1.15453457  0.70961771
  H -0.07572227 -0.46456110 -1.21103639
