14
opt_min/./Product_11407_0_opt.xyz
  O -2.28923200 -0.50816300  0.73860100
  C -1.39349936 -0.35770275 -0.06760855
  C -0.54368917 -1.24602221 -0.84343219
  H -0.91408430 -2.26343988 -0.88294044
  H -0.23165383 -0.88987273 -1.82720903
  C  0.45451476 -1.00000117  0.25730655
  H  0.73196491 -1.81314806  0.90160655
  C  1.10169912  0.23315968  0.29562586
  H  2.09086309  0.32536078  0.72012397
  C  0.46971865  1.30966769 -0.24402044
  H  0.84565468  2.30712555 -0.37038455
  N -0.98082425  1.13973537 -0.33513635
  H -1.47016526  1.67314289  0.39282319
  H -1.34886038  1.42552595 -1.24598913
