13
opt_min/./Product_109_0_opt.xyz
  C -1.17806100  0.50384100  0.45348900
  H -2.15277726  0.95447062  0.33015344
  H -0.66334025  0.83905385  1.34323785
  C -1.08385278 -0.93911442  0.04850799
  H -1.99889195 -1.47940735 -0.14892259
  C -0.36285880  0.28207995 -0.77797421
  H -0.68275772  0.55880833 -1.76784083
  C  1.03717350 -0.17243694 -0.45774892
  N  1.74047790  0.41511166  0.65509941
  H  1.89922763 -0.26805498  1.38477275
  H  1.24599001  1.20074750  1.05815519
  H  1.71162463 -0.21969897 -1.31793288
  C  0.14659020 -1.40856439 -0.45452020
