14
opt_min/./Product_4423_0_opt.xyz
  C -1.16335200 -0.36250200  0.68646200
  C -0.39690463  0.13867439 -0.54921032
  O -1.12191094  1.18566198 -1.14601447
  H -0.73467685  2.02909335 -0.89299285
  C  1.01031788  0.57685441 -0.17644283
  C  1.88536807 -0.16230601  0.47678189
  H  2.88215878  0.19286518  0.67497728
  H  1.65755053 -1.14775140  0.84985063
  H  1.29614942  1.55051002 -0.55452106
  O -0.33107134 -0.85263727 -1.54848233
  H -0.17808735 -1.71092435 -1.14146395
  H -2.12405097 -0.75175269  0.36888425
  H -0.59964560 -1.13109905  1.20830709
  H -1.32205158  0.46540734  1.36978429
