9
opt_min/./Product_8835_0_opt.xyz
  C -1.34744000 -0.05429800  0.08526100
  C  0.08155960  0.13138605 -0.13236207
  C  1.19005182  0.77247394 -0.21338195
  H  1.86525883  1.58710029 -0.19921857
  N  1.29839772 -0.71424599 -0.29255710
  H  1.59893073 -1.12957747  0.60262209
  H -1.87820568  0.88032115 -0.08333702
  H -1.72843409 -0.82058805 -0.58863415
  H -1.52487724 -0.38378689  1.11075411
