14
opt_min/./Product_5798_0_opt.xyz
  C  2.69973200  0.26068200  0.31153200
  C  1.50579915  0.22650861 -0.59295442
  O  0.42377029  0.03446558  0.12705471
  C -0.79477637 -0.02268129 -0.56263438
  H -0.67703892  0.10172768 -1.63522131
  C -1.99875809  0.52946583  0.13851946
  H -2.73586606  1.04021655 -0.46070981
  H -1.84670996  0.94986415  1.12018196
  C -1.83537370 -0.95285840 -0.01604008
  H -1.57200051 -1.51856137  0.86412199
  H -2.45981806 -1.48093468 -0.71929702
  H  2.48013691  0.01519428  1.35503254
  H  3.09914903  1.27509887  0.25673075
  H  3.46384787 -0.40298772 -0.08526459
