14
opt_min/./Product_551_0_opt.xyz
  C -0.72011419 -1.44764773  0.79850216
  C -2.74664447 -9.44067693  12.95418633
  C -8.92302801  4.44636556  12.14284913
  C  0.43335750 -1.76610487  7.85776251
  H -3.92258813 -4.05380851 -2.84818732
  H  2.19244408 -9.00396452  2.43686969
  C  8.41743489  0.07799491 -5.84313116
  O  10.89107442 -5.08435305  0.18178404
  H  15.77200739 -9.02956627 -1.91786377
  H  0.05455695  4.10243512  3.45598573
  H -5.41682870  9.16702982 -7.04130827
  H  7.29084003  2.40370134  8.31007370
  H -18.69912049 -6.12828618 -10.98462748
  H -3.60634684 -0.68934524  14.01219716
