13
opt_min/./Product_1547_0_opt.xyz
  N  0.61302500 -0.86300400  1.31397800
  C  0.79732442 -0.12094873  0.31896153
  C  2.18249520  0.13616755 -0.18117146
  H  2.44144369  1.17748374 -0.00248947
  H  2.88013899 -0.50945069  0.33924387
  H  2.21990770 -0.04410981 -1.25232714
  O -0.12218505  0.54136118 -0.43013805
  C -1.49208293  0.43256639 -0.10219489
  C -2.36451144  0.65566094 -1.23039952
  H -3.39512939  0.78432250 -0.86750982
  H -1.69619080  0.99452996  0.82820449
  H -1.73849085 -0.63283808  0.12010559
  H -0.34237023 -1.00025696  1.62918862
