10
opt_min/./Product_2391_0_opt.xyz
  N -1.79418900  0.91304400 -0.61523100
  C -1.03536540 -0.14367012 -0.39783135
  N -0.90078006 -1.36966936 -0.16851764
  C  0.37126721 -0.55465955 -0.25895322
  N  0.99364451 -0.24997584  0.94072917
  N  2.23268656 -0.07033654  0.88225390
  H  2.58205920  0.14875393  1.82613437
  H  0.98809130 -0.69422075 -1.15104524
  H -1.38190615  1.80843496 -0.81497114
  H -2.79103067  0.80532685 -0.71207600
