12
opt_min/./Product_7464_0_opt.xyz
  N -1.78029600 -0.14326000  0.01977000
  C -0.39798747 -0.03779799  0.25721779
  C  0.76188636 -0.83105648 -0.22597693
  H  0.76303583 -1.70861903 -0.85593585
  N  1.80940851  0.11076024 -0.31346990
  H  2.75487818 -0.12712894 -0.55726527
  C  1.45481372  1.35008064  0.09251133
  N  0.14083804  1.27009711  0.38177631
  H -0.40560054  2.05162414  0.69755172
  O  0.22592508 -0.98571143  1.08337507
  H -2.13839294 -1.03827721  0.32876406
  H -2.02191236  0.01901168 -0.95125519
