17
opt_min/./Product_11157_0_opt.xyz
  C  1.59552600  0.90903200 -0.16030900
  H  2.53664090  1.38908378  0.04709384
  C  0.44381945  1.52798715 -0.37328225
  H  0.30545469  2.59557200 -0.36013966
  C -0.67010322  0.56640675 -0.62367827
  H -1.20235347  0.77958086 -1.55298558
  C -0.01375276 -0.82522347 -0.47837051
  H -0.19775456 -1.52496367 -1.29281202
  C  1.48585360 -0.58483249 -0.24796680
  H  2.08346067 -0.97092532 -1.07828110
  H  1.83291453 -1.06927515  0.66716559
  C -0.87188676 -1.08337013  0.77916676
  H -1.51798084 -1.95358640  0.71900530
  H -0.27260802 -1.13780062  1.68655443
  C -1.58249443  0.26815464  0.58570854
  H -2.62739929  0.15575090  0.30006795
  H -1.49820691  0.96622667  1.41244561
