16
opt_min/./Product_4018_0_opt.xyz
  C  2.65160500  0.13336700 -0.63734600
  C  1.38494757  0.85682741 -0.94713697
  O  0.20607444  0.44758232 -0.59328805
  C -0.13078543 -0.58724324  0.09948647
  C -1.57544458 -0.79549207  0.44463016
  C -2.47150525  0.29133834 -0.13566916
  H -2.45303187  0.25571681 -1.22296931
  H -3.49676040  0.15858507  0.20156184
  H -2.12519779  1.27322926  0.17883904
  H -1.68931094 -0.82364345  1.53536645
  H -1.89426934 -1.77536829  0.06883454
  H  0.60923675 -1.28034139  0.47397948
  H  1.37424272  1.71790222 -1.59296160
  H  2.75967161 -0.78221024 -1.22984304
  H  2.67588367 -0.15423327  0.41680070
  H  3.50284793  0.77410490 -0.84757182
