10
opt_min/./Product_26_1_opt.xyz
  O -0.90497800  1.24910600 -0.58391500
  C -0.29516566  0.10260682 -0.15026892
  C -0.97687232 -1.03121206 -0.10328122
  H -2.01387217 -1.07374592 -0.38086097
  H -0.51129189 -1.95136182  0.19535807
  C  1.15458597  0.23516355  0.20749096
  H  1.28231943  0.94687849  1.02522589
  H  1.71559570  0.59304751 -0.65631780
  H  1.55952742 -0.72275384  0.51856731
  H -0.39816504  2.01485469 -0.29202454
