12
opt_min/./Product_2111_0_opt.xyz
  O  2.04496400  1.36902300  0.01982400
  C  1.01561712  0.75950667 -0.04479470
  N -0.22774449  1.11577055 -0.28307418
  H -0.46552597  2.05186394 -0.56819031
  C -1.17608085 -0.00347813 -0.37612667
  H -1.37172533 -0.20985110 -1.43857611
  H -2.12362648  0.26279496  0.09632412
  C -0.49448561 -1.16762918  0.32577630
  H -0.67795601 -1.02793353  1.41108816
  N  0.96845653 -0.75411961  0.16749499
  H  1.38349839 -1.21236089 -0.64918859
  H  1.52125102 -1.02708715  0.98162108
