11
opt_min/./Product_2680_0_opt.xyz
  O  1.08850200 -0.99315400 -0.41265300
  C  2.30025260 -1.22751232 -0.15436933
  H  2.74261407 -0.49411945  0.57259145
  C  0.33952403  0.04863995  0.17912253
  H  0.98067939  0.76283942  0.69358072
  C -0.93541928  0.48946936 -0.46244511
  H -1.24824095  0.02537034 -1.38312980
  H -1.16110964  1.54478609 -0.43602426
  C -0.97492084 -0.32255163  0.79953848
  H -1.27430707 -1.35378290  0.68186675
  H -1.29013454  0.10131131  1.73800367
