15
opt_min/./Product_10856_0_opt.xyz
  C  1.88857100 -0.10591900  0.24150900
  C  0.41195100 -0.15143399  0.03849243
  C -0.49121033  0.80411549  0.23872835
  O -0.27784876  2.05897432  0.71776655
  H -1.10619900  2.54954367  0.71855679
  C -1.86566742  0.29684078 -0.10653634
  H -2.37610857  0.92244324 -0.85224805
  H -2.50488242  0.23102642  0.79326463
  O -1.65495159 -0.98300795 -0.66006027
  C -0.30375945 -1.37803008 -0.45127649
  H -0.25904888 -2.19103322  0.28892527
  H  0.10013186 -1.75603642 -1.39800042
  H  2.29202778 -1.11268630  0.30721408
  H  2.12507730  0.43978936  1.15244864
  H  2.37189904  0.40579986 -0.58946117
