9
opt_min/./Product_6699_0_opt.xyz
  O  1.44201600  0.58563100  0.62603100
  C  2.60636351  0.20901168  0.24224044
  H  2.58044362 -0.47148450 -0.63590116
  C  0.28576991  0.18543045  0.06594595
  N -0.87335375  0.73460277  0.24759447
  C -1.68411759 -0.04550470 -0.51147305
  H -2.73767333  0.11831115 -0.60511739
  N -1.05911107 -1.01399164 -1.10779338
  O  0.23890112 -0.87777810 -0.74783254
