16
opt_min/./Product_6875_0_opt.xyz
  C  1.96633500  0.63134500 -1.19047400
  N  0.75773809 -0.13681852 -1.19281171
  C -0.07110130  0.02662633 -0.24806025
  H  0.10640932  0.69901870  0.59956985
  C -1.33784931 -0.66923456 -0.23250858
  C -2.39124896 -0.22926412  0.47330083
  O -2.28274488  0.87308461  1.26847710
  H -3.11122945  1.01854185  1.74012886
  C -3.72588651 -0.90751381  0.46778288
  H -3.72501131 -1.75432309 -0.21030296
  H -4.50273013 -0.20819612  0.15298418
  H -3.97687141 -1.26106477  1.46940867
  H -1.45433910 -1.51930481 -0.88380701
  H  1.78948659  1.58012833 -1.70429451
  H  2.33643221  0.85501546 -0.18247801
  H  2.72462850  0.08232803 -1.74880436
