17
opt_min/./Product_10085_0_opt.xyz
  C -3.19836900  0.25403500  0.88086900
  C -1.86463365  0.60608291  0.24126613
  O -0.89996697 -0.32258671  0.68855306
  C  0.35081278 -0.18415018  0.13992472
  C  1.36915357 -0.89802851  0.60399535
  O  2.65445542 -0.90584286  0.13837926
  C  2.97574918  0.00719338 -0.88007188
  H  4.03514153 -0.13484414 -1.09248051
  H  2.80325232  1.03989745 -0.55570053
  H  2.39576240 -0.18204357 -1.78993500
  H  1.24447657 -1.59168093  1.41976290
  H  0.43530566  0.51856024 -0.67827477
  H -1.56370031  1.62701310  0.52194550
  H -1.94873679  0.56191132 -0.85540435
  H -4.01332950  0.68189254  0.30242350
  H -3.24636298  0.62842675  1.90026379
  H -3.30434138 -0.82849145  0.90085641
