15
opt_min/./Product_11673_0_opt.xyz
  O  1.56552700 -1.55707400  0.17253100
  C  0.75922864 -0.56057931 -0.41192026
  H  0.80601756 -0.65295576 -1.50629805
  C  0.94531461  0.85819823  0.14571444
  H  1.86073474  1.23680527  0.57197985
  C -0.11626787  1.73362380 -0.43180123
  H -0.03822269  2.78968045 -0.21275833
  H -0.53133441  1.51158220 -1.40723570
  C -0.44849635  0.83730395  0.73405520
  H -0.81861068  1.20333032  1.67529939
  C -0.63607817 -0.54161634  0.20099428
  C -1.60229429 -1.43034377  0.28956817
  H -2.50240539 -1.22398734  0.85200249
  H -1.52088891 -2.40467939 -0.16141681
  H  2.48098975 -1.25842243  0.18185045
