15
opt_min/./Product_10621_0_opt.xyz
  O -1.20331800  1.84175900 -0.92113800
  C -0.48467773  0.76579168 -0.53336993
  C -1.08665567 -0.60536406 -0.51677647
  H -1.99138178 -0.54436587  0.10334325
  H -1.38730114 -0.96552979 -1.50605705
  C -0.05526925 -1.46793572  0.22670740
  H -0.53004803 -2.11246508  0.96702499
  H  0.48318896 -2.11213239 -0.47710116
  C  0.91087045 -0.47522565  0.88338435
  C  1.91552774 -0.05266977 -0.05499767
  H  2.02010048 -0.50139391 -1.04438271
  H  2.80809007  0.45770367  0.27763082
  C  0.66060773  0.89263224  0.24133350
  H  0.95342768  1.87466350  0.57684696
  H -2.08771490  1.57742730 -1.20493943
