15
opt_min/./Product_11007_0_opt.xyz
  C  2.46600900  0.22958800 -0.28015500
  C  1.15976382 -0.33116914  0.19075609
  C -0.00476929 -0.09561231 -0.39357532
  C -1.31629222 -0.64339335  0.06885970
  C -2.28161630  0.47973775  0.45590846
  H -3.22049820  0.07046442  0.81733320
  H -1.84259590  1.09061526  1.23854835
  H -2.48914066  1.11514942 -0.39822925
  H -1.76753579 -1.23390249 -0.73252323
  H -1.15544202 -1.30302007  0.92325035
  H -0.04519223  0.55403838 -1.26019975
  H  1.18723058 -0.97739271  1.05633004
  H  2.38586371  1.30160016 -0.43720493
  H  2.75921263 -0.22160061 -1.22707998
  H  3.25527968  0.04748171  0.44312973
