17
opt_min/./Product_9527_0_opt.xyz
  C -2.00687400 -0.84642000  0.83271500
  C -1.54258071  0.03808072 -0.02816731
  C -0.10415112  0.38273598 -0.28656261
  C  0.05516102  1.90824500 -0.30477893
  H -0.41347435  2.34277614  0.57547888
  H -0.39515115  2.34623107 -1.19021269
  H  1.10738955  2.18393688 -0.28368311
  C  0.84965255 -0.24110388  0.71113775
  H  0.60920778  0.01247896  1.73836842
  C  2.26519574 -0.55429091  0.32391131
  H  3.21465866 -0.13020707  0.11131409
  C  1.47861673 -1.58161343  0.44589884
  H  1.35242091 -2.63422656  0.38634051
  H  0.13905369 -0.00008819 -1.28690998
  H -2.23625751  0.60030855 -0.64050943
  H -1.36008265 -1.44363090  1.45606093
  H -3.06172585 -1.02308032  0.94516943
