11
opt_min/./Product_3998_0_opt.xyz
  N -0.81135100 -0.93696000  0.40141300
  H -1.52480818 -1.51660110  0.81838062
  C  0.41654780 -1.41233178  0.37535258
  N  1.31582565 -0.51245567 -0.15322421
  H  2.28401750 -0.79562304 -0.19296911
  C  1.01956328  0.82739179 -0.22068010
  H  1.85347888  1.51463366 -0.28392167
  N -0.14565489  1.31163711 -0.13717177
  C -1.24026539  0.38177905 -0.07226387
  H -1.69107704  0.29050271 -1.07285461
  H -1.99821756  0.79886879  0.60485249
