12
opt_min/./Product_537_0_opt.xyz
  C -2.03041100  0.01157600  0.84153100
  H -2.52520069  0.01911321  1.78156319
  C -1.97984083  0.41011962 -0.40327810
  H -2.40232534  0.97832182 -1.19674903
  C -0.83137149 -0.40488763  0.06603593
  O  0.38996771  0.24519698  0.36488122
  C  1.53307917 -0.35531650 -0.19529702
  O  2.66077532  0.26384828  0.28732085
  H  2.59574081  1.21232448  0.11820867
  H  1.60680930 -1.41340448  0.09920993
  H  1.46362515 -0.29745048 -1.30375293
  H -0.68454943 -1.43485667 -0.25166797
