12
opt_min/./Product_3209_0_opt.xyz
  C  1.54632800 -0.19210600  0.10563600
  C  0.16291059 -0.05208404 -0.51925708
  H  0.26598339  0.25564792 -1.56669018
  C -0.68311332 -1.28440946 -0.48056711
  C -1.82208685 -0.81057239  0.21003425
  H -2.70273655 -1.36883623  0.46842966
  N -1.77490507  0.46648773  0.56512179
  N -0.65535465  0.96671643  0.15830567
  H -0.34579664  1.87986946  0.44932364
  H  2.06318433  0.76561382  0.11051054
  H  2.12320506 -0.91182823 -0.46537544
  H  1.45496139 -0.55463977  1.12665438
