14
opt_min/./Product_7383_0_opt.xyz
  C -1.46938300 -0.72910600  0.41962700
  H -1.22503577 -0.68558831  1.47571048
  H -2.47627937 -1.06323205  0.21898225
  C -0.91596779  0.36166707 -0.48163925
  H -1.56953663  0.74035118 -1.25484847
  C  0.06614890  1.37130125  0.08010395
  H  0.01614141  1.37963207  1.17579905
  H -0.11929731  2.37648906 -0.30025421
  O  1.41560927  1.08860939 -0.31773987
  C  1.78372840 -0.19866695 -0.22784703
  H  2.84566696 -0.35823782 -0.31325934
  N  0.91166790 -1.18338802 -0.17945359
  H  1.23871573 -2.13260432 -0.04950408
  C -0.40867713 -1.03680133 -0.58091098
