12
opt_min/./Product_2800_0_opt.xyz
  C -1.82281800  0.45390300  0.24122800
  C -0.59375638 -0.36791184 -0.03645742
  O -0.54576290 -1.26514416 -0.82966029
  C  0.61596388  0.05006531  0.79871122
  O  1.68263148 -0.91448949  0.69774949
  C  2.62035725 -0.86686698 -0.13110203
  H  2.60108682  0.02332049 -0.80613348
  H  0.33816497  0.10712052  1.85447927
  H  0.96812638  1.02826343  0.43716676
  H -2.25938802  0.09959464  1.17475153
  H -1.57384994  1.50586149  0.35232485
  H -2.55516450  0.32443453 -0.55073080
