15
opt_min/./Product_11842_0_opt.xyz
  C  2.28309500  0.69558500 -0.31664300
  C  1.00331633 -0.01354398 -0.04927841
  C  0.72807973 -1.31635033  0.23409047
  C -0.68057928 -1.40647723  0.38220272
  C -1.16847585 -0.15221605  0.17567335
  O -0.14907383  0.69818788 -0.08657186
  C -2.55435983  0.39031203  0.18141259
  H -3.15714630 -0.12360564  0.92561579
  H -3.02494872  0.25686774 -0.79336464
  H -2.52858607  1.45373896  0.40689729
  H -1.24618230 -2.28619511  0.61125727
  H  1.43509074 -2.11470463  0.33251373
  H  2.39036124  1.55106351  0.34862366
  H  2.30925244  1.06348086 -1.34238486
  H  3.11627651  0.01649098 -0.16332627
