11
opt_min/./Product_9518_0_opt.xyz
  C  1.52360400 -0.51003200  0.08439300
  H  2.25874875 -1.28984727  0.19405818
  C  1.69198362  0.78848805  0.34148596
  C  0.76466471  1.68799184  0.45118434
  C -0.51017973  1.73632976  0.35961254
  C -1.40694286  0.84054318 -0.03260799
  H -2.25486730  1.02724929 -0.66043112
  C -0.90978005 -0.57946418  0.21297893
  H -1.62427218 -1.29035268 -0.21131662
  H -0.77658844 -0.77507585  1.27855681
  O  0.32603688 -0.91253200 -0.47624409
