13
opt_min/./Product_6715_1_opt.xyz
  O  1.65694900  1.17974800  0.78491800
  C  1.65050821  0.15548682  0.17072705
  C  0.40283957 -0.45309647 -0.44882064
  H  0.61283904 -1.42209776 -0.90592205
  O -0.16236169  0.46954636 -1.39533871
  C -1.28977121  0.70005797 -0.55616682
  H -1.66632203  1.70577831 -0.47502155
  C -2.04849638 -0.57359820 -0.38079890
  H -2.01293631 -1.31829659 -1.16197442
  H -2.98630574 -0.50929606  0.15140007
  C -0.82357464 -0.31262429  0.44436714
  H -0.79740892 -0.28772617  1.51785625
  H  2.58312970 -0.42101932 -0.00562365
