16
opt_min/./Product_486_0_opt.xyz
  C  2.64883800 -0.31003000 -0.82050900
  C  1.42834602  0.34692858 -0.34090088
  C  0.79762933  1.13100182  0.48640065
  H  0.77945454  1.78050356  1.32699937
  C -0.04625582  0.49299729 -0.58293912
  C -1.01070899 -0.63344868 -0.26685624
  C -2.43785246 -0.11528574 -0.11417730
  H -3.12644804 -0.92744416  0.11094604
  H -2.76217762  0.37233120 -1.03103764
  H -2.48556106  0.60535129  0.70030990
  H -0.98133125 -1.38396988 -1.06167767
  H -0.70126455 -1.11925767  0.66327142
  H -0.38228859  1.10533480 -1.42039035
  H  2.44118416 -0.99934455 -1.63520062
  H  3.13913662 -0.84768087 -0.00720898
  H  3.35945350  0.44108556 -1.17691144
