12
opt_min/./Product_5629_0_opt.xyz
  C  1.23068200  0.57484800 -0.48692000
  H  0.63367436  1.15532641 -1.18248558
  H  2.19461691  1.03516638 -0.29209645
  C  0.44357996  0.04717396  0.67810123
  H  0.78494519  0.06469611  1.70024335
  C -0.96240271 -0.25861762  0.24699060
  O -1.55375409  0.52263820 -0.73184235
  H -1.81880814  1.37378008 -0.36153901
  H -1.64586568 -0.55854654  1.04506316
  C  0.03511505 -1.33227709 -0.11482578
  H -0.15684083 -2.33648883  0.23469036
  C  1.31259481 -0.92080373 -0.56511156
