15
opt_min/./Product_7100_0_opt.xyz
  C  1.90770200  0.71266500 -0.17798600
  C  1.14305032 -0.55368151  0.20337402
  H  1.80651504 -1.42533547  0.16438052
  C  0.51723469 -0.46030307  1.56207630
  O -0.73041657 -0.58984332  1.41958662
  C -1.13876029 -0.76934803  0.01584215
  C -2.07257500  0.37517067 -0.37836970
  H -2.27197534  0.98516903  0.50251314
  H -3.01749331  0.01088490 -0.76473046
  H -1.58936358  0.99187081 -1.13049934
  H -1.65693487 -1.73906050 -0.00264294
  O  0.04023537 -0.81228344 -0.69692497
  H  1.19288904  1.48558307 -0.46088198
  H  2.55424968  0.53651330 -1.03036064
  H  2.47453121  1.06511206  0.67651092
