12
opt_min/./Product_8058_0_opt.xyz
  N  0.73281607  2.57681198  1.30257400
  C  0.78357353  1.63584957  0.65285427
  C  0.78595078  0.42161847 -0.14065829
  H  1.74122971  0.38390829 -0.70080680
  C  0.57902632 -0.82970750  0.71094050
  H  0.70712017 -0.80662592  1.78106117
  N -0.56546024 -1.39042325  0.23075448
  H -0.98315415 -2.20463602  0.65638402
  C -1.10666649 -0.74765069 -0.78241861
  H -1.84771680 -1.13921377 -1.44938724
  N -0.31499585  0.35815693 -1.12033321
  H -0.82958258  1.21836504 -1.27896120
