13
opt_min/./Product_10136_0_opt.xyz
  O  3.40604300 -1.00513300  0.55422600
  C  2.46379890 -0.35877577  0.35948879
  N  1.63637015  0.45232242  0.09749533
  C  0.24917565  0.74158567  0.09121195
  C -0.60058007 -0.47274793 -0.30587233
  C -2.04364544 -0.09217671 -0.39658234
  N -2.88355562 -0.62918306  0.35997374
  H -3.84800121 -0.32383906  0.24731265
  H -2.26573908  0.67383364 -1.15256182
  H -0.26412739 -0.83274856 -1.28202045
  H -0.48841519 -1.26581185  0.43402300
  H -0.04515359  1.09310354  1.08739699
  H  0.10459179  1.55851252 -0.62363365
