14
opt_min/./Product_6927_0_opt.xyz
  N  1.81908800 -0.67124500  0.38119800
  C  0.68169397  0.05108706 -0.01781366
  C -0.24666672  0.95221375  0.79837312
  H -0.30504535  1.45597126  1.73694551
  C -0.78683634 -0.24780420  0.15447430
  N -1.58602727 -1.34954884  0.49151053
  H -1.62347928 -2.01911141 -0.27083565
  H -2.53441392 -1.06436415  0.71735347
  C -0.79261506  1.06286765 -0.62303904
  H -1.63983472  1.61160022 -0.99121489
  N  0.47627034  0.76309723 -1.30842598
  H  1.07829163  1.58170549 -1.41353579
  H  2.60792857 -0.45328807 -0.21365000
  H  1.65389149 -1.67095325  0.36002275
