15
opt_min/./Product_10861_0_opt.xyz
  C -1.31350100 -1.22656100  0.56626800
  C -0.63546091  0.07288544  0.23509325
  C -1.23186476  1.24294035  0.41169461
  H -2.24299436  1.29361886  0.77122567
  H -0.75533968  2.18082648  0.19166765
  C  0.75801456 -0.07687823 -0.30028625
  O  1.37527449 -1.26914610  0.02907614
  H  1.41365710 -1.83388504 -0.74932987
  C  1.64155351  1.06971684 -0.57615737
  H  1.32239884  2.08842981 -0.41379383
  H  2.70646741  0.89562521 -0.50496445
  O  0.98970969  0.37631848 -1.60605516
  H -0.84869313 -1.66664479  1.44403517
  H -1.21656183 -1.93275812 -0.25169300
  H -2.36525801 -1.06174374  0.76787343
