10
opt_min/./Product_5496_0_opt.xyz
  C -1.18596100  0.22027200  0.20651200
  C -0.20880883 -0.81683828  0.64919638
  O  1.05985135 -0.74300643  0.43411277
  C  1.72197922  0.18472722 -0.17806393
  H  2.78526525  0.05249635 -0.22052830
  H  1.26040868  1.05564134 -0.60989770
  H -0.52742552 -1.70782660  1.15795666
  H -1.23130270  0.28805041 -0.88414892
  H -0.89764100  1.20606308  0.58092983
  H -2.17467482 -0.01850666  0.57885844
