14
opt_min/./Product_8253_0_opt.xyz
  C -1.13291700  1.21019600  0.17585300
  C -0.22177305  0.00646129  0.05356756
  C  1.16211742  0.27854971 -0.39218740
  C  2.20145644 -0.50777196 -0.16471626
  H  3.18636644 -0.27091561 -0.52652449
  H  2.11138167 -1.42508780  0.39436695
  H  1.27407147  1.19410894 -0.95708312
  N -0.42122234 -1.08559095  1.01358357
  H -0.24543755 -1.35944938  1.95828131
  C -0.82205684 -1.35263843 -0.20022340
  O -1.31383921 -2.13190234 -0.94833225
  H -2.11257306  0.91230457  0.54288857
  H -1.25950302  1.67507863 -0.79978798
  H -0.70849383  1.94706416  0.85811131
