17
opt_min/./Product_7086_0_opt.xyz
  C -1.97850100 -0.17658500  0.40152900
  C -0.86657007 -0.28604235 -0.64082720
  O -1.41879528 -0.03638413 -1.92933308
  H -1.33395582 -0.81328946 -2.48293300
  C  0.26460205  0.72864239 -0.39683688
  C  1.00692350  0.48771484  0.87675303
  C  2.26641616  0.07355216  0.92990704
  O  3.00533602 -0.20933862 -0.18613763
  H  3.93081269 -0.31069590  0.04712030
  H  2.76574174 -0.07632908  1.88007873
  H  0.48719035  0.65758399  1.80516049
  H -0.17886356  1.72565810 -0.38541513
  H  0.96214374  0.65962025 -1.22776828
  H -0.43508360 -1.29353645 -0.59869408
  H -2.36440968  0.83661784  0.42413395
  H -2.79673795 -0.84126415  0.13400844
  H -1.61694242 -0.44956710  1.38653561
