17
opt_min/./Product_6902_0_opt.xyz
  C  2.67962000  0.21637600  0.55419300
  C  1.46459722  0.32084806  0.04346755
  C  0.46017497 -0.74975002  0.06146007
  H  0.79401510 -1.62612422  0.60300324
  C -1.01946463 -0.46113202  0.10296918
  C -1.58373009  0.94815159  0.15094490
  O -2.99127326  0.93568265  0.12912840
  H -3.28407124  0.51343361 -0.68557719
  H -1.31447260  1.44890663  1.08161962
  H -1.18521460  1.53763670 -0.68623252
  H -1.61148406 -1.13217364  0.71088077
  C -0.40332113 -1.01270950 -1.14679975
  H -0.28641236 -0.34980169 -1.98854592
  H -0.62647626 -2.03059959 -1.42573281
  H  1.15666271  1.24057937 -0.43696255
  H  3.38479964  1.02747180  0.51352655
  H  3.01637902 -0.68360428  1.04088833
