14
opt_min/./Product_7747_0_opt.xyz
  C -0.68982327  1.27796559  0.65786542
  C -0.59573156 -0.07041739 -0.01955959
  C  0.73899348 -0.73084925  0.02749845
  C  1.87616684 -0.10059493  0.07113420
  N  2.93164935  0.47304126 -0.08090300
  H  3.56887383  0.66567037  0.67987184
  H  0.76361653 -1.80244555 -0.10137779
  O -1.28424774 -0.19649537 -1.24528689
  C -1.79089388 -0.91110268 -0.15307122
  H -2.74174224 -0.55996269  0.23382637
  H -1.69231777 -1.99015752 -0.21010992
  H -1.68851816  1.68942306  0.53639744
  H -0.46591916  1.17974437  1.71827363
  H  0.02611184  1.96364702  0.20870481
