14
opt_min/./Product_11373_0_opt.xyz
  C -0.54645899 -1.22382900 -0.49163500
  C -0.11527325  0.12304970  0.11087601
  C  1.40111692  0.15725659  0.34825177
  H  1.93017299 -0.03221513 -0.58589767
  H  1.68305313 -0.60795057  1.07218708
  H  1.70363240  1.12879945  0.73665699
  C -0.46033833  1.21567379 -0.89211060
  O -1.23613887  2.10783888 -0.73324629
  H  0.10120273  1.07547410 -1.83700204
  C -0.79783818  0.30821910  1.37463752
  N -1.32181367  0.40862524  2.38468356
  H -1.62727716 -1.25220029 -0.62758080
  H -0.06531705 -1.37573293 -1.45826846
  H -0.25846656 -2.03778440  0.17437082
