13
opt_min/./Product_9678_0_opt.xyz
  C  2.26992100 -0.23729500  0.20851200
  C  0.96434571  0.03886456  0.12429186
  N  0.34514438  1.26338756  0.28809643
  H  0.83724388  2.13195620  0.36862588
  C -1.02639259  1.13444653  0.05519258
  H -1.68387554  1.97641382  0.09705645
  C -1.27287750 -0.15580483 -0.20781750
  O -2.44136972 -0.77592245 -0.50779695
  H -2.40887664 -1.69132385 -0.20871563
  N -0.07353340 -0.85840113 -0.11478164
  H  0.08152152 -1.78464900 -0.47158921
  H  2.64377813 -1.23254997  0.07944990
  H  2.97731357  0.53835761  0.42645308
