11
opt_min/./Product_4438_0_opt.xyz
  C -1.30018104 -0.36394893 -0.10458778
  C -0.08958437  0.54111139  0.11127996
  C  1.05700565 -0.22582334  0.58868846
  C  2.00784494 -0.85520653  0.95116204
  H  2.84044262 -1.40190325  1.28041725
  N  0.24548763  1.20405479 -1.08464609
  C  0.52918828  1.71605155 -2.08794910
  H -0.31025039  1.31162425  0.86993418
  H -1.08171099 -1.10966087 -0.86918235
  H -1.54714877 -0.87997463  0.82049765
  H -2.15915239  0.21855701 -0.43388283
