16
opt_min/./Product_4286_0_opt.xyz
  C -1.71154300  0.98679000  0.29267800
  C -0.41785400  0.30664230 -0.03151274
  C -0.53773912 -1.18845096 -0.20381829
  O -0.93632312 -1.78361227  1.02707404
  H -0.46085203 -2.60539604  1.15471792
  H -1.30407351 -1.40001883 -0.96483743
  H  0.40703843 -1.61046293 -0.55320716
  C  0.72989416  0.96881725 -0.11308302
  C  2.08894655  0.40338941 -0.39439963
  H  2.23118879  0.25078428 -1.46414317
  H  2.85889259  1.09051594 -0.05596650
  H  2.24563249 -0.54839699  0.10423360
  H  0.70155886  2.04131146  0.01290526
  H -1.59033259  2.06457225  0.33426243
  H -2.07150430  0.63583188  1.25604706
  H -2.47090043  0.74094207 -0.44608283
