11
opt_min/./Product_11329_0_opt.xyz
  C  2.40306800 -0.61689204  0.39881300
  C  0.99359920 -0.32693834  0.41935086
  C -0.18885738 -0.09459910  0.43774481
  C -1.59112466  0.18305891  0.48691194
  O -2.28921539  0.02893824  1.45085819
  C -2.07768374  0.69884655 -0.84603320
  C -3.26665797  1.06472769 -1.19888977
  H -1.29455817  0.75925640 -1.59261053
  H  2.72638460 -0.96386007  1.37997555
  H  2.61147283 -1.39143506 -0.33926860
  H  2.95992478  0.28228521  0.13423302
