10
opt_min/./Product_3166_0_opt.xyz
  N -1.82265679  0.86342433  0.43054882
  C -0.97242988 -0.18848240  0.83763061
  C  0.10221429 -0.56796495  0.20959693
  N  1.03880748 -0.99866076 -0.45310933
  C  2.30933396 -0.66224809 -0.48258781
  C  3.49308974 -0.48218321 -0.60680044
  H  4.52522818 -0.33279327 -0.70979973
  H -1.21996762 -0.64098403  1.79023274
  H -2.80132362  0.61129014  0.51304217
  H -1.62047673  1.17014981 -0.51525843
