16
opt_min/./Product_7608_0_opt.xyz
  C  1.40334600 -0.17405200 -1.56450900
  C  0.54367204 -0.66191563 -0.40929100
  C  1.22525287 -0.48717099  0.92826475
  N  2.46921513 -0.39331545  1.01326301
  H  2.84441047 -0.28467293  1.95340294
  H  0.51319508 -0.45890220  1.76552026
  O -0.68276958  0.04747873 -0.42245581
  C -1.71331922 -0.49910509  0.27006784
  C -2.81758480  0.17242248  0.55059098
  H -2.93490064  1.20070970  0.26282206
  H -3.63427821 -0.30266887  1.06059980
  H -1.58917012 -1.54075003  0.56117437
  H  0.33747879 -1.74410222 -0.52418424
  H  1.51136457  0.90423913 -1.50001150
  H  0.93925291 -0.43211606 -2.51282820
  H  2.38294721 -0.63585229 -1.49266693
