11
opt_min/./Product_618_0_opt.xyz
  O -1.99174100 -0.24236800  0.48724900
  C -0.69769011 -0.65766099  0.14465573
  C  0.15105073  0.47786907 -0.46279333
  C  1.43225724 -0.14549972 -0.93273198
  O  2.36110510 -0.19128186 -0.05885596
  H  2.17142057  0.21092037  0.83064590
  H -0.39744130  0.90428619 -1.30123176
  H  0.31512098  1.25061594  0.30802524
  H -0.18064661 -1.07830246  1.02189774
  H -0.82450735 -1.45168957 -0.59315262
  H -1.93940609  0.49585413  1.10554985
