9
opt_min/./Product_5721_0_opt.xyz
  N  2.02002100 -0.14860000  0.04944700
  C  0.78108748 -0.31571734  0.13773845
  N  0.13266504 -1.38105675  0.63307943
  O -1.20166453 -1.14657221  0.53780489
  C -1.43176071  0.00567901  0.01072443
  H -2.43588668  0.35636199 -0.14099372
  N -0.29631802  0.62193671 -0.28288975
  H -0.18465138  1.53010005 -0.70104396
  H  2.31637698  0.72908078 -0.35642484
