12
opt_min/./Product_156_0_opt.xyz
  C -1.74867900 -0.04208800 -0.13825200
  N -0.45005126 -0.58948192  0.16575351
  C  0.62109462  0.20592005  0.35219426
  N  1.88420675 -0.42967603  0.33940315
  O  2.17203952 -1.25929291 -0.57296524
  H  2.66183072  0.16033916  0.67097217
  C  0.82579923  1.50551698  0.19820717
  H  1.61258031  2.09634646  0.62594864
  H -0.23379836 -1.51373346 -0.18169253
  H -2.45997423 -0.29341602  0.65285150
  H -1.66568985  1.04185899 -0.20872629
  H -2.12635875 -0.43047386 -1.08442517
