8
opt_min/./Product_1178_1_opt.xyz
  O  0.91113200  1.32039400 -0.47721800
  C  0.45511348  0.26928377 -0.11773124
  O  1.21890452 -0.80463979  0.12054103
  H  2.15532531 -0.59810995 -0.03587268
  C -0.99978908 -0.00985742  0.13112994
  H -1.17381972 -1.07321805  0.26004379
  H -1.30803752  0.51780431  1.03142505
  H -1.58515866  0.37262506 -0.70137161
