13
opt_min/./Product_5012_0_opt.xyz
  O  2.91499100 -0.64705900  0.46720800
  C  1.95644667  0.13570601  0.79668825
  C  0.74944655  0.01713688 -0.02031629
  H  0.73881412 -0.76303055 -0.80474969
  N -0.52087035  0.31756046  0.63052656
  C -1.64180980 -0.49938400  0.24350195
  H -1.58107275 -1.45182962  0.76976777
  H -2.55150926  0.01175767  0.55726971
  H -1.69923108 -0.69184727 -0.83774152
  C -0.02660977  1.26501405 -0.30544411
  H -0.49522478  1.36944602 -1.27961444
  H  0.34480650  2.18396803  0.12459962
  H  2.75779821 -1.28208764 -0.28026666
