11
opt_min/./Product_9184_0_opt.xyz
  O  2.47542600 -0.91475200 -0.16760000
  C  1.27143981 -0.36243705 -0.19066304
  C  1.11903421  1.03050692 -0.01568531
  C -0.19381197  1.40333543  0.04059862
  H -0.50359698  2.43490219  0.12010763
  N -1.22770880  0.48582618  0.04868623
  H -2.18044437  0.76002832  0.25746945
  C -0.95125109 -0.78792588 -0.25468897
  H -1.76640608 -1.49660943 -0.32117574
  N  0.25450947 -1.22707968 -0.45271615
  H  2.38983404 -1.86137190 -0.35967124
