12
opt_min/./Product_9141_0_opt.xyz
  C -1.53550700  0.35308000 -0.20717500
  C -0.32840903 -0.45435379  0.27946810
  H -0.62017113 -1.08586579  1.12907090
  C  0.21550879 -1.35832108 -0.80407747
  O  1.44177473 -1.04311049 -0.98617439
  C  1.89100576  0.02078779 -0.14103965
  O  2.99857402  0.45483582 -0.17187623
  N  0.82683902  0.35243033  0.60535543
  H  0.84765426  1.08201509  1.29387519
  H -2.08779430 -0.23447830 -0.93570864
  H -1.19598167  1.26979491 -0.68523809
  H -2.19577053  0.61144579  0.61686604
