19
opt_min/./Product_9701_0_opt.xyz
  C -1.36016600  1.08285100 -0.47366500
  C -0.37420254 -0.06363682 -0.25120596
  C  0.76454497  0.40189151  0.61649680
  C  2.05006688  0.39688938  0.29973140
  C  2.63613792 -0.08055395 -0.99477963
  H  3.68333637  0.19584942 -1.06527947
  H  2.56810324 -1.16490698 -1.06983204
  H  2.11297577  0.34463261 -1.84792815
  H  2.76339601  0.75834692  1.02718747
  H  0.46470133  0.76433207  1.59058134
  C -0.98370217 -1.27561294  0.39722024
  C -2.24779855 -1.45039734  0.73619087
  H -3.00015632 -0.70001991  0.56431384
  H -2.57560586 -2.36604327  1.19900592
  H -0.26582429 -2.06221779  0.59752569
  H  0.01636119 -0.37780083 -1.22537737
  H -0.83916989  1.92416522 -0.92157940
  H -1.78772901  1.41133511  0.46897057
  H -2.16204806  0.77745920 -1.13795674
