17
opt_min/./Product_9574_0_opt.xyz
  C  2.50729700  1.09412700  0.73114600
  H  2.40059059  1.99844935  0.14024206
  H  2.77015077  1.29309334  1.76532211
  C  2.98328188 -0.17306681  0.07238400
  H  3.83027109 -0.67182676 -0.32918402
  C  1.71884961 -0.13418576  0.37781346
  C  0.37804373 -0.73217781  0.40936954
  C -0.62812745  0.12716119 -0.37450972
  C -1.98801102 -0.49536866 -0.34612101
  C -3.06301040  0.06688502  0.17044365
  H -4.02118971 -0.42454871  0.17202911
  H -3.03577671  1.05073396  0.61055742
  H -2.04435920 -1.48649860 -0.77994641
  H -0.66963854  1.12809114  0.05797204
  H -0.28985710  0.20829061 -1.41103132
  H  0.03273779 -0.81575494  1.44370105
  H  0.43211631 -1.73663434 -0.02093556
