10
opt_min/./Product_3926_1_opt.xyz
  C  1.45297600 -0.89529900 -0.43686500
  C  0.67940345  0.30672743 -0.61900292
  C -0.36983550 -0.63014170  0.09593689
  H  0.13029942 -1.53417910  0.50272086
  H -1.13300315 -0.96280287 -0.59737815
  H -0.77700664 -0.08304903  0.94447928
  O  0.98930336  1.46795853  0.11397374
  H  0.31823522  2.14394106 -0.03150886
  H  0.37398440  0.54806561 -1.63798040
  H  2.05383915 -0.79602484  0.48164029
