13
opt_min/./Product_112_0_opt.xyz
  C -0.77082900 -1.03482300 -0.07631500
  H -1.29979849 -1.70802995  0.60695414
  H -0.97726211 -1.37158379 -1.10142293
  C -1.26007625  0.37651590  0.11391192
  H -2.30526064  0.52336999  0.33299578
  C -0.43834144  1.41668102  0.01972033
  H -0.77028411  2.44049506  0.11603350
  N  0.92149060  1.24297480 -0.18301400
  H  1.52332204  2.04733059 -0.20209678
  C  1.46933589  0.00326818  0.09782382
  H  2.53876954 -0.01999691  0.26166032
  C  0.70483387 -1.08134205  0.21328835
  H  1.13649457 -2.02366137  0.51496461
