12
opt_min/./Product_11939_0_opt.xyz
  N -1.99983700 -0.47077200 -0.27000000
  C -0.77153543 -0.28780812  0.47354892
  H -0.79571221 -0.77744838  1.46757817
  C -0.45600244  1.17912700  0.74269861
  N  0.75846078  1.29036110  0.23258132
  H  1.30157978  2.13907176  0.22760527
  C  1.20188143  0.08075416 -0.34442538
  O  2.40606567  0.04740700 -0.89285291
  H  2.55854329 -0.81388745 -1.29969243
  N  0.36318034 -0.85901042 -0.24020442
  H -2.27431056 -1.44524588 -0.25768569
  H -2.72996453  0.07811454  0.16746248
