16
opt_min/./Product_4478_0_opt.xyz
  C -0.54096800  0.05710700 -0.90771300
  C  0.54629135 -0.84026159 -0.29247026
  C  1.47518031 -0.08583591  0.60167510
  C  2.75883748  0.09732958  0.35170664
  H  3.40032037  0.64998412  1.01554296
  H  3.22478070 -0.30882442 -0.53176983
  H  1.04122481  0.33293757  1.49658683
  H  0.05642233 -1.63526143  0.27642012
  H  1.11960669 -1.30178530 -1.09809733
  C -1.51477367  0.55972554  0.10736456
  C -2.78790526  0.20924609  0.15030604
  H -3.21132311 -0.46978096 -0.57178758
  H -3.45684515  0.59192142  0.90279002
  H -1.12374499  1.24448328  0.84723588
  H -0.05226050  0.90352634 -1.39653958
  H -1.07922431 -0.51326778 -1.66464278
