15
opt_min/./Product_8871_0_opt.xyz
  C -2.21348900  0.04493400  0.20465800
  N -0.78512704  0.11284930  0.13484028
  C -0.02424266  1.21892945  0.27122423
  H -0.49282399  2.15747534  0.51493229
  C  1.29490693  0.97226201  0.08270871
  H  2.09909303  1.67717827  0.15198635
  C  1.45418368 -0.42803508 -0.22042886
  N  2.46929731 -1.15520535 -0.45995068
  H  3.34617008 -0.63730461 -0.43672121
  C  0.05058271 -1.01002803 -0.21417410
  H -0.04615832 -1.82139456  0.51141142
  H -0.20382517 -1.40823174 -1.20091114
  H -2.58376463  0.66239325  1.02454971
  H -2.68555595  0.38391821 -0.72570278
  H -2.51426265 -0.98679527  0.38128400
