16
opt_min/./Product_10735_0_opt.xyz
  N  0.27153100  0.38854700 -0.05564300
  C  1.89870598 -0.27028868 -0.66930780
  O  1.68552783 -0.84947821 -1.69404841
  C  2.78585460  0.11820497  0.22296761
  H  3.81319778 -0.16023192  0.06901198
  H  2.55334605  0.67940608  1.10435396
  C -0.78469297  0.11382218 -1.01981630
  C -1.89541193 -0.72016610 -0.37831917
  O -2.43489120 -0.07633122  0.75555729
  H -3.03168282  0.62606950  0.47715708
  H -2.66826194 -0.94491455 -1.12206611
  H -1.48121106 -1.66480006 -0.01469414
  H -1.18371960  1.04815690 -1.42332714
  H -0.32682121 -0.45658960 -1.84409263
  H  0.08878523 -0.07914015  0.82864839
  H  0.42650268  1.37526703  0.11583865
