13
opt_min/./Product_7833_0_opt.xyz
  C -1.68593700 -0.16351100  0.43170100
  C -0.29631114 -0.53938209 -0.06834499
  C  0.69771259  0.62216799  0.09402832
  C  2.02793713  0.19735337 -0.45690164
  O  2.86229909 -0.41095113  0.15224699
  H  2.18192398  0.43346975 -1.53080892
  H  0.80918999  0.84938376  1.15497798
  H  0.32299584  1.49731309 -0.43494174
  H  0.07893655 -1.40407962  0.48153988
  H -0.35081872 -0.81533408 -1.12394406
  H -1.62957165  0.28690698  1.42028469
  H -2.31348074 -1.04815766  0.49713811
  H -2.16230195  0.54590705 -0.24042754
