12
opt_min/./Product_9912_0_opt.xyz
  N  1.16990700  2.53818600 -0.36163198
  C  0.81984380  1.46496748 -0.17986220
  C  0.36178136  0.11513864  0.01971103
  C -1.10499776 -0.09773863 -0.36444305
  C -2.15334105  0.56564750  0.38589271
  H -1.76754107  1.02679536  1.30902586
  H -1.24956412  0.04410315 -1.44312727
  H -1.37242248 -1.15178448 -0.17373353
  C  1.35771761 -0.97112047 -0.06377211
  H  2.40191928 -0.73295778 -0.24022723
  H  1.03524129 -1.94700477 -0.41513480
  O  0.83471074 -0.55279265  1.16069688
