14
opt_min/./Product_5797_0_opt.xyz
  C  0.12448500  1.46809100  0.23673300
  C  0.12779632 -0.02856655  0.02434192
  C  1.44980116 -0.64275983 -0.20144930
  O  1.65744329 -1.82105064 -0.33225259
  H  2.28002922  0.09016629 -0.25227955
  C -0.91033187 -0.89210178  0.70345092
  H -0.58380113 -1.86798101  1.03122343
  H -1.61972505 -0.40836868  1.35589241
  C -1.01126779 -0.66800536 -0.76078714
  H -0.72021850 -1.47034128 -1.42198950
  H -1.76933748 -0.00380426 -1.14494066
  H  0.40615498  1.98730094 -0.67847117
  H -0.86469530  1.80797655  0.53180658
  H  0.83051352  1.74582085  1.01717391
