14
opt_min/./Product_7616_1_opt.xyz
  C  1.23793900 -0.69062400 -0.77167600
  C  0.64002211  0.60616453 -0.28605536
  H  0.96710747  1.47483175 -0.85106407
  N  0.48403642  0.74935561  1.14667956
  H  0.69255827  1.66850322  1.51611141
  C -0.70835385  0.68399738  0.32876218
  C -1.61924441 -0.50409795  0.50503355
  H -2.18587204 -0.40852956  1.42693385
  H -2.31976002 -0.55395127 -0.32620219
  H -1.05728248 -1.42817349  0.54437534
  H -1.25895481  1.61012983  0.16262562
  H  1.13692868 -1.45494893 -0.00968112
  H  0.75015547 -1.02890122 -1.68159562
  H  2.29643943 -0.55457979 -0.97432600
