10
opt_min/./Product_142_0_opt.xyz
  O  0.95579700  0.65761000  1.72842600
  C  0.59520609  0.41091515  0.61751204
  C  1.19274993 -0.22972877 -0.59778002
  H  1.84754107 -1.08114493 -0.38273800
  H  1.73259738  0.38804901 -1.31457964
  C -0.20202257 -0.69164169 -0.94800034
  C -0.79376235  0.36154793 -0.07232757
  O -2.01740485  0.25046559  0.56032403
  H -2.16210314 -0.66394714  0.82892407
  H -0.82053720  1.30504259 -0.63691294
