14
opt_min/./Product_9963_0_opt.xyz
  C  3.45183978  0.61095741  0.08943853
  C  2.26706453  0.13430786 -0.20855839
  C  1.14072010 -0.33682544 -0.49186868
  C -0.05707127 -0.84426371 -0.74031129
  N -1.21487554 -0.31829378 -0.28896577
  C -1.84011821  0.74284504  0.38707996
  H -1.80615227  1.73147904 -0.06093721
  H -1.78696144  0.75090969  1.47172068
  C -2.61750710 -0.33921949 -0.29814938
  H -3.12970151 -0.10304932 -1.22818889
  H -3.12103873 -1.09387206  0.29927392
  H -0.17599800 -1.73562775 -1.34733736
  H  3.55272200  1.49624007  0.69434746
  H  4.35950389  0.14049330 -0.25375069
