11
opt_min/./Product_3138_0_opt.xyz
  C  0.98901332  0.48322486 -0.57968641
  H  1.52267388  0.89359535 -1.41594715
  C  1.24694458 -0.45048825  0.33402516
  H  2.06847914 -1.10926816  0.53574809
  C -0.11729464 -0.36106500  0.96191799
  H -0.23939214 -0.26061781  2.03156637
  N -1.13241136 -1.22335926  0.28561881
  C -1.38641034 -0.32078507 -0.57462867
  H -2.08044121 -0.36541614 -1.39554035
  C -0.42121343  0.73754655 -0.10317969
  H -0.76976017  1.74310394  0.09140049
