15
opt_min/./Product_10495_0_opt.xyz
  C  2.17921000 -0.42298800 -0.01808200
  C  0.75645705  0.00285919 -0.01953872
  C -0.31737900 -0.55619981 -0.59637706
  H -0.38218977 -1.45516588 -1.17972372
  C -1.51295011  0.32760888 -0.31457281
  N -2.70225259 -0.27948518  0.24826667
  H -2.93153361 -1.12708359 -0.25990816
  H -2.53055345 -0.51593059  1.22051070
  H -1.82370205  0.81473798 -1.25549165
  N -1.00044659  1.38191341  0.52809323
  C  0.25405241  1.19766082  0.65172563
  H  0.85533450  1.88839344  1.22109927
  H  2.26452976 -1.50110017 -0.13818795
  H  2.71310823  0.04556255 -0.84900894
  H  2.67903124 -0.11505216  0.89782692
