12
opt_min/./Product_4250_0_opt.xyz
  C  1.98863500 -0.04700700  0.23115200
  C  0.76147369  0.48020640 -0.27100939
  H  0.86971086  1.00471003 -1.22077435
  C -0.47246318  0.99064265  0.54482892
  H -0.91127647  1.89965273  0.15708249
  H -0.32294080  1.06438509  1.62133493
  C -1.20298677 -0.29004427  0.13648399
  H -2.24999458 -0.42093335 -0.08944403
  C -0.03345021 -0.85149283 -0.54361659
  H  0.09592397 -1.48916838 -1.39914236
  O -0.49728316 -1.38865341  0.64184927
  H  1.96710342 -0.17101651  1.32487990
