15
opt_min/./Product_1033_0_opt.xyz
  C  1.83586500  0.31531900  0.31772300
  C  1.06878208  0.11316447 -0.98805711
  C -0.39058456 -0.09516247 -1.00960518
  C -1.09906264 -0.00454711  0.28032291
  C -2.60937036  0.17682598  0.14136754
  H -3.12860001 -0.16379705  1.03637359
  H -2.84195387  1.22641230 -0.01941010
  H -2.96983238 -0.40146007 -0.70675805
  H -0.68615798  0.71831437  0.99183052
  H -0.88988741 -1.00786323  0.68577626
  H  1.17954651  0.99545985 -1.63659342
  H  1.50480057 -0.71287360 -1.56546121
  H  1.69866657 -0.55715593  0.95805889
  H  2.89546662  0.43720462  0.10905702
  H  1.47673160  1.18994372  0.85908811
