7
opt_min/./Product_4996_1_opt.xyz
  O  1.43858000  1.48020300 -0.39981200
  C  1.09398717  0.34663456 -0.20223825
  N -0.05008780 -0.08228050  0.35943312
  C -1.20264228 -0.36646988 -0.02040671
  H -1.54339924 -0.30872129 -1.05359638
  H -1.92297379 -0.69419044  0.71984774
  H  1.78857973 -0.51881670 -0.31367254
