19
opt_min/./Product_9935_0_opt.xyz
  C -3.04878900  0.20059900 -0.18080700
  C -1.62311328  0.45786696  0.28325117
  C -0.63389992 -0.51697707 -0.37242763
  C  0.70775670 -0.39293160  0.21361649
  C  1.79582132 -0.45317648 -0.76871213
  O  3.10534597 -0.46923200 -0.24706494
  C  3.39336665  0.65478064  0.55071577
  H  3.35659023  1.57710903 -0.04415151
  H  4.39354853  0.50504052  0.94614738
  H  2.66904250  0.73766288  1.36814987
  H  1.71308129 -1.37528099 -1.36540639
  H  1.69835937  0.39183310 -1.48263847
  H -0.70246594 -0.45482938 -1.47247546
  H -0.93554804 -1.52929384 -0.07171695
  H -1.33076781  1.47751497  0.02280589
  H -1.55039312  0.35882360  1.36633640
  H -3.12854487  0.32736564 -1.25955070
  H -3.35671805 -0.81223913  0.07094331
  H -3.73527358  0.89937290  0.29224393
