15
opt_min/./Product_3964_0_opt.xyz
  C  1.73464400 -0.46625000 -0.09691700
  C  0.54644282  0.30205178  0.46106918
  N -0.54082386  0.29749379 -0.48679478
  C -1.84174714  0.75809836 -0.03107431
  H -2.33580932  1.38594608 -0.77453346
  H -1.77037771  1.29885406  0.91817070
  C -2.53824686 -0.57668585  0.14239694
  O -2.61242926 -1.18569696  1.17481987
  H -2.87096393 -1.03598388 -0.81088338
  H -0.28579024  0.58854517 -1.41669003
  H  0.18353284 -0.18362559  1.37139614
  H  0.85885740  1.32948633  0.72825218
  H  1.49159587 -1.52084522 -0.19421698
  H  2.59015925 -0.36236382  0.56540297
  H  2.00902335 -0.08425117 -1.07838468
