13
opt_min/./Product_3780_0_opt.xyz
  C  0.64233500  0.84095500  0.42653300
  H  1.12645399  1.17198312  1.34525897
  H  0.52047233  1.71673032 -0.22253656
  N -0.64260602  0.23570064  0.73067733
  C -1.50223672  0.21336191 -0.40150477
  H -1.24031312  0.77546691 -1.29386824
  H -2.56398676  0.15768968 -0.20228092
  C -0.71006775 -1.01589401 -0.08005633
  H -1.27222236 -1.86958101  0.28245203
  C  0.50892732 -1.29658618 -0.79261043
  C  1.44530433 -0.25069743 -0.34091733
  H  2.15762763  0.11526300 -1.07904425
  H  2.02244684 -0.82613368  0.39792929
