10
opt_min/./Product_7720_1_opt.xyz
  C  1.44680400 -0.38273500 -0.46162200
  C  0.97999915  0.39956901  0.49721501
  O -0.29833379  0.76535076  0.74847812
  C -1.29207741  0.25955343 -0.11169042
  H -2.24279452  0.64813662  0.25346348
  H -1.31264993 -0.83529823 -0.08840192
  H -1.13139089  0.59628510 -1.14162328
  H  1.63374042  0.85717062  1.23065851
  H  0.81574197 -0.84686292 -1.20002334
  H  2.49882241 -0.58477609 -0.53623972
