12
opt_min/./Product_4931_0_opt.xyz
  O  0.94776100 -0.55839700  1.26594800
  C  0.54186918 -0.96375323 -0.01809006
  H  1.05891035 -1.81510536 -0.43268923
  C  1.06671714  0.37318938  0.23101854
  H  2.05017068  0.72596945 -0.04297924
  C -0.12240823  1.32249971  0.16281047
  H -0.07742997  1.93254860 -0.74740059
  H -0.15706237  1.96591932  1.04346014
  O -1.27690874  0.49437301  0.17239520
  C -0.95240127 -0.81620572 -0.25487290
  H -1.14600308 -0.94912329 -1.33183880
  H -1.55354532 -1.52870388  0.31115014
