11
opt_min/./Product_4032_0_opt.xyz
  C -0.92670407 -0.85657087  0.85284406
  C -0.13880632 -0.11130032  0.08073546
  C -0.50954564  0.32375474 -1.31084077
  H -0.08751964  1.30164194 -1.52677459
  H -1.58874784  0.36167426 -1.42405538
  H -0.10679845 -0.38616554 -2.03265583
  C  1.13358623  0.31877508  0.52954040
  C  2.21363341  0.69374687  0.89717245
  H  3.14981599  1.02947595  1.22711862
  H -0.61973410 -1.16027783  1.83936471
  H -1.89673219 -1.18018194  0.52093351
