10
opt_min/./Product_1802_0_opt.xyz
  O -0.32178935  1.58955848  0.38881874
  C -0.56701588  0.28812913  0.09421843
  C -1.68830133 -0.37010516  0.38394170
  H -1.82098300 -1.39908904  0.11387478
  H -2.49528519  0.10312345  0.90941515
  N  0.51048800 -0.31767922 -0.53251878
  N  1.53303833  0.37249944 -1.00314543
  C  2.46610043  0.95434974 -1.38414335
  H  0.38473165 -1.24387627 -0.91238049
  H -1.06964785  1.95930777  0.86731388
