13
opt_min/./Product_3889_0_opt.xyz
  O  2.37156000  0.14303000 -0.80885700
  C  1.82739745 -0.45980659  0.34378697
  O  0.47472159 -0.63488514  0.19815082
  C -0.25807024  0.55152158  0.09178636
  N -1.56219698  0.45015892 -0.08958361
  C -2.35205764 -0.61438520  0.00141842
  H -3.39576605 -0.51091178 -0.20514420
  H -1.90500807 -1.57983319  0.11068628
  H -2.03260126  1.33982452 -0.21879051
  H  0.26692305  1.45978584 -0.12965048
  H  2.24152449 -1.46919737  0.48995430
  H  2.05835823  0.16292262  1.23308905
  H  3.32097532  0.24361975 -0.69676986
