13
opt_min/./Product_9845_0_opt.xyz
  C -1.12430300 -0.73819000 -0.03388500
  H -1.42126019 -1.15757812 -1.00720418
  H -1.89463880 -0.94893079  0.71762149
  O  0.04654475 -1.43617350  0.36777617
  C  1.24407711 -0.72768986  0.30516049
  H  1.87767586 -0.85852746  1.17633590
  C  1.33367038  0.59621138 -0.39479925
  H  2.00519897  1.34078574  0.02411273
  O  0.16640600  1.11883371 -0.96556428
  C -0.94598374  0.77754774 -0.17542205
  H -0.85345192  1.23588859  0.82416631
  H -1.81790801  1.19314941 -0.68858494
  C  1.81030305 -0.64317671 -1.07702169
