12
opt_min/./Product_3836_0_opt.xyz
  N  1.29734336 -0.83673910 -0.07300780
  C  0.25674849 -0.57420491 -0.46122744
  C -1.05063956 -0.25193708 -0.98740894
  C -2.06695869  0.01211050  0.08247444
  N -1.75084086 -0.01329862  1.29500349
  H -2.48358203  0.17504235  1.97217600
  H -3.07166477  0.22177646 -0.31030444
  H -0.96779063  0.63398239 -1.62676865
  H -1.39523604 -1.08167610 -1.61421966
  C  2.49833910 -51.92904529  9.24108288
  H  3.59077080  27.48517549 -5.16222568
  H  2.19564477  40.16649783 -4.61193472
