14
opt_min/./Product_394_0_opt.xyz
  C  1.14508200 -0.54438700 -0.04932000
  H  1.56733430 -0.86660742 -0.99516618
  H  1.72199281 -0.96000629  0.77123024
  C  0.88350122  0.96687238  0.06070823
  H  1.04483934  1.50424274 -0.86696018
  H  1.40088383  1.47192497  0.87228639
  C -0.61579520  0.70377116  0.31126077
  O -1.47960248  1.34075978 -0.58720112
  H -2.20884133  1.75369623 -0.12224957
  H -0.90822076  0.88604570  1.34837308
  C -0.37429412 -0.82171473  0.05518728
  O -0.95960885 -1.29270195 -1.12900582
  H -1.28449012 -2.18611383 -1.00578509
  H -0.65819297 -1.44803841  0.90596906
