14
opt_min/./Product_5255_0_opt.xyz
  C -1.28928000  0.22308200 -0.69095100
  H -1.00106427  1.11601312 -1.24204398
  H -2.10366682 -0.28409770 -1.21158876
  C -0.12758913 -0.71994642 -0.26228214
  C  1.24107147 -0.26043317 -0.65109734
  C  2.06895626  0.38915150  0.14758759
  H  3.04199203  0.70546065 -0.18646633
  H  1.80272713  0.62483641  1.16337430
  H  1.54151290 -0.47520963 -1.66902468
  H -0.27313819 -1.75315846 -0.59506917
  C -0.56536097 -0.42976470  1.15043780
  H -0.20645869 -0.77481102  2.10312740
  C -1.54537283  0.39202220  0.78199453
  H -2.28393744  0.97357792  1.30420726
