14
opt_min/./Product_9986_0_opt.xyz
  O -1.10492000  0.93386300  0.97598000
  C  0.15030605  1.35133485  0.42261962
  H  0.81883929  1.82603822  1.13768314
  H -0.04428671  2.03529136 -0.41786182
  C  0.39469948 -0.06843654 -0.05854410
  C  1.42753547 -0.70592706 -0.89997717
  H  2.19157700 -0.06370921 -1.32385144
  H  1.14932918 -1.54305543 -1.52787297
  N  1.36367586 -0.95585763  0.52387839
  H  2.10770459 -0.51900541  1.05861995
  C -1.10535906 -0.27658635  0.23726573
  O -1.52431054 -1.36108765  0.96205165
  H -1.62032498 -2.12659016  0.38657376
  H -1.70160926 -0.13312036 -0.69053623
