11
opt_min/./Product_3119_0_opt.xyz
  C  1.81381900  0.35429300 -0.17863500
  C  0.50582847  0.18460184 -0.10797056
  C -0.31119905 -0.89331942  0.58164602
  H -0.11150067 -1.89277640  0.18880823
  H -0.15503459 -0.91877616  1.66232712
  N -1.68055451 -0.51691556  0.29034550
  C -1.62213619  0.53104416 -0.40344197
  H -2.47461354  1.06484006 -0.78489259
  O -0.40841952  1.03694898 -0.70315548
  H  2.23811834  1.18217794 -0.71509087
  H  2.47271973 -0.34060072  0.30450511
