15
opt_min/./Product_9901_0_opt.xyz
  C -1.76694600 -0.60700700 -0.20326800
  C -0.34273839 -0.15066145 -0.47381019
  H  0.04781691 -0.62080697 -1.39307351
  C -0.28525947  1.38420009 -0.58706750
  H -1.13472183  2.02662476 -0.52301202
  C  0.99549768  1.61966102 -0.55935917
  N  2.07501883  1.03801559 -0.37999086
  C  1.89875166 -0.01918846  0.60865126
  H  2.23709436  0.27611327  1.60849125
  H  2.56004819 -0.81279102  0.22292717
  N  0.49938730 -0.43089307  0.69782606
  H  0.43528027 -1.39161173  1.00078525
  H -1.79013418 -1.67897297 -0.01758790
  H -2.15723647 -0.09791742  0.67408376
  H -2.39878548 -0.38554943 -1.05937031
