13
opt_min/./Product_10021_0_opt.xyz
  N  1.74655300 -0.45194700 -0.26947200
  C  0.35584239 -0.31418935 -0.33903847
  C -0.69577490 -1.41896624 -0.25403151
  H -0.72948253 -2.39267998 -0.69934054
  C -1.56068773 -0.64739611  0.40093662
  H -2.57239823 -0.74804434  0.74122241
  C -0.60842881  0.54892684  0.38148848
  O -0.37600005  1.51002574  1.32281312
  H -1.05782043  2.19079082  1.26442126
  N -0.37298506  0.77417915 -1.05349698
  H  0.22658124  1.58477020 -1.20564156
  H  2.18427756 -0.44619642 -1.18390116
  H  2.16963010  0.25696099  0.31664402
