10
opt_min/./Product_2389_0_opt.xyz
  N  1.54595200  0.21059000  0.01540700
  C  0.17153988  0.10367524  0.02302086
  N -0.47146695 -1.08640735  0.17532221
  H -0.05504721 -1.98948442  0.33475145
  N -1.79696350 -0.91027940  0.08150576
  N -2.02322726  0.32290560 -0.13018516
  C -0.86296690  1.00260191 -0.17464378
  H -0.82304965  2.05563495 -0.35628662
  H  2.01742458 -0.20499439  0.80768007
  H  1.85177637  1.16507418 -0.11526571
