15
opt_min/./Reactant_8043_0_opt.xyz
  C  0.45594903 -1.40456897 -0.62869406
  C -0.29940167 -0.09188192 -0.57603470
  H -0.69339859  0.14696916 -1.56473225
  C -1.33972505  0.05028203  0.55307807
  H -2.34225196  0.33086404  0.22749121
  H -1.40881736 -0.81287586  1.21377991
  N -0.55218605  1.12705780  1.17539506
  H -1.04083309  2.00327620  1.29706184
  C  0.43146901  1.11920975  0.07207537
  C  1.76596803  0.85882550  0.55400083
  N  2.82140345  0.65074318  0.94058427
  H  0.45301420  2.01971546 -0.55071196
  H  0.89958403 -1.63021655  0.33636797
  H  1.24491077 -1.36308725 -1.37334858
  H -0.22716410 -2.20718616 -0.89510770
