10
opt_min/./Reactant_6044_0_opt.xyz
  O  2.70482400 -0.29219000 -0.04164800
  C  1.53008990 -0.15644732 -0.01410405
  O  0.88407308  0.97840637 -0.34663850
  C -0.49927223  0.84646605 -0.08750950
  H -0.75255383  1.43760418  0.80263061
  H -1.05474788  1.22690584 -0.94510183
  C -0.66997896 -0.66500156  0.14633783
  H -1.08335134 -1.17524337 -0.73158255
  H -1.27065341 -0.90585966  1.02357027
  O  0.65412643 -1.11292586  0.34920973
