10
opt_min/./Reactant_4472_0_opt.xyz
  O  2.02798600  0.11678900 -0.01089600
  C  0.74491360 -0.40747131 -0.14490074
  C -0.34227497  0.57310800  0.20138006
  O -0.13706064  1.63038509  0.74638635
  C -1.75943337  0.12425496 -0.13788584
  O -2.03263933 -0.94356300 -0.60512210
  H -2.51537399  0.89235719  0.09888466
  H  0.62864483 -0.74835389 -1.17850441
  H  0.59077142 -1.28511088  0.51090906
  H  2.05025815  0.69536098  0.76372928
