10
opt_min/./Reactant_2222_0_opt.xyz
  C  2.33947801 -0.26657592  0.11811292
  C  1.18575238  0.03706647  0.22281847
  C -0.19748842  0.38755428  0.34969256
  H -0.36416197  1.31790250  0.89277420
  C -1.16156324  0.03311900 -0.72879298
  H -0.79645599 -0.50321751 -1.59370979
  H -1.97746787  0.71906453 -0.93351080
  N -1.13702933 -0.70713223  0.50497445
  H -1.90719866 -0.50875091  1.13552883
  H  3.34922383 -0.52677876  0.03961057
