18
opt_min/./Reactant_3270_0_opt.xyz
  C  2.59422800  0.42576400 -0.60157200
  C  1.45207609 -0.52644071 -0.27328187
  C  0.15292126  0.22155481  0.01182113
  C -0.97733187 -0.72965415  0.39696812
  C -2.29231545  0.01286864  0.61596510
  O -2.74883542  0.51015436 -0.62386635
  H -3.59696006  0.94795252 -0.49707324
  H -3.03687661 -0.67682733  1.04257607
  H -2.13982156  0.83840972  1.32780505
  H -0.72256306 -1.27175504  1.31033979
  H -1.12618950 -1.45538505 -0.40487143
  H  0.32029123  0.93487548  0.82376765
  H -0.15365170  0.78220001 -0.87313420
  H  1.29931891 -1.21188127 -1.11206156
  H  1.72135107 -1.12815764  0.60027789
  H  2.33559610  1.04938730 -1.45660248
  H  2.80750472  1.07494906  0.24718878
  H  3.49794557 -0.13152507 -0.84313780
