11
opt_min/./Reactant_3395_0_opt.xyz
  N -2.01051105 -0.85949893  0.90213896
  C -1.03928022 -1.49502510  0.41363579
  O  0.06099771 -0.90655951 -0.01745968
  C  0.09814939  0.51585718  0.12711266
  C  1.43601655  0.99338702 -0.15452507
  C  2.54634035  1.37365150 -0.38787963
  H  3.51735679  1.71504073 -0.59749311
  H -0.19892893  0.78424564  1.14863018
  H -0.62263497  0.96811901 -0.56615628
  H -0.96569531 -2.58392048  0.28669427
  H -2.79222504 -1.42517025  1.20552252
