11
opt_min/./Reactant_4184_0_opt.xyz
  O  0.76799128 -0.95447494  1.13260487
  C  0.72075039 -0.47011073 -0.17200309
  C -0.54062353  0.38799934 -0.45995502
  O -1.72532077 -0.23272167 -0.03801937
  H -1.71737795 -1.15420047 -0.32351663
  C -0.40537101  1.65482574  0.24730589
  N -0.24947060  2.63576096  0.81076437
  H -0.55361398  0.62074473 -1.54073045
  H  1.60975894  0.12292887 -0.43661785
  H  0.69365271 -1.35743466 -0.81599653
  H  0.71331444 -0.21980646  1.75829037
