14
opt_min/./Reactant_11459_0_opt.xyz
  O  2.08872100 -0.05828100  0.96477000
  C  1.22505686  0.03858276 -0.12732605
  H  1.77527624  0.19802195 -1.05840237
  C  0.09432561  1.06030223  0.10703235
  H -0.01228307  1.83413994 -0.64982803
  H  0.09167409  1.50868220  1.09709633
  N -0.86894156 -0.02142513 -0.03979721
  C -2.19796302 -0.02976688  0.02240978
  O -2.89374941  0.94797960  0.17396555
  H -2.62236575 -1.03905918 -0.14011874
  C  0.12862010 -1.05928413 -0.23084965
  H  0.05449666 -1.57232532 -1.19060815
  H  0.15964637 -1.78731330  0.58044835
  H  2.84753174 -0.60239730  0.73989818
