16
opt_min/./Reactant_2128_0_opt.xyz
  C  0.79769000  1.11243100 -0.68292900
  C  0.04071156 -0.01191793  0.01847608
  C  1.01202078 -0.99159671  0.65980484
  H  1.67193956 -1.39526460 -0.10756207
  H  1.63419799 -0.49608962  1.40184433
  H  0.49465061 -1.81674819  1.13901016
  C -1.07234947 -0.67039020 -0.82426969
  H -1.03639269 -1.76448543 -0.84650083
  H -1.19203411 -0.28572550 -1.83961877
  O -2.08410343 -0.19530105  0.06500417
  C -1.12762197  0.44051771  0.91518246
  H -1.14394713  0.03509796  1.93129336
  H -1.28540447  1.52377318  0.96664147
  H  0.10476447  1.88978005 -0.99020717
  H  1.52484489  1.54502120 -0.00061770
  H  1.31771125  0.74059999 -1.55960899
