12
opt_min/./Reactant_11807_0_opt.xyz
  N  1.66934387  1.76240201 -1.47025312
  C  1.23037959  0.76626500 -1.12197413
  C  0.65292941 -0.46080924 -0.62491763
  H  0.89251104 -1.28752139 -1.30280288
  O  1.05417411 -0.79274397  0.72014558
  C -0.29364940 -0.75058210  1.16106116
  H -0.62894991 -1.45556013  1.90060321
  C -0.88917163  0.60357423  0.93102948
  H -1.86727640  0.75078911  1.36275114
  H -0.25755314  1.47761168  0.92485999
  C -0.82283486 -0.38325080 -0.20042617
  H -1.65322626 -0.76530659 -0.76076475
