14
opt_min/./Reactant_11710_0_opt.xyz
  C -1.69753000 -0.50315500  0.09786800
  C -0.46437565  0.32092468 -0.02241537
  C -0.32927734  1.67499150 -0.01854880
  H -1.04921422  2.46807192  0.04805728
  O  0.95861031  2.03718547 -0.13910564
  C  1.68570141  0.89647224 -0.20598830
  H  2.74317344  1.01599128 -0.34161611
  C  0.86564725 -0.19159399 -0.14784748
  N  1.19450966 -1.54444859 -0.26153408
  H  0.79345285 -2.11768978  0.47164393
  H  2.19691455 -1.68275703 -0.31559769
  H -1.57079316 -1.43164233 -0.45689958
  H -1.90010492 -0.74735121  1.14258721
  H -2.55685438  0.03410126 -0.29949506
