13
opt_min/./Reactant_3275_0_opt.xyz
  C -0.60650400 -1.28610200  0.04120300
  C  0.14830810  0.02688192  0.11041200
  C  1.61639160 -0.05913904 -0.11402974
  O  2.40174534  0.83757768  0.00312757
  H  1.93661746 -1.06745243 -0.45794726
  C -0.52843305  1.27212988 -0.39388408
  H  0.07017891  2.03602427 -0.86718103
  H -1.53176571  1.17097684 -0.79104558
  N -0.27691093  1.09152749  1.00083060
  H -1.08251598  0.86663469  1.57212219
  H -0.77950171 -1.58088686 -0.99082931
  H -0.04561235 -2.07396169  0.53276990
  H -1.56842490 -1.19804416  0.53838471
