15
opt_min/./Reactant_11152_0_opt.xyz
  C  0.80215611  1.71149002  0.31661062
  C  0.98641579  0.31502688 -0.29640365
  C -0.13431204 -0.63419828  0.09313024
  C -1.45058897 -0.20713500 -0.30074909
  C -2.54398649  0.14251831 -0.63924099
  H -3.49832110  0.45897169 -0.93520364
  C  0.11847801 -2.08257201  0.20286189
  H  1.11353017 -2.46327497  0.01454397
  H -0.69881060 -2.76726295  0.01692808
  O -0.02078532 -1.28098668  1.33896673
  H  1.92613823 -0.12147808  0.03812942
  H  1.01607956  0.37704078 -1.38568319
  H -0.20501126  1.82645504  0.70534676
  H  1.49545916  1.87327844  1.13414037
  H  0.96582433  2.48777552 -0.42374719
