16
opt_min/./Reactant_5858_0_opt.xyz
  C  2.08790400  0.05245000 -0.40251300
  C  0.60856065  0.10115314 -0.73279935
  H  0.46969842  0.11628536 -1.82925703
  C -0.22361631 -1.04495203 -0.13562139
  H -0.20383232 -1.94296614 -0.74323650
  H  0.17711002 -1.27499856  0.85207173
  C -1.62241279 -0.42561022 -0.00166616
  H -2.02655341 -0.59495714  0.99213847
  H -2.32234979 -0.82230496 -0.73122864
  C -1.36389696  1.07851115 -0.25898825
  H -1.82796010  1.73505386  0.47415991
  H -1.72847876  1.35221338 -1.26052605
  O  0.02507676  1.26959799 -0.18570825
  H  2.60119518  0.89626571 -0.85269208
  H  2.22890121  0.09651124  0.67253283
  H  2.51599440 -0.86858419 -0.78414271
