10
opt_min/./Reactant_961_0_opt.xyz
  O  0.52699300  2.06048900  0.67012600
  C  0.24400653  0.96424853  0.29303114
  C  1.01123908 -0.30992393  0.00299510
  H  1.46418979 -0.78353923  0.87560834
  H  1.76975640 -0.20769545 -0.77468381
  N -0.23275179 -0.91724534 -0.50339770
  H -0.50670639 -1.78334442 -0.05795157
  C -1.03490760  0.25477833 -0.10970896
  H -1.71345640  0.11425455  0.73596566
  H -1.58802283  0.69752509 -0.93722424
