14
opt_min/./Reactant_7278_0_opt.xyz
  O  1.42168200 -0.91907900 -0.78631900
  C  0.84206064 -0.09228084  0.20604485
  H  1.58619435  0.21966711  0.94497937
  C  0.12377682  1.08485586 -0.47422285
  H  0.38274631  1.08421612 -1.53580748
  H  0.42705853  2.03682569 -0.03746721
  N -1.32194001  0.89185882 -0.33789138
  H -1.71652518  1.57553363  0.29495239
  C -1.56425187 -0.45529330  0.16024971
  H -2.42940866 -0.52994456  0.81381876
  H -1.71080690 -1.11972105 -0.70167929
  C -0.29803694 -0.88251546  0.86465832
  O -0.18132356 -1.68816243  1.74569814
  H  2.10044182 -1.47519698 -0.39151232
