15
opt_min/./Reactant_3388_0_opt.xyz
  C -0.38428700  1.42824400 -0.56713200
  C -0.25838784  0.00921147 -0.04369087
  C  1.13784034 -0.58511835 -0.15732020
  O  2.09069925  0.31376021  0.37133185
  H  2.88240890 -0.16852349  0.61736207
  H  1.17332323 -1.54692493  0.37089540
  H  1.35039256 -0.77468483 -1.22287136
  C -1.15014523 -0.47171359  1.03736338
  H -0.78343424 -1.20708901  1.74346979
  H -1.89075673  0.19746695  1.44964255
  N -1.38093999 -0.85465765 -0.33854251
  H -1.13465498 -1.81193180 -0.55823228
  H -1.00621273  1.43733072 -1.45470534
  H -0.83345239  2.07477277  0.17779842
  H  0.59772487  1.81274381 -0.81398166
