15
opt_min/./Reactant_11491_0_opt.xyz
  O  2.32829700  0.05024400 -0.69450100
  C  1.24890136 -0.02257632  0.20341334
  H  1.59365378 -0.10989231  1.23431017
  C  0.19869634  1.09831072  0.00425878
  H  0.02990777  1.74166651  0.86438711
  H  0.40057415  1.70001643 -0.87732916
  C -0.84934838  0.02307615 -0.22436330
  C -2.24046356 -0.00602843  0.23522281
  H -2.68018743 -0.94936349  0.53820328
  H -2.67164527  0.88087272  0.68431403
  O -1.90795497  0.10023768 -1.12447561
  C  0.18642370 -1.08661303 -0.17581960
  H  0.00977870 -1.85889492  0.56938968
  H  0.38075194 -1.53986971 -1.14321370
  H  3.16423200 -0.05121681 -0.23360815
