14
opt_min/./Reactant_4657_0_opt.xyz
  C  1.87348700  0.13225400  0.04667800
  H  2.32077121  1.07280700  0.34108588
  H  2.44742514 -0.43088811 -0.67857118
  O  1.32798336 -0.62286857  1.09936585
  C  0.43374805 -0.08140830  0.17807862
  C -0.68980260  0.88554741  0.53152661
  H -0.83022458  1.07598788  1.59012606
  H -0.59605186  1.82855648  0.00054181
  C -1.67999106 -0.08831723 -0.13840286
  H -2.28548027 -0.62850175  0.58266109
  H -2.32771349  0.34587241 -0.89207648
  C -0.50401436 -0.93048672 -0.67587350
  H -0.32837325 -0.78676006 -1.73834394
  H -0.51700016 -1.99023244 -0.44468557
