12
opt_min/./Reactant_2852_0_opt.xyz
  O -0.78784700 -1.38581400 -0.80545700
  C -0.32321569 -0.82000753  0.37975880
  H -0.54778604 -1.42166893  1.24917435
  C  0.95855660 -0.01769511  0.27225279
  O  1.66284519 -0.03080857 -0.91667919
  H  1.17539103 -0.58028746 -1.54717699
  H  1.63867959  0.04895795  1.11166638
  C -0.37307339  0.68867080  0.42134128
  O -0.93826218  1.31824084 -0.68946789
  H -1.87980874  1.45699033 -0.53199438
  H -0.56271409  1.18639680  1.36919562
  H -1.07542905 -0.64048880 -1.36221985
