14
opt_min/./Reactant_1432_0_opt.xyz
  C -1.60609200  0.13350100 -0.84767200
  C -0.77236834  0.11956660  0.44753158
  O -0.42229718 -1.19202798  0.83047993
  H -1.22501349 -1.70546543  0.96531201
  C  0.49133093  0.93761114  0.20560646
  O  0.47165980  2.14128675  0.25414327
  C  1.72528939  0.14198559 -0.09340316
  H  1.96385112 -0.49130292  0.75681286
  H  2.55062345  0.80928133 -0.31035622
  H  1.54863264 -0.52727619 -0.92969143
  H -1.36160998  0.61491526  1.23265075
  H -1.05336781 -0.34255282 -1.65220861
  H -1.82864942  1.15598706 -1.12372172
  H -2.53193506 -0.41760739 -0.70118630
