11
opt_min/./Reactant_81_0_opt.xyz
  N  2.05177900 -0.30801500  0.02150300
  C  0.67967349 -0.15524440 -0.05432044
  C -0.07990320  0.97541088  0.10179796
  H  0.18676529  1.99831539  0.26156920
  N -1.38852501  0.55068907  0.02254872
  H -2.20506178  1.13520866  0.10569545
  C -1.35314997 -0.78114226 -0.17904314
  H -2.23322744 -1.38637821 -0.28285765
  N -0.13158704 -1.23818056 -0.23356662
  H  2.58124737  0.52200885 -0.19905205
  H  2.37769587 -1.13694665 -0.45291143
