13
opt_min/./Reactant_10132_0_opt.xyz
  O -0.40983800  0.43379900  2.63505800
  C -0.25101060  0.54339856  1.45062393
  N  0.88645021  0.94975127  0.82252297
  H  1.74826656  1.07287137  1.33038372
  C  0.88016053  0.71887940 -0.60534258
  H  1.20449964  1.60215400 -1.16252583
  H  1.52900110 -0.12431207 -0.88474286
  C -0.59188598  0.40576487 -0.83053865
  H -1.11270392  0.91726726 -1.62792304
  C -1.10009553 -0.87446081 -0.30617644
  H -2.01960457 -1.29916025 -0.68344762
  H -0.37720706 -1.61194401  0.03223274
  N -1.25035265  0.34800692  0.45749298
