14
opt_min/./Reactant_3729_0_opt.xyz
  C  2.95561100  0.12125399  0.43671800
  C  1.57778148  0.04541621  0.00695140
  C  0.43545109  0.00049335 -0.35607514
  C -0.92369791 -0.05692810 -0.78845820
  H -1.05371985 -0.08476631 -1.86239545
  C -1.96267822  0.68485758  0.02037030
  H -2.75657140  1.17616513 -0.51606468
  H -1.61451624  1.21614512  0.88873764
  C -1.92197802 -0.80426381  0.06005979
  H -1.54210192 -1.26621146  0.95815312
  H -2.68957611 -1.38967264 -0.41588338
  H  3.40378148 -0.86952806  0.41940286
  H  3.01147748  0.51304417  1.45075558
  H  3.50506562  0.79203431 -0.22106383
