18
opt_min/./Reactant_6296_0_opt.xyz
  C -1.91039000  0.59927200  0.17074900
  C -0.75643447 -0.01265842  0.95759706
  C  0.31239209 -0.65476541  0.05282835
  C -0.23138530 -1.85154057 -0.72198935
  H -1.03571591 -1.53897514 -1.38378619
  H  0.56360996 -2.27841164 -1.33245282
  H -0.59627677 -2.60744830 -0.02965177
  O  0.82668367  0.24983874 -0.91515012
  C  1.69508638  1.23208079 -0.41331993
  H  2.06926107  1.78373208 -1.27605540
  H  2.54119714  0.78282567  0.12404638
  H  1.18097170  1.92831866  0.26177822
  H  1.14297035 -1.00290915  0.69495994
  H -0.28361357  0.76587764  1.56445376
  H -1.12534278 -0.77464494  1.64953681
  H -1.51407912  1.19979195 -0.64729810
  H -2.55283816 -0.17557666 -0.24376184
  H -2.51668264  1.23547205  0.81468226
