9
opt_min/./Reactant_1205_0_opt.xyz
  C -1.17540000 -1.23907000 -0.68389901
  C -0.26740322 -0.25051784 -0.16346377
  C  0.49120963  0.57402516  0.28361071
  C  1.41835825  1.51382246  0.81606621
  O  2.56269201  1.27497612  1.10757031
  H  0.98939844  2.53023502  0.94000162
  H -1.13136305 -2.13813853 -0.06933695
  H -0.88424693 -1.49863779 -1.70262384
  H -2.19518648 -0.85486129 -0.68985756
