14
opt_min/./Reactant_10169_0_opt.xyz
  N  2.38356900  0.57526100 -0.03216200
  C  1.93809508 -0.62824463 -0.45108452
  O  2.59763947 -1.39239697 -1.11432997
  C  0.52701543 -0.94954496  0.04701236
  C -0.45854292  0.10988339 -0.39260952
  H -0.57959962  0.19776027 -1.47003625
  C -1.57182387  0.52288517  0.46375725
  H -1.69150375  0.07738429  1.44422364
  H -2.48340364  0.89941124  0.01343249
  O -0.44142231  1.33162121  0.29487116
  H  0.23134699 -1.91978842 -0.35294843
  H  0.54847320 -0.99957975  1.13691582
  H  1.74839538  1.23862467  0.38183955
  H  3.27057070  0.90324239 -0.37851869
