15
opt_min/./Reactant_7510_0_opt.xyz
  O  2.36058200 -0.44646700 -0.77116000
  C  1.76547918  0.56764424 -0.00980127
  C  0.24266887  0.60532166 -0.16410192
  C -0.40654163 -0.64164792  0.37971273
  O  0.20689429 -1.53900971  0.90653648
  C -1.91303226 -0.74532967  0.18501209
  O -2.52977707  0.40255557 -0.32777876
  H -2.55854746  1.09139816  0.34738635
  H -2.36834122 -1.06778535  1.13592437
  H -2.08853993 -1.54410618 -0.54765225
  H -0.03652112  0.69000935 -1.21878407
  H -0.16003176  1.47520447  0.36107098
  H  2.01567022  0.44952028  1.05648492
  H  2.19562228  1.50480339 -0.37206746
  H  2.07604451 -1.29431676 -0.40037226
