16
opt_min/./Reactant_6464_0_opt.xyz
  C  1.89116004  0.51961414  0.48639471
  O  0.58305182  0.30236805  0.95697839
  C -0.35641464 -0.20376420  0.01826762
  C -0.61759304  0.76487528 -1.14897916
  H  0.25716040  0.87018883 -1.78210517
  H -1.43696859  0.39814374 -1.75880359
  H -0.88288414  1.73946686 -0.74986764
  C -1.63611172 -0.47112285  0.83103792
  H -2.51403200 -0.44464786  0.19331063
  H -1.58980466 -1.44264529  1.31248032
  H -1.71817745  0.28989652  1.59669687
  C  0.10774424 -1.47171751 -0.54026181
  N  0.48246363 -2.46290927 -0.97021829
  H  2.46816364  0.80794434  1.36053646
  H  2.32359570 -0.38513917  0.04880071
  H  1.93629475  1.33034179 -0.24839089
