12
opt_min/./Reactant_4263_0_opt.xyz
  O -2.04400200  0.13721600  0.08015800
  C -0.80317655 -0.38111089  0.45898779
  C  0.37945303  0.42307482 -0.13578074
  O  0.47891327  1.63940489  0.55146220
  H  0.88736293  2.31477215 -0.00072188
  C  1.66078844 -0.38827860 -0.04179550
  O  2.67909592 -0.02535359  0.46627170
  H  1.56064567 -1.39470388 -0.50630410
  H  0.18243655  0.57254331 -1.21130509
  H -0.75212341 -0.29467447  1.54592426
  H -0.69919924 -1.43226135  0.16368983
  H -2.25907640 -0.13832954 -0.81933607
