13
opt_min/./Reactant_293_0_opt.xyz
  C -1.11609000 -0.97264200 -0.09255600
  C -0.00998678  0.05832636 -0.20239948
  C  1.34580491 -0.41540137  0.27691164
  H  2.10940942  0.31667244  0.02906707
  H  1.61256456 -1.35899875 -0.18867392
  H  1.32411230 -0.54354262  1.35600708
  C -0.35860353  1.47782037 -0.11030943
  H -1.39447237  1.77800492 -0.00180862
  H  0.35735528  2.19293680  0.27557014
  O -0.02962217  0.88280748 -1.33706203
  H -1.41443792 -1.08732460  0.94509671
  H -0.77594049 -1.93173941 -0.47366125
  H -1.97654708 -0.65959328 -0.67550075
