12
opt_min/./Reactant_1879_0_opt.xyz
  O -2.38420600 -0.41918500 -0.22828600
  C -1.25505813  0.24922612  0.25758769
  C -0.00580785 -0.59102067 -0.02875750
  O -0.03040154 -1.66427779 -0.54536069
  C  1.28010506  0.10078942  0.43354339
  O  2.36699308 -0.77443118  0.29135675
  H  3.17673540 -0.27804450  0.15078514
  H  1.40039853  1.01297139 -0.16246865
  H  1.16022048  0.40218849  1.48569352
  H -1.31554074  0.40589639  1.34616370
  H -1.13000932  1.23561395 -0.21330250
  H -3.16117148  0.13880653 -0.13346665
