13
opt_min/./Reactant_717_0_opt.xyz
  O  2.28128800  0.62466600  0.17241500
  C  0.99586542  0.25729119  0.61587468
  C  0.10464885 -0.25463777 -0.51573611
  C -1.32457278 -0.52244502 -0.03950898
  O -1.95801069  0.61836467  0.48223797
  H -1.97548255  1.29972521 -0.19860026
  H -1.31386963 -1.24684764  0.77755671
  H -1.91005421 -0.94421602 -0.86672513
  H  0.08811664  0.49515369 -1.31058230
  H  0.51400929 -1.18010760 -0.92801504
  H  1.05971933 -0.49935674  1.40992170
  H  0.57146614  1.16897927  1.03973683
  H  2.70758406 -0.14658019 -0.21728771
