13
opt_min/./Reactant_10409_0_opt.xyz
  C  2.15586600 -0.37275700 -0.03510900
  C  0.71300160 -0.00775487 -0.03654729
  C  0.11964334  1.16416545 -0.39570636
  H  0.53101693  2.08868598 -0.74013044
  N -1.23982622  0.97375361 -0.23644907
  H -1.97533255  1.64286801 -0.38592891
  C -1.38314804 -0.29258101  0.21531306
  O -2.60370271 -0.78738224  0.47363692
  H -2.49487458 -1.70348579  0.75885607
  N -0.24782031 -0.91270455  0.34507280
  H  2.31168620 -1.22948092  0.61351523
  H  2.75981724  0.46210559  0.31535288
  H  2.48408730 -0.63370210 -1.04128650
