18
opt_min/./Reactant_2224_0_opt.xyz
  C  2.45657700  0.43738300 -0.55341700
  O  1.06300874  0.33879553 -0.54772955
  C  0.55901224 -0.26108856  0.62318807
  C -0.97028719 -0.33031804  0.55059377
  C -1.40643592 -1.20381848 -0.62278442
  H -1.03443690 -2.21894274 -0.51465975
  H -2.49200622 -1.22807027 -0.69038523
  H -1.01805801 -0.78284560 -1.54739931
  C -1.56789443  1.06485580  0.42448138
  H -1.23766479  1.70085665  1.24458175
  H -1.23980212  1.52101375 -0.50673912
  H -2.65383310  1.01523620  0.43407733
  H -1.31497699 -0.79030188  1.48478807
  H  0.86186090  0.32381787  1.50659291
  H  0.96812482 -1.27735146  0.73482453
  H  2.94135611 -0.54538412 -0.49429285
  H  2.72523931  0.91121661 -1.49969671
  H  2.82975942  1.05957231  0.27134259
