10
opt_min/./Reactant_9384_0_opt.xyz
  O  0.83145514 -0.73041306  1.74048537
  C  0.68090177 -0.30384803  0.62895235
  C -0.45850784 -0.68920105 -0.30244493
  C -1.27596820  0.49939294 -0.46518055
  C -1.92144725  1.50177282 -0.56288205
  H -2.50626493  2.36521158 -0.67307787
  H -1.04604117 -1.49862679  0.13489280
  H -0.05816210 -0.99587331 -1.27356445
  C  1.55797978  0.66862995  0.00172200
  N  2.23521495  1.39719402 -0.56356501
