12
opt_min/./Reactant_9750_0_opt.xyz
  O -1.07766200  2.35109700 -0.14307800
  C -0.46764988  1.34461187  0.05552489
  C -1.06361432 -0.00153626  0.39669147
  H -0.93192043 -0.14994324  1.47367162
  H -2.12849735  0.00735026  0.17162178
  C -0.31250868 -1.10337776 -0.35871632
  H -0.56936502 -1.08867036 -1.42601655
  H -0.57244064 -2.09057344  0.02942100
  N  1.11532067 -0.95545285 -0.25003451
  C  1.57857095  0.18552189 -0.04424515
  H  2.64678893  0.33214754  0.04478959
  O  0.89790747  1.36378405  0.02875270
