16
opt_min/./Reactant_10727_0_opt.xyz
  N  2.79264500 -0.26248400 -0.67998400
  C  1.76641371 -0.44985983  0.19266917
  O  1.90520527 -1.08737417  1.21154229
  C  0.47421618  0.21464809 -0.23513756
  C -0.64879499 -0.04781240  0.76016388
  C -1.97288193  0.52668555  0.26102070
  O -2.32571346 -0.06293825 -0.97967907
  H -3.18319623 -0.48781593 -0.90848263
  H -2.74658664  0.35422629  1.01596554
  H -1.87878416  1.60951765  0.10522912
  H -0.74823523 -1.12546924  0.89800030
  H -0.40123314  0.39260679  1.72780135
  H  0.64210654  1.28961349 -0.34194220
  H  0.18699240 -0.18491173 -1.21084630
  H  3.71359747 -0.58258289 -0.43072626
  H  2.72904606  0.40080636 -1.43259656
