16
opt_min/./Reactant_4898_0_opt.xyz
  C  1.95374700 -0.22676500  0.18337300
  C  0.76459094  0.73131769  0.30055290
  C -0.53280697  0.12160331 -0.20141280
  C -0.96090109 -1.16333031  0.48252324
  H -0.17039430 -1.90435958  0.42665386
  H -1.18590416 -0.96703996  1.52620468
  H -1.84124375 -1.56616610 -0.00571856
  C -1.57184315  0.99184485 -0.75682428
  H -2.61266900  0.69718528 -0.70994218
  H -1.39454965  2.05755358 -0.82207491
  O -0.76362916  0.19769933 -1.58400096
  H  0.96705155  1.63059371 -0.27902688
  H  0.61834318  1.03059193  1.34138539
  H  2.88531326  0.32766109  0.15245961
  H  1.87800539 -0.80727375 -0.72998034
  H  1.99419512 -0.90913326  1.02494243
