17
opt_min/./Reactant_10555_0_opt.xyz
  C  2.12656200 -0.77054500 -0.01431600
  C  0.70904929 -0.26413828 -0.00076553
  C  0.15060777  0.99459009 -0.68981548
  H  0.23995031  1.00528031 -1.77266872
  H  0.35862072  1.96436806 -0.24651938
  C -1.02402813  0.16986229 -0.13590698
  C -2.49446309  0.38641253 -0.34482843
  H -2.88584248  0.98899075  0.47158638
  H -2.66847335  0.89353601 -1.28990717
  H -3.00429040 -0.57361476 -0.35410984
  C -0.24179991  0.00172897  1.18087997
  H -0.50353608 -0.86980526  1.77401377
  H -0.07033742  0.88382671  1.79208677
  O -0.36179755 -1.03920491 -0.63675443
  H  2.76950631 -0.04971051 -0.51238429
  H  2.15861903 -1.71282768 -0.55443124
  H  2.47644849 -0.93021057  1.00254500
