18
opt_min/./Reactant_4105_0_opt.xyz
  C  2.14410700 -0.34002000  0.38736400
  C  1.40806156  0.68095804 -0.47585632
  O  0.08697340  0.91879158 -0.04744642
  C -0.87975185 -0.08149840 -0.35882823
  C -2.06520409  0.60423690 -1.03809536
  H -2.80174293 -0.12772311 -1.35831769
  H -1.71423456  1.16715222 -1.90231062
  H -2.51851723  1.30519720 -0.33932701
  C -1.33427177 -0.78748484  0.91687257
  H -0.53435083 -1.39430721  1.33999979
  H -2.19483388 -1.42139414  0.70964714
  H -1.60969704 -0.03855617  1.65718776
  H -0.42697680 -0.80300712 -1.05288990
  H  1.41412497  0.35341781 -1.52641365
  H  1.89635127  1.65917758 -0.40779061
  H  2.05836698 -0.06909768  1.43779103
  H  1.71239572 -1.33063425  0.24389144
  H  3.19399757 -0.38045497  0.10212310
