16
opt_min/./Reactant_5945_0_opt.xyz
  C -1.60099702 -0.24121211 -1.10964995
  C -0.24112725  0.10376345 -0.50943350
  C -0.28205800  1.47342039  0.15405064
  H -1.02945347  1.49319465  0.94583687
  H  0.68561616  1.71547576  0.58885728
  H -0.53953000  2.24753507 -0.56613907
  C  0.16620547 -0.97106376  0.50845619
  C  1.53338001 -0.80329432  0.95594413
  C  2.66608705 -0.66054851  1.31497869
  H  3.65888727 -0.53838215  1.62947731
  H -0.50157173 -0.93610649  1.37442933
  H  0.07331308 -1.96312658  0.05409783
  H  0.50256700  0.11430818 -1.31304506
  H -2.35786418 -0.33602787 -0.33439391
  H -1.56031270 -1.17775023 -1.66521091
  H -1.92038549  0.53250703 -1.80583399
