13
opt_min/./Reactant_2437_0_opt.xyz
  C  2.32483900 -0.15672000  0.21744700
  N  1.07740507 -0.87973643  0.12404237
  C  0.00065287 -0.26766346  0.02189383
  C -1.43298109 -0.70153284 -0.10779372
  H -1.82631526 -1.26454916  0.73056360
  H -1.65152149 -1.21268715 -1.03955531
  C -1.69941745  0.81311107 -0.09530436
  H -2.23337476  1.18249455  0.78137623
  H -2.12893319  1.24038150 -1.00044943
  O -0.29497384  1.08623902  0.00178405
  H  2.20453449  0.81816996  0.69656193
  H  3.01888899 -0.76904889  0.78638231
  H  2.72364698 -0.00247853 -0.78408826
