16
opt_min/./Reactant_10734_0_opt.xyz
  N  2.79264500 -0.26248400 -0.67998400
  C  1.76641372 -0.44985981  0.19266919
  O  1.90520528 -1.08737417  1.21154228
  C  0.47421618  0.21464811 -0.23513755
  C -0.64879499 -0.04781239  0.76016388
  C -1.97288192  0.52668554  0.26102070
  O -2.32571344 -0.06293824 -0.97967908
  H -3.18319622 -0.48781595 -0.90848265
  H -2.74658662  0.35422627  1.01596553
  H -1.87878416  1.60951764  0.10522913
  H -0.74823522 -1.12546924  0.89800030
  H -0.40123315  0.39260679  1.72780136
  H  0.64210655  1.28961352 -0.34194219
  H  0.18699241 -0.18491171 -1.21084629
  H  3.71359748 -0.58258288 -0.43072626
  H  2.72904606  0.40080634 -1.43259658
