9
opt_min/./Reactant_9225_0_opt.xyz
  N -0.89966998 -0.28048432 -1.56295193
  C  0.17241830 -0.26069328 -0.93399433
  O  0.39461878 -0.19622920  0.44432282
  C -0.39551807  0.51671484  1.25945909
  O -1.27845034  1.24697015  0.94615727
  H -0.05209101  0.32114841  2.29079269
  C  1.42261307 -0.36556928 -1.63978308
  N  2.41718844 -0.43977827 -2.19692811
  H -1.77471690 -0.21927587 -1.05245191
