16
opt_min/./Reactant_1103_0_opt.xyz
  C  2.66716700  0.20816300  0.22841900
  O  1.34541604  0.55834699  0.53665496
  C  0.40230524 -0.01484640 -0.34221825
  C -0.97746354  0.42826634  0.07848651
  H -0.98975178  1.44593608  0.43812755
  C -2.17907814 -0.04818857 -0.67563383
  H -2.98285891  0.65075398 -0.84719770
  H -2.04461615 -0.74440453 -1.48722033
  C -1.93973247 -0.52392254  0.72592101
  H -2.57755179 -0.15812462  1.51222797
  H -1.61746008 -1.54252415  0.86557286
  H  0.48201764 -1.11429270 -0.32307902
  H  0.61348298  0.31104560 -1.37649046
  H  2.94277153  0.53721155 -0.78130469
  H  2.82155087 -0.87464903  0.30186613
  H  3.30430456  0.71266630  0.95109294
