17
opt_min/./Reactant_10111_0_opt.xyz
  C -1.84948600  0.55643700  0.61556900
  C -1.02815905 -0.70809467  0.47200717
  H -1.40241143 -1.54001704  1.04806544
  C -0.39196944 -1.06572965 -0.84226004
  H -0.37774587 -2.10337836 -1.13119906
  H -0.51696373 -0.39040807 -1.67030993
  C  0.46846515 -0.64575882  0.31132118
  C  1.19656334  0.67665534  0.27855160
  C  2.63208487  0.55937021 -0.15619174
  O  3.41478656  1.46688083 -0.17411699
  H  2.94272664 -0.45138774 -0.48677045
  H  1.19187046  1.14292470  1.26525574
  H  0.71351444  1.36762995 -0.41118300
  H  1.04039101 -1.42318941  0.80170767
  H -2.22683452  0.88946695 -0.34542235
  H -2.70369160  0.37485759  1.25934922
  H -1.27812117  1.36590327  1.05860566
