15
opt_min/./Reactant_2505_0_opt.xyz
  C  1.68473300 -0.37402700  0.38132700
  N  0.60172314  0.13730854 -0.40857955
  C -0.27790502  1.13757313  0.20423849
  H -0.21233498  1.19941312  1.29380252
  H -0.15200510  2.12732146 -0.23838302
  C -1.50319775  0.34409015 -0.25211628
  O -2.36790192  0.04876738  0.81086552
  H -3.05171470 -0.56669867  0.52093497
  H -2.06659001  0.77313517 -1.09078993
  C -0.52091873 -0.76761616 -0.67339093
  H -0.56700942 -1.07854873 -1.71896137
  H -0.57271958 -1.64428967 -0.01640879
  H  1.38492387 -0.70664640  1.38965865
  H  2.13466789 -1.22098313 -0.14137316
  H  2.45042474  0.39868832  0.48238993
