16
opt_min/./Reactant_11770_0_opt.xyz
  C -0.84391600  1.26577100  0.60376500
  C -0.17471639  0.06603152 -0.03665777
  C -1.11671831 -0.71056670 -0.93625280
  H -1.93485709 -1.14930552 -0.36241964
  H -1.54677979 -0.04245886 -1.68145032
  H -0.59413460 -1.51022565 -1.45803746
  C  0.69742527 -0.81140961  0.89982188
  H  0.71224193 -0.49635210  1.94762511
  H  0.49009031 -1.88465184  0.84342226
  N  1.84349481 -0.39017067  0.13179343
  H  2.82012270 -0.62222687  0.24571422
  C  1.17215397  0.40931959 -0.72418415
  O  1.50993068  1.10176094 -1.64311169
  H -1.11420681  1.98389633 -0.16994191
  H -1.74462758  0.96881198  1.13861698
  H -0.16647477  1.76891505  1.29318239
