10
opt_min/./Reactant_1256_0_opt.xyz
  N  0.56368300 -0.99429800  0.02543000
  H  1.04967956 -1.86286944 -0.10367326
  C -0.78087604 -0.82794060 -0.05901718
  H -1.44763599 -1.63443774 -0.27642801
  C -1.06342168  0.48998310  0.17656651
  H -2.03949389  0.93350242  0.17899435
  C  0.16510924  1.14229083  0.41253075
  H  0.31703484  2.17928991  0.63053695
  C  1.14785824  0.19909369  0.31203395
  H  2.20777486  0.30504133  0.42541938
