16
opt_min/./Reactant_10360_0_opt.xyz
  C -0.83454800  1.27548300  0.39727700
  C -0.14645411 -0.03134040  0.03432323
  C -1.03556816 -0.92636954 -0.81472912
  H -1.83256779 -1.34595156 -0.20587316
  H -1.46927638 -0.35210700 -1.62617672
  H -0.45618114 -1.73800259 -1.24901987
  C  0.58708320 -0.73577536  1.20007906
  H  0.41707843 -1.80852378  1.28821095
  H  0.51405786 -0.26203927  2.17747182
  O  1.85856229 -0.46266322  0.58852636
  C  1.26569445  0.15609386 -0.48634262
  N  1.72526737  0.68112260 -1.51418495
  H  2.73819494  0.65811327 -1.58934722
  H -1.77723007  1.07079197  0.89874645
  H -1.02679486  1.84460213 -0.50812256
  H -0.21255045  1.88306795  1.04878063
