16
opt_min/./Reactant_5402_0_opt.xyz
  C  2.00536600  0.48995700  0.30888100
  C  0.96183098 -0.57124747  0.04134624
  H  1.31301079 -1.37306272 -0.60439294
  O  0.14336392 -1.00262687  1.09832012
  C -0.48684737 -0.30462239  0.04888899
  C -1.02761454  1.07197130  0.37099882
  H -0.33372669  1.63482870  0.98482295
  H -1.96303358  0.97541942  0.91459219
  H -1.21598275  1.62509824 -0.54448899
  C -1.41420784 -1.13760353 -0.81513921
  H -2.29331315 -1.41738082 -0.24211650
  H -0.91924162 -2.04254816 -1.14902013
  H -1.72742522 -0.56245281 -1.68309382
  H  2.99183598  0.04091928  0.34470336
  H  1.81811721  0.97882927  1.25844169
  H  1.99217405  1.23125347 -0.48531912
