16
opt_min/./Reactant_5426_0_opt.xyz
  C  0.32856800  1.54907200 -0.02519500
  C -0.14360911  0.11375844 -0.30204031
  C  0.95073755 -0.90999202  0.02341681
  O  2.03787642 -0.72176934 -0.86328945
  H  2.79527915 -1.20476988 -0.52158773
  H  0.54238263 -1.92217615 -0.08469449
  H  1.26813267 -0.77068546  1.06320535
  C -1.40298038 -0.22192149  0.50637250
  O -1.91078939 -1.50461007  0.25017066
  H -2.10401741 -1.58351267 -0.69120565
  H -1.17496384 -0.21648806  1.57467144
  H -2.16413279  0.54846849  0.31799050
  H -0.37378154  0.00726120 -1.36629829
  H  1.36805483  1.53994124  0.28834333
  H -0.26219728  2.00004935  0.76616990
  H  0.25626983  2.16356431 -0.91322429
