10
opt_min/./Reactant_1332_0_opt.xyz
  C -1.85513713 -0.54737548  0.12152393
  O -0.45525866 -0.55518379 -0.10178067
  C  0.22783382  0.47349331  0.41076367
  O -0.25474911  1.38216613  1.03420504
  C  1.63725156  0.35362166  0.12041834
  C  2.81270159  0.29781273 -0.10949277
  H  3.84783581  0.25413973 -0.29464520
  H -2.20645934 -1.55836739 -0.07219080
  H -2.34415218  0.15595759 -0.55651154
  H -2.07987570 -0.25537178  1.14997225
