13
opt_min/./Reactant_951_0_opt.xyz
  C -0.43788600 -1.02257000 -0.01095600
  H -0.65178553 -1.63011346 -0.88636212
  H -0.73022265 -1.59037123  0.86829180
  C -1.20932876  0.31343172 -0.08606255
  H -1.78058467  0.40207985 -1.01325426
  H -1.92169347  0.43242756  0.73443825
  C -0.14111695  1.36166658 -0.03198059
  H -0.37427115  2.41252244 -0.05474041
  C  1.07283598  0.84507246  0.03553627
  H  2.00039871  1.38871887  0.07721291
  C  1.05539391 -0.65505179  0.06924860
  H  1.52235884 -1.00369986  0.99503667
  H  1.64268952 -1.07200216 -0.75015289
