14
opt_min/./Reactant_11734_0_opt.xyz
  C  1.87719200  0.03804200  0.01838400
  C  0.38973338 -0.01877435 -0.06943814
  C -0.70277220  0.21646100  0.99931857
  H -0.65536298  0.41767771  2.05169201
  C -1.66110592 -0.60982223  0.16942459
  H -2.52378544 -1.18679887  0.44003871
  C -1.50731625  0.86440860 -0.08863684
  H -2.21063631  1.67444283 -0.10075004
  N -0.43526255  0.62947560 -1.11285050
  C -0.54848274 -0.82491914 -0.87213184
  H -0.34944083 -1.57689796 -1.61307864
  H  2.31700572 -0.47011752 -0.83614966
  H  2.19905138 -0.43829006  0.94161936
  H  2.21225493  1.07414330  0.01585518
