8
opt_min/./Reactant_5765_0_opt.xyz
  O  0.53065500  1.01393500  0.07783200
  C -0.76551411  0.63404328  0.02759937
  H -1.52090931  1.39066166  0.06356698
  C -0.80164826 -0.71953640 -0.06340845
  H -1.64110820 -1.37979016 -0.12358257
  N  0.48355461 -1.18788910 -0.06991821
  C  1.21763115 -0.13098677  0.01463798
  H  2.28897478 -0.10121829  0.03720080
