16
opt_min/./Reactant_1165_0_opt.xyz
  C  2.27449400  0.39045700 -1.10280500
  O  1.19103810  0.61759872 -0.24437359
  C  0.44530530 -0.54466022  0.01702035
  C -0.70201667 -0.21206975  0.97764782
  O -1.61538230  0.74414721  0.51535107
  C -2.40805319  0.33404966 -0.56884487
  H -1.83589153  0.24386578 -1.49918572
  H -2.90027571 -0.62562114 -0.36299060
  H -3.16446375  1.10272679 -0.69934219
  H -0.28837523  0.21951314  1.88994900
  H -1.21658389 -1.15461096  1.22713019
  H  1.08007272 -1.30739303  0.49357364
  H  0.05748217 -0.97652286 -0.92170535
  H  1.94593824  0.00686750 -2.07648152
  H  2.98336463 -0.32875278 -0.67242015
  H  2.77132082  1.34476569 -1.24623112
