19
opt_min/./Reactant_11870_0_opt.xyz
  C  2.42529100 -0.02426900 -0.30130300
  C  1.03412514 -0.28525364 -0.88563186
  C  0.02533092 -0.55498056  0.20783807
  H  0.17471651 -1.51832546  0.67897703
  C -0.40272563  0.55830642  1.14107326
  H -0.06426954  1.55957691  0.93567686
  H -0.47575908  0.33848717  2.19375928
  C -1.40190654 -0.06346897  0.20640494
  C -1.99612320  0.73640795 -0.93364335
  H -2.24977082  1.74060982 -0.61121998
  H -2.91050055  0.24587223 -1.25036905
  H -1.33029175  0.79155891 -1.78781573
  O -2.39033600 -0.90827222  0.72887954
  H -2.04462225 -1.36033567  1.50366330
  H  0.72447533  0.57648686 -1.47672857
  H  1.07292021 -1.14471008 -1.55473552
  H  3.19858057 -0.19754413 -1.04437414
  H  2.51729397  0.99849482  0.04539397
  H  2.61421078 -0.68064846  0.54180449
