10
opt_min/./Reactant_4374_0_opt.xyz
  N  2.14652000  0.19385500  0.02470100
  C  0.92857706 -0.04129518 -0.00217022
  C -0.29814420  0.81884746  0.09625297
  H -0.42513461  1.30774720  1.05669319
  H -0.41373020  1.54265105 -0.70367162
  C -1.03128668 -0.51758751 -0.06873267
  H -1.61567292 -0.85031420  0.79056824
  H -1.60609674 -0.64792245 -0.98678940
  O  0.22046499 -1.21879836 -0.14091340
  H  2.75333578 -0.61245938 -0.06866432
