10
opt_min/./Reactant_839_0_opt.xyz
  O -1.25574900  1.48163800  1.16256300
  C -0.60403271  0.68264708  0.54569132
  C -0.96020058 -0.71755124  0.06060863
  H -1.19313120 -1.36218330  0.91018649
  H -1.81913097 -0.71337102 -0.60967058
  N  0.21288554 -1.19948288 -0.62899388
  C  1.08645230 -0.28713720 -0.56313001
  H  2.06698633 -0.37088700 -0.99457939
  N  0.69448463  0.85119895  0.10971795
  H  1.24076393  1.68121295  0.26408596
