11
opt_min/./Reactant_2850_0_opt.xyz
  C -1.34771705 -0.26808993  0.06923418
  N -0.32756494  0.63233652  0.57150796
  C  0.88267798  0.65300320 -0.23704640
  C  1.58454185 -0.61736634 -0.23698043
  N  2.07298999 -1.64943320 -0.16716222
  H  0.60768734  0.91168236 -1.26670734
  H  1.55550259  1.42312358  0.16051913
  H -0.09335473  0.39367625  1.53253553
  H -1.62679645  0.05061348 -0.93651357
  H -1.03213102 -1.31986445  0.02633985
  H -2.22195832 -0.19182225  0.71647209
