15
opt_min/./Reactant_11301_0_opt.xyz
  O  2.60600183 -0.98966515  0.70581340
  C  1.88822461  0.19913447  0.90972193
  C  0.71766380  0.32237219 -0.07108478
  O -0.20329997 -0.69187044  0.27369791
  C -1.32399916 -0.76319464 -0.57919433
  C -2.19054572  0.40209586 -0.50382277
  C -2.88677231  1.37216661 -0.42688541
  H -3.49728699  2.22132780 -0.36010114
  H -1.87701100 -1.65006459 -0.25753265
  H -0.99603693 -0.90371232 -1.62435789
  H  1.08053298  0.17330132 -1.09856393
  H  0.25710415  1.31295301 -0.00071593
  H  1.48006802  0.24660614  1.92630243
  H  2.59409821  1.01250524  0.75731049
  H  1.97789618 -1.71557171  0.79746142
