14
opt_min/./Reactant_5331_0_opt.xyz
  O  1.88080900  0.44702600 -1.04857600
  C  1.59803266  0.27624497  0.32400136
  C  0.09591144  0.41019450  0.60138551
  C -0.72410941 -0.55850054 -0.22702744
  H -0.23141587 -1.49989795 -0.45221249
  C -2.18705685 -0.55217964 -0.15888421
  H -2.67528841  0.18434980  0.46644899
  H -2.73474051 -1.46748349 -0.33682290
  O -1.50035662 -0.04392561 -1.26575009
  H -0.07918459  0.21993341  1.66166319
  H -0.22520679  1.42605209  0.37073665
  H  1.93403414 -0.72754437  0.61757976
  H  2.13696222  1.00233007  0.94077191
  H  2.45116851  1.20517035 -1.18375061
