13
opt_min/./Reactant_11284_0_opt.xyz
  C -2.04284809  0.76086546  0.33393451
  C -0.93747572 -0.22606038  0.00830045
  O  0.31154840  0.42925669  0.20518590
  C  1.39597059 -0.27837843 -0.07806961
  N  1.33854358 -1.47425481 -0.49247414
  H  2.22905791 -1.92055018 -0.67640932
  C  2.63061827  0.44129328  0.12978448
  N  3.68064420  0.88330224  0.24197527
  H -0.99164374 -0.57185579 -1.03034354
  H -0.98093036 -1.10646775  0.66030647
  H -1.94333986  1.11064934  1.35816605
  H -3.00989120  0.28127266  0.21393781
  H -1.98807805  1.61901860 -0.33107500
