12
opt_min/./Reactant_1271_0_opt.xyz
  C  1.93580600 -0.17800400 -0.03554600
  C  0.44830301 -0.09900095 -0.02808754
  C -0.35602833  0.96545479  0.27401590
  H -0.11316258  1.96534883  0.56478825
  N -1.64379435  0.51798735  0.13274044
  H -2.48200142  1.05570947  0.28006307
  C -1.55941541 -0.78022573 -0.24283750
  H -2.41922941 -1.39270235 -0.42855249
  N -0.32430781 -1.17712884 -0.34601704
  H  2.35550251  0.58699282 -0.68700639
  H  2.24224904 -1.15671675 -0.38986145
  H  2.33264223 -0.02538882  0.96718771
