17
opt_min/./Reactant_9553_0_opt.xyz
  C  2.53083000  0.23034900  0.38030200
  O  1.18097562  0.57089487  0.56291019
  C  0.45686351  0.64724374 -0.62465471
  H  0.99465651  1.16093080 -1.42190571
  C -0.47643700 -0.44576886 -1.08374294
  H -0.46790138 -0.80866107 -2.09734159
  C -1.04485971 -1.17144760  0.12826547
  H -0.30535281 -1.67555778  0.74822109
  H -1.84191353 -1.86600652 -0.12302759
  C -1.56047228  0.17620710  0.67430609
  H -1.11225163  0.48570413  1.61450434
  H -2.64415935  0.23408043  0.74165877
  C -1.00980389  0.88263571 -0.56319644
  H -1.53155970  1.66593191 -1.08554414
  H  3.02986251  0.93586642 -0.29686067
  H  2.64398862 -0.78088889 -0.03029513
  H  3.00124064  0.27606665  1.36049134
