17
opt_min/./Reactant_6660_0_opt.xyz
  C  1.98443600 -0.69967800  0.89994500
  O  0.95415162 -0.48358680 -0.03158773
  C  0.10704298  0.60261161  0.25342338
  H  0.43117367  1.11233006  1.16357032
  C -0.17790456  1.52098050 -0.94537707
  H  0.37118163  1.28437237 -1.85939214
  H -0.05758075  2.58926644 -0.71059726
  O -1.54773901  1.14998922 -0.97393754
  C -1.41667913  0.30450183  0.17339201
  C -1.81175450 -1.14479385 -0.05987867
  H -2.87243551 -1.27781234  0.14054363
  H -1.25536221 -1.78552534  0.61898597
  H -1.59444628 -1.43072274 -1.08074171
  H -1.97311287  0.72302315  1.02716235
  H  2.65793713  0.15960937  0.96708041
  H  2.53004196 -1.57301194  0.55102704
  H  1.58015272 -0.91622256  1.89851423
