13
opt_min/./Reactant_53_0_opt.xyz
  C -1.47371500 -1.10368301 -0.31832698
  O -1.30574538  0.28855073 -0.21192790
  C  0.01437643  0.73004225 -0.37144519
  C  0.93620376  0.40168194  0.82131251
  C  2.24897992  0.94324336  0.60406712
  N  3.29761872  1.36168251  0.42107407
  H  0.52281970  0.82604982  1.73977143
  H  1.03707107 -0.67837440  0.95120900
  H  0.45281687  0.31275361 -1.29060174
  H -0.06155501  1.81338250 -0.48182944
  H -1.00291259 -1.64305416  0.51173794
  H -2.54303938 -1.28324596 -0.29103581
  H -1.06767100 -1.48227409 -1.26234125
