14
opt_min/./Reactant_6933_0_opt.xyz
  N  2.42529100 -0.67612000  0.02757900
  C  1.10364566 -0.22760394  0.03373721
  C -0.05986493 -0.89805066 -0.26253606
  H -0.14449013 -1.91571957 -0.59024098
  C -1.13343604 -0.00868814 -0.01244763
  N -2.50068493 -0.31214399 -0.11475327
  H -2.64573117 -1.17781207 -0.62052845
  H -3.03834181  0.43115476 -0.54151489
  C -0.59029315  1.17614441  0.40850932
  H -1.05647812  2.09641828  0.69172432
  N  0.77853493  1.03197929  0.41694648
  H  1.42629739  1.71655273  0.76415237
  H  3.08577200  0.03261360 -0.26176793
  H  2.52907477 -1.52160838 -0.51224109
