7
opt_min/./Reactant_2472_0_opt.xyz
  O  2.20764500 -0.53516200  0.02301400
  C  1.08532680 -0.17578773  0.00502019
  O -0.03198207 -0.97154232  0.07036519
  C -1.07060000 -0.11599809  0.01594914
  H -2.07211017 -0.49411327  0.05032861
  N -0.72764031  1.10272279 -0.07445995
  O  0.64266941  1.10833808 -0.08456455
