11
opt_min/./Reactant_2840_0_opt.xyz
  C -1.72545200 -0.02311300  0.14956900
  C -0.25446631 -0.21948007  0.08876859
  N  0.30373704 -1.36612233  0.36613321
  O  1.64444192 -1.21860911  0.21820196
  C  1.90041301  0.03566221 -0.15538754
  H  2.92102795  0.31922131 -0.31597737
  C  0.74003893  0.73775225 -0.26198051
  H  0.59912671  1.75954948 -0.53899986
  H -2.09608621 -0.28725130  1.13727674
  H -2.21811877 -0.67276429 -0.57039818
  H -1.97989059  1.01064789 -0.06568236
