14
opt_min/./Reactant_10222_0_opt.xyz
  C -1.67994706  0.56219123  0.47312653
  C -0.91672835 -0.63999495 -0.07795768
  N  0.31106758 -0.24328888 -0.72776488
  C  1.48750086 -0.20045066 -0.06150112
  N  1.60515169 -0.61784665  1.13817002
  H  2.55212592 -0.56906495  1.50420206
  C  2.60191770  0.32184632 -0.81518598
  N  3.56436937  0.72695871 -1.28831123
  H  0.24598071  0.18470006 -1.63897324
  H -1.53196533 -1.18623764 -0.79920984
  H -0.63544557 -1.30202005  0.74363891
  H -2.60656191  0.23028907  0.93657869
  H -1.07002713  1.06454096  1.22274839
  H -1.92070155  1.26999692 -0.31986160
