14
opt_min/./Reactant_10170_0_opt.xyz
  N  2.38356900  0.57526100 -0.03216200
  C  1.93809516 -0.62824466 -0.45108448
  O  2.59763962 -1.39239705 -1.11432983
  C  0.52701548 -0.94954501  0.04701232
  C -0.45854284  0.10988339 -0.39260952
  H -0.57959956  0.19776030 -1.47003625
  C -1.57182375  0.52288521  0.46375728
  H -1.69150362  0.07738434  1.44422367
  H -2.48340352  0.89941134  0.01343255
  O -0.44142215  1.33162121  0.29487116
  H  0.23134704 -1.91978843 -0.35294853
  H  0.54847322 -0.99957986  1.13691577
  H  1.74839532  1.23862467  0.38183945
  H  3.27057073  0.90324240 -0.37851862
