11
opt_min/./Reactant_3025_0_opt.xyz
  C  1.17750700 -0.38211700 -0.14965400
  C -0.03210023  0.41207229  0.38432711
  O -0.16206561  1.66128589 -0.22930958
  H -0.88240580  1.59106307 -0.87724243
  C -1.27118064 -0.42058130  0.16199191
  O -2.15746574 -0.06846841 -0.56802406
  H -1.29414903 -1.39788168  0.67673520
  H  0.10922925  0.58302087  1.45887536
  H  1.01667328 -0.66259858 -1.18680474
  H  2.05459506  0.24968601 -0.09252692
  H  1.33262605 -1.27838254  0.44085820
