16
opt_min/./Reactant_5462_0_opt.xyz
  O  2.58738500  0.35846300  0.85410000
  C  1.28959356 -0.15448816  0.63635211
  C  0.70624281  0.30506206 -0.70342544
  C -0.62181796 -0.35717704 -1.06038285
  C -1.79336884  0.04092973 -0.15807902
  O -1.62208201 -0.48728303  1.14092637
  H -2.44363377 -0.39701708  1.63019177
  H -2.71721561 -0.34634310 -0.60365592
  H -1.87250434  1.13631809 -0.12009719
  H -0.89294564 -0.06699580 -2.07454809
  H -0.51168196 -1.44155779 -1.03749882
  H  1.43813031  0.06901447 -1.47778162
  H  0.57696451  1.38936631 -0.69356936
  H  1.40857776 -1.23688111  0.63363019
  H  0.62200215  0.11247181  1.45833337
  H  2.53398041  1.31829486  0.87996503
