16
opt_min/./Reactant_2082_0_opt.xyz
  C -1.45070700  1.05285500 -0.21412200
  C -0.34075757 -0.00148341 -0.36563163
  C -0.71401654 -1.34500915  0.26931451
  H -0.27098649 -2.16529299 -0.28677955
  H -1.79058963 -1.48735830  0.28249069
  H -0.35337376 -1.40485772  1.29360125
  C  0.97019552  0.51332304  0.23359425
  C  2.14993580 -0.35877257 -0.06353787
  O  2.17201181 -1.28800699 -0.81943086
  H  3.07568591 -0.03761895  0.46256442
  H  0.88046590  0.62894409  1.31799242
  H  1.21235877  1.50114970 -0.17216444
  H -0.15495958 -0.17160316 -1.42919000
  H -2.26353673  0.68464769  0.40514262
  H -1.07563404  1.96156005  0.25008051
  H -1.86625222  1.32260517 -1.18031936
