10
opt_min/./Reactant_4764_0_opt.xyz
  O -2.63127900  0.47552400 -0.72304100
  C -1.69597933  0.38796090  0.01531357
  C -0.31392847 -0.03002561 -0.41504324
  O  0.56743054  0.00472602  0.70395163
  C  1.82672630 -0.33130297  0.46986767
  O  2.28837971 -0.66102017 -0.57917529
  H  2.39848150 -0.26375502  1.41020817
  H -0.34743005 -1.04101898 -0.84178353
  H  0.04955920  0.63841035 -1.20661896
  H -1.75823292  0.66163152  1.08391307
