12
opt_min/./Reactant_1930_0_opt.xyz
  O -1.66941300  1.04550400 -0.44380800
  C -1.19746490 -0.27474549 -0.44704326
  C  0.12585204 -0.43055715  0.30631444
  O  1.15033514  0.27847798 -0.39914406
  C  2.34669212  0.25982727  0.14957616
  O  2.66849073 -0.28130780  1.16603833
  H  3.03848221  0.84100560 -0.48739531
  H  0.05143533 -0.02873180  1.32273825
  H  0.40755800 -1.48677804  0.37472752
  H -1.92207497 -0.96446844  0.00075975
  H -1.04927719 -0.54502120 -1.49390593
  H -2.14908114  1.22690109  0.37107988
