18
opt_min/./Reactant_2997_0_opt.xyz
  C -0.97436800  1.14192500 -0.16691700
  C -0.44812990 -0.26661148 -0.43735549
  C -1.45186993 -1.30461466  0.05561837
  H -1.58704756 -1.21279182  1.12938403
  H -2.41242035 -1.16406534 -0.43177957
  H -1.10344398 -2.31051647 -0.15501864
  C  0.92929542 -0.51576655  0.21646743
  C  2.02587181  0.36102679 -0.38682660
  H  2.99000808  0.09334192  0.03405762
  H  1.84567614  1.41161552 -0.16493191
  H  2.06224120  0.23350150 -1.46414869
  O  0.88372119 -0.38226637  1.62080120
  H  0.77920240  0.55386094  1.82428829
  H  1.18982763 -1.56922995  0.05695800
  H -0.31460161 -0.39233178 -1.51597958
  H -1.08789095  1.31424278  0.90065681
  H -1.95021525  1.25895026 -0.63192436
  H -0.31431706  1.90090112 -0.57678526
