16
opt_min/./Reactant_494_0_opt.xyz
  C  1.85614500  0.61490600 -0.93612200
  C  1.00146974 -0.54190435 -0.43163992
  H  1.64357068 -1.43344468 -0.33754670
  C  0.12616190 -0.28959359  0.80339738
  H  0.28374375 -0.95957658  1.64190741
  H  0.11168699  0.73720541  1.15632143
  C -1.03860034 -0.66274322 -0.13497022
  C -2.11871253  0.39207167 -0.33935944
  H -1.79386866  1.13177737 -1.06098988
  H -2.34649964  0.87107053  0.60861136
  H -3.03419884 -0.06756784 -0.70572041
  H -1.49501805 -1.63023106  0.12411629
  O -0.14208206 -0.81993689 -1.23994111
  H  2.77263648  0.66238655 -0.35790591
  H  2.11369333  0.42862604 -1.97737246
  H  1.31307944  1.55160468 -0.88155266
