11
opt_min/./Reactant_8696_0_opt.xyz
  O  2.25998600 -1.36126400 -0.33182800
  C  1.82221251 -0.23926953 -0.21511818
  C  0.43064410  0.08334480 -0.04230965
  C -0.23987760  1.28861930  0.10537112
  H  0.17336086  2.27684659  0.12056873
  N -1.55995525  1.07761830  0.23755945
  C -1.72395439 -0.22355886  0.17575275
  H -2.67531056 -0.71190875  0.25038342
  N -0.56134615 -0.87112319  0.00820155
  H -0.40843917 -1.86431239 -0.06954962
  H  2.48138951  0.64958061 -0.23279337
