14
opt_min/./Reactant_11212_0_opt.xyz
  N  3.11734100 -0.14979998  0.02630399
  C  2.00925017 -0.03067909  0.28057112
  C  0.61181277  0.11184688  0.58721351
  H  0.52663525  0.42044782  1.63688208
  C -0.08061209  1.17076976 -0.30230177
  H  0.41767557  1.25699705 -1.27255898
  H -0.07585053  2.15833232  0.15899153
  C -1.45535842  0.60180942 -0.48468126
  H -2.26080797  1.18673495 -0.89743197
  C -1.51876787 -0.66728893 -0.12283016
  H -2.37698817 -1.31294071 -0.18409077
  C -0.20134001 -1.18189392  0.37614053
  H -0.29171356 -1.75914322  1.29867615
  H  0.25822085 -1.84002235 -0.37025737
