14
opt_min/./Reactant_4021_0_opt.xyz
  C -0.52073900  1.35987700 -0.00390100
  C -0.00497800 -0.01925983  0.40692716
  C  1.48443137 -0.15323689  0.09106543
  H  1.65790348  0.00449686 -0.97269312
  H  2.06346723  0.58186539  0.64476186
  H  1.84153224 -1.14863132  0.34529198
  C -0.80313725 -1.11454128 -0.29839562
  H -0.69948825 -1.01445136 -1.37847332
  H -0.43592337 -2.10091256 -0.02007997
  H -1.85805845 -1.05077818 -0.04479680
  H -0.14387376 -0.12471793  1.48907245
  H  0.03381449  2.14650519  0.50259158
  H -1.57297880  1.45648025  0.25947205
  H -0.42282974  1.50057201 -1.07809245
