19
opt_min/./Reactant_9702_0_opt.xyz
  C  1.59727000  0.11322900  0.93068500
  C  1.21150660  0.73776727 -0.38649732
  H  1.97593774  1.41347567 -0.75177641
  C  0.44754600  0.00693655 -1.45986942
  H  0.76324746  0.11667884 -2.48458580
  C -0.24438715 -1.28426963 -1.07611546
  H  0.46511798 -1.98610561 -0.63601847
  H -0.65819063 -1.76510622 -1.96114171
  C -1.35411701 -0.91311702 -0.06726061
  H -1.20166755 -1.43179747  0.87860331
  H -2.32543474 -1.23109260 -0.44232502
  C -1.33682853  0.61860607  0.12586694
  H -2.26920707  1.05987979 -0.22709471
  H -1.22933775  0.89000541  1.17588308
  C -0.19668764  1.14525265 -0.71731897
  H -0.35007469  2.10411775 -1.18986549
  H  1.76061603  0.89304452  1.67034279
  H  2.52340780 -0.44799657  0.82377481
  H  0.83297002 -0.55594960  1.30505311
