13
opt_min/./Reactant_3373_0_opt.xyz
  C  2.44868300  0.21956700  0.12846100
  O  1.17845875 -0.06980590 -0.45338374
  C  0.08981321  0.08101274  0.31793879
  O  0.10744045  0.45803732  1.45544425
  C -1.15130666 -0.27616403 -0.48891954
  N -2.31208783 -0.33085262  0.36704695
  H -3.14477692 -0.56202463 -0.16458970
  H -2.45692677  0.55369283  0.84323157
  H -1.20576665  0.46169818 -1.31111562
  H -0.99015400 -1.25903893 -0.93998961
  H  2.30847901  0.75320138  1.07079240
  H  2.97515942 -0.71965887  0.30908399
  H  3.00533243  0.82896319 -0.58310234
