17
opt_min/./Reactant_11261_0_opt.xyz
  C  1.99233100 -0.10279300 -0.08842500
  C  0.82848054 -0.24755064  0.85264524
  O  0.96899852 -0.54989202  2.01452553
  C -0.58133918 -0.02520531  0.29746139
  C -0.71163467  1.39564303 -0.28035385
  H -0.26378743  1.46492995 -1.26449441
  H -1.76816289  1.62682528 -0.36157812
  H -0.25091551  2.12748847  0.37707336
  C -0.86416721 -1.08055903 -0.78856142
  H -0.12644765 -1.04115894 -1.58195282
  H -1.85029745 -0.90013498 -1.20058016
  H -0.85854360 -2.07111735 -0.34381172
  O -1.50914159 -0.18064422  1.34419486
  H -1.01326635 -0.39573280  2.15025099
  H  2.83023085  0.32340043  0.45272537
  H  2.28381198 -1.09700509 -0.41993004
  H  1.75639079  0.50066823 -0.95544951
