17
opt_min/./Reactant_10177_0_opt.xyz
  C  1.97441298  0.63028491  0.41773024
  C  1.05987814  0.05638348 -0.67229936
  C -0.37107593 -0.12415305 -0.18934818
  C -0.97757035  1.06785029  0.32307637
  C -1.48629912  2.06683667  0.74596443
  H -1.92566132  2.94826747  1.10823041
  C -0.77085586 -1.43858499  0.43204210
  H -0.00758639 -2.19733202  0.52455352
  H -1.47400594 -1.42928656  1.25132013
  C -1.26465310 -1.08431862 -0.93514455
  H -2.30684677 -0.82160732 -1.04385672
  H -0.85804732 -1.59877402 -1.79269633
  H  1.43634622 -0.91389094 -0.99957381
  H  1.05326885  0.71942791 -1.54098539
  H  2.56008820 -0.15375375  0.89137455
  H  1.38543926  1.12506603  1.18660627
  H  2.66308555  1.36146105  0.00235976
