13
opt_min/./Reactant_9684_0_opt.xyz
  C  2.18602200 -0.15602400 -0.09610400
  C  0.70969485 -0.31224946 -0.13868919
  N  0.05510463 -1.25743088 -0.74831963
  C -1.27161480 -1.00637385 -0.55447985
  H -2.02597618 -1.65180999 -0.95484722
  C -1.42083220  0.11932540  0.19395655
  O -2.51798247  0.74629560  0.69440196
  H -2.53021676  1.67209513  0.41536248
  N -0.14252699  0.57023128  0.46173187
  H  0.10426138  1.37180541  1.02236561
  H  2.52080843  0.59654223 -0.80968913
  H  2.64212667 -1.10579036 -0.36272219
  H  2.51580102  0.13362370  0.90049564
