15
opt_min/./Reactant_8199_0_opt.xyz
  O -2.02345217  1.23537198  0.39111665
  C -1.85082635 -0.04617825 -0.16879126
  C -0.55069958 -0.71697272  0.26719008
  C  0.64037493  0.24898101  0.18217434
  O  0.64367017  1.01197716  1.38366669
  H  1.37073200  1.64153742  1.35780396
  C  1.89522183 -0.47769898  0.01751723
  C  2.96125371 -1.01796941 -0.04163522
  H  3.88070981 -1.51564449 -0.13005893
  H  0.51109034  0.92146558 -0.68420622
  H -0.37519229 -1.60272764 -0.34322668
  H -0.62877319 -1.02210571  1.31450346
  H -2.69249100 -0.69921559  0.11445803
  H -1.87275123  0.08451389 -1.25800150
  H -1.47619964  1.29230236  1.18489222
