10
opt_min/./Reactant_4555_0_opt.xyz
  C  1.78348100  0.37688100  1.17920900
  C  0.54348319  0.12360629  0.47590416
  C -0.47926672 -0.09478364 -0.10734792
  C -1.71129318 -0.36602125 -0.81573261
  H -1.98353266 -1.41212078 -0.67620767
  H -1.59127875 -0.17897454 -1.88071952
  H -2.50624516  0.26377194 -0.42244601
  H  1.66001653  0.14121634  2.23530079
  H  2.05017989  1.42806965  1.09997779
  H  2.57221262 -0.23998954  0.75679857
