10
opt_min/./Reactant_4299_0_opt.xyz
  O  2.20852900 -0.34664800 -0.41819600
  C  0.88347124 -0.33278086 -0.21295475
  N  0.11800567 -1.36082076  0.00730401
  C -1.14237225 -0.85112434  0.15305781
  H -1.95875581 -1.51571813  0.34155652
  C -1.11629011  0.50018091  0.02776731
  H -1.87086247  1.25993312  0.08322529
  N  0.19896368  0.83389606 -0.20999083
  H  0.58783609  1.74524700 -0.38463432
  H  2.50663542 -1.26346481 -0.35276285
