8
opt_min/./Reactant_5130_0_opt.xyz
  O  2.56649697 -0.47593433 -0.97209673
  C  1.97227685 -0.12975657  0.00912931
  C  0.54213976 -0.03743821  0.11820772
  C -0.65974465  0.04441735  0.21046305
  C -2.09161849  0.13682701  0.29883772
  O -2.84991560 -0.07261594 -0.60520866
  H -2.43546310  0.42316095  1.31267951
  H  2.48755590  0.16933928  0.94397455
