15
opt_min/./Reactant_6070_0_opt.xyz
  C  2.22832600  0.08344400  0.09118200
  C  0.87994939  0.23343034 -0.59910609
  C -0.27515890 -0.08697101  0.34396980
  C -1.62221145  0.10818104 -0.32887821
  O -1.77185711  0.44700940 -1.47873545
  N -2.67690236 -0.11948238  0.49614124
  H -3.60844091 -0.06597831  0.11717593
  H -2.56256489 -0.48831198  1.42342501
  H -0.20415587 -1.12322822  0.68621378
  H -0.23413876  0.55865455  1.22562758
  H  0.82747158 -0.43316323 -1.46162544
  H  0.76132769  1.25355883 -0.96744315
  H  2.36483359 -0.93474462  0.45201479
  H  3.03518158  0.31175317 -0.60087984
  H  2.30295425  0.76058796  0.94043172
