19
opt_min/./Reactant_6741_0_opt.xyz
  C  1.15202800 -1.31359700 -0.48865400
  C  0.61577480 -0.16749487  0.35731622
  H  0.88153630 -0.36407514  1.40106518
  C  1.17580901  1.18895077 -0.09820935
  H  1.90805117  1.59280891  0.59887375
  H  1.64893697  1.08723191 -1.07596825
  C -0.06473752  2.08291756 -0.19225930
  H -0.00843604  2.82180551 -0.99380115
  H -0.23555004  2.60581208  0.76277864
  O -1.13179331  1.21832334 -0.48000952
  C -0.93219763  0.04319378  0.28502388
  C -1.74821705 -1.07718382 -0.34172235
  H -2.79417265 -0.78516435 -0.34406836
  H -1.62860755 -1.99713312  0.22536254
  H -1.42937401 -1.23950833 -1.36705385
  H -1.29232001  0.22013884  1.31239244
  H  0.92250392 -1.15971904 -1.54182198
  H  2.23076869 -1.38100585 -0.36928844
  H  0.71191255 -2.25801261 -0.17568518
