18
opt_min/./Reactant_9235_0_opt.xyz
  C -2.54445600 -0.68967600 -0.81293700
  O -1.14078816 -0.68166106 -0.79257597
  C -0.55415400 -0.00068913  0.28997783
  H -1.30702791  0.26293195  1.03249809
  C  0.38996235  1.15433470 -0.10337494
  H  0.12284097  2.14735008  0.25723663
  H  0.57421717  1.18375505 -1.17699046
  N  1.45510608  0.54724224  0.70677945
  C  2.75140698  0.44252046  0.08551653
  H  3.10540934  1.44738079 -0.13934715
  H  2.72506700 -0.12711479 -0.85860750
  H  3.44100798 -0.03607404  0.77374103
  C  0.68909121 -0.69519067  0.87211529
  H  1.03276547 -1.52201768  0.24851562
  H  0.62783813 -1.01172794  1.91263714
  H -2.95851061 -1.17159237  0.07852745
  H -2.82340097 -1.25746325 -1.69885858
  H -2.95968367  0.32144803 -0.89079882
