15
opt_min/./Reactant_1353_0_opt.xyz
  C -1.18856400  0.94470600  0.56058200
  C -0.32214760 -0.21884726  0.08440035
  C -0.76043109 -0.71557718 -1.30013380
  H -0.05053508 -0.39539891 -2.06310878
  H -1.74121174 -0.32257693 -1.55446399
  H -0.80685818 -1.80217289 -1.32775935
  N  1.07483977  0.19105213  0.06198103
  C  2.01866609 -0.37320505  0.83660596
  O  1.83679340 -1.28015589  1.60878809
  H  3.01356242  0.09568603  0.67430002
  H  1.30803761  0.96259402 -0.54608710
  H -0.35988011 -1.03181661  0.81646938
  H -1.18550551  1.74659076 -0.17780911
  H -0.81245416  1.33237247  1.50612339
  H -2.21498713  0.61015765  0.70526478
