9
opt_min/./Reactant_400_0_opt.xyz
  O  2.30809900 -0.19920900 -0.29386900
  C  0.99015083 -0.12909974 -0.18098525
  N  0.20264119 -1.16521031  0.01584762
  N -1.02382545 -0.60973197  0.07299126
  H -1.81492236 -1.21761046  0.21913577
  C -0.92855673  0.71614785 -0.11558028
  H -1.76510131  1.38634231 -0.12350751
  N  0.32819296  1.05299176 -0.25521895
  H  2.63660439  0.70053857 -0.43047447
