10
opt_min/./Reactant_1689_0_opt.xyz
  N  2.19705500 -0.06916500  0.14843700
  C  0.93987686  0.28580669 -0.19855700
  O  0.63202005  1.19116722 -0.90772411
  O  0.06006403 -0.64653840  0.33416420
  C -1.26757787 -0.40685019  0.38357056
  N -1.75593972  0.73940386  0.36232835
  H -2.76748737  0.78777143  0.39868446
  H -1.78415973 -1.37627595  0.46451968
  H  2.96406238  0.53784159 -0.08291676
  H  2.33699110 -0.75084041  0.87497054
