14
opt_min/./Reactant_10159_0_opt.xyz
  N  2.38356900  0.57526100 -0.03216200
  C  1.93809514 -0.62824466 -0.45108448
  O  2.59763956 -1.39239703 -1.11432988
  C  0.52701547 -0.94954499  0.04701234
  C -0.45854285  0.10988340 -0.39260952
  H -0.57959958  0.19776027 -1.47003626
  C -1.57182378  0.52288521  0.46375728
  H -1.69150365  0.07738433  1.44422366
  H -2.48340357  0.89941131  0.01343253
  O -0.44142220  1.33162122  0.29487115
  H  0.23134704 -1.91978843 -0.35294850
  H  0.54847321 -0.99957982  1.13691579
  H  1.74839535  1.23862466  0.38183951
  H  3.27057071  0.90324240 -0.37851865
