14
opt_min/./Reactant_3613_0_opt.xyz
  C -1.27236595  0.45887898  1.32935005
  C  0.04085845  0.39215114  0.54815893
  O  1.06247635 -0.21370633  1.30021464
  H  0.80406744 -1.12410685  1.49032271
  C -0.19135606 -0.33603030 -0.79681095
  C  1.00617021 -0.36303375 -1.60945989
  C  2.00620466 -0.38886477 -2.26487497
  H  2.88107526 -0.40381005 -2.84393064
  H -0.50821803 -1.36444737 -0.58667892
  H -0.99250896  0.16848957 -1.34303148
  H  0.40581254  1.40529665  0.34776654
  H -1.65347279 -0.54523081  1.52100254
  H -2.02143220  1.00809332  0.76380583
  H -1.11904121  0.95510407  2.28555052
