14
opt_min/./Reactant_5380_0_opt.xyz
  C -0.91810000  1.50667500 -0.18324100
  N -0.25130509  0.24976093  0.04707153
  C -0.95019237 -0.95746295 -0.31264868
  H -0.74995419 -1.26050982 -1.34860506
  H -2.02258904 -0.78548209 -0.21407869
  H -0.67540763 -1.77013981  0.35920550
  C  1.04545239  0.26326209  0.46475111
  O  1.61129354  1.28040013  0.81701146
  N  1.66717148 -0.97055333  0.53833218
  H  1.45710320 -1.65391073 -0.17076585
  H  2.64740813 -0.89834880  0.76523490
  H -0.35886153  2.28735425  0.32908257
  H -0.95801067  1.74334447 -1.25223155
  H -1.93432151  1.47054143  0.21256583
