11
opt_min/./Reactant_4208_0_opt.xyz
  O  2.20296500  0.40323500 -0.31186200
  C  0.85709299  0.25430680 -0.13577267
  C -0.13831100  1.17998782  0.01216684
  H -0.01283638  2.24210385  0.04300669
  C -1.35032686  0.46068240  0.10970896
  H -2.32776921  0.88031131  0.23636014
  C -1.05238254 -0.86757100  0.00968196
  H -1.70125862 -1.71920984  0.03179534
  N  0.29690303 -0.99188573 -0.13202933
  H  0.80102580 -1.85403446 -0.26096230
  H  2.66579736  0.32286645  0.53138261
