15
opt_min/./Reactant_10437_0_opt.xyz
  N  2.79665200  0.12325700 -0.19300100
  C  1.61534552 -0.47296957  0.14567566
  O  1.51810394 -1.66716192  0.27409198
  C  0.45327796  0.50887427  0.24463717
  N -0.74370464 -0.16428576  0.66216540
  C -2.00484533  0.47926834  0.40078522
  H -2.01405871  1.42250667 -0.14110352
  H -2.73208791  0.41324206  1.19901710
  C -1.60463243 -0.74023572 -0.33383317
  H -2.03655893 -1.69635575 -0.07411410
  H -1.32753574 -0.63771698 -1.37922745
  H  0.69198703  1.27650004  0.99062814
  H  0.35868433  1.00145185 -0.74340627
  H  3.63056145 -0.43992932 -0.11220657
  H  2.91667267  1.11807510 -0.08944499
