17
opt_min/./Reactant_10464_0_opt.xyz
  C -1.86851956  0.26474876 -0.66650901
  C -0.75233868  0.59019003  0.33787881
  C  0.63379487  0.02012723 -0.05141820
  C  0.62761562 -1.52040349 -0.04026785
  H -0.27831206 -1.91373177 -0.48885504
  H  0.69323992 -1.88694910  0.97731549
  H  1.48908617 -1.88785682 -0.59259836
  O  1.06007046  0.52275600 -1.30925632
  H  0.48369608  0.16193367 -1.98889563
  C  1.60176592  0.48809941  0.93783935
  C  2.39980163  0.86365833  1.74538117
  H  3.08918892  1.19146373  2.46050127
  H -1.00058304  0.20425515  1.32584919
  H -0.63981257  1.67027593  0.42877727
  H -2.26291924  1.16910030 -1.11831481
  H -2.69065774 -0.24846423 -0.18063737
  H -1.51688109 -0.37192682 -1.47407756
