9
opt_min/./Reactant_4294_0_opt.xyz
  N -1.38275900 -0.31793800  0.58907900
  C -0.28272554  0.45782857  0.38954014
  C  0.88024336 -0.30005290 -0.09521221
  N  1.98683191  0.25936588 -0.33614197
  N  2.97865048  0.75009208 -0.53753367
  H  0.80526137 -1.35753696 -0.27752434
  O -0.28486231  1.65297900  0.58911341
  H -2.21806360  0.13166080  0.92174581
  H -1.38610171 -1.31276106  0.46142494
