12
opt_min/./Reactant_7885_0_opt.xyz
  O -0.54951200 -2.09165300  0.98561100
  C -0.30709493 -1.03969098  0.48930692
  C -0.24418876 -0.43912168 -0.91524692
  H -0.57939785 -0.94281931 -1.81684531
  N -1.08592038  0.65114819 -0.32377421
  H -2.04550768  0.34716012 -0.17514938
  C -0.25284970  0.42960748  0.90364584
  H -0.59523633  0.81627247  1.85857497
  C  1.11255179  0.78957803  0.36067368
  H  1.85651169  1.36550868  0.86970058
  C  1.11764775  0.21354618 -0.84296440
  H  1.86929791  0.16901501 -1.60326884
