8
opt_min/./Reactant_1172_0_opt.xyz
  N -0.85954700 -0.65365200 -0.64392200
  C -0.47364465  0.30014577  0.22165866
  O -1.20917493  1.08139128  0.78204146
  C  1.03929122  0.31835393  0.41476335
  O  1.77940647 -0.45265956 -0.13302849
  H  1.40524380  1.10312959  1.09765208
  H -1.83494430 -0.77784033 -0.85724305
  H -0.16230721 -1.23865111 -1.07568035
