15
opt_min/./Reactant_8656_0_opt.xyz
  C  2.05133400 -0.28859100  0.32328400
  C  1.01562713  0.53215206 -0.41475638
  H  1.21910027  1.59911388 -0.50349610
  O  0.35784914 -0.04253660 -1.50949247
  C -0.40251342  0.16101255 -0.35085335
  C -1.15933063 -0.94848562  0.35111714
  H -1.08557148 -1.97484944 -0.00202971
  H -0.99128248 -0.91425762  1.43940787
  O -2.38991516 -0.29760660  0.01938352
  C -1.72015052  0.90961379 -0.35899688
  H -1.76746320  1.64118634  0.46449990
  H -2.10154196  1.36209146 -1.27110063
  H  2.40353755 -1.08697908 -0.32872651
  H  2.89534497  0.33751879  0.59723087
  H  1.63332254 -0.74113550  1.22005899
