16
opt_min/./Reactant_667_0_opt.xyz
  C -0.46798906  0.91597157 -1.14971952
  C -0.03479503 -0.00944558 -0.01116160
  C -1.01743290  0.09864345  1.15850433
  H -2.02908247 -0.11720377  0.82415857
  H -0.99775707  1.09762508  1.58670849
  H -0.75894515 -0.60678350  1.94374498
  C  0.02435978 -1.45987843 -0.51011831
  H  0.49345442 -2.10287220  0.22942776
  H -0.97321082 -1.83930099 -0.71185252
  H  0.60953589 -1.51929362 -1.42465678
  C  1.29447420  0.37533891  0.44414247
  C  2.38891279  0.67842875  0.82208981
  H  3.34266746  0.94588159  1.16616694
  H -0.62813722  1.92972075 -0.79151213
  H -1.39749152  0.55810020 -1.58622863
  H  0.28617098  0.95156429 -1.93138328
