13
opt_min/./Reactant_10131_0_opt.xyz
  O -0.40983800  0.43379900  2.63505800
  C -0.25101060  0.54339856  1.45062394
  N  0.88645018  0.94975136  0.82252297
  H  1.74826655  1.07287149  1.33038370
  C  0.88016053  0.71887939 -0.60534257
  H  1.20449970  1.60215393 -1.16252588
  H  1.52900106 -0.12431214 -0.88474275
  C -0.59188598  0.40576488 -0.83053867
  H -1.11270394  0.91726731 -1.62792303
  C -1.10009554 -0.87446081 -0.30617646
  H -2.01960457 -1.29916027 -0.68344762
  H -0.37720705 -1.61194401  0.03223268
  N -1.25035264  0.34800691  0.45749298
