14
opt_min/./Reactant_4171_0_opt.xyz
  C  1.22576436  0.82574914 -0.13173144
  H  1.22699461  0.31952171 -1.10606729
  H  2.05892569  1.52716368 -0.07904486
  C  1.32074250 -0.21308971  0.98814170
  H  2.17903451 -0.86935320  0.84017235
  H  1.40955846  0.30255651  1.95462607
  O  0.18046239 -1.04900849  0.99238764
  C -0.99733081 -0.27811425  1.12802927
  H -1.00079401  0.23133147  2.10213026
  H -1.83067668 -0.98043245  1.07602701
  C -1.09213635  0.76546520  0.00955072
  H -1.94902957  1.42160431  0.16705026
  H -1.18807883  0.25641861 -0.95936501
  O  0.04792691  1.59871878  0.00930459
