9
opt_min/./Reactant_1922_0_opt.xyz
  C -1.00064500  0.26472700 -0.00880701
  C  0.30753342 -0.53753520 -0.16200407
  C  1.45173259  0.24881150  0.21191860
  N  2.35729687  0.87755264  0.51049687
  H  0.45701577 -0.87310083 -1.19157207
  H  0.28556070 -1.42425586  0.47445324
  H -1.30145705  0.69792354 -0.95531974
  H -1.79284221 -0.37727692  0.35511562
  H -0.85324895  1.07560577  0.69808329
