13
opt_min/./Reactant_3441_0_opt.xyz
  N  1.64346800  0.73660900  0.15786300
  C  1.16803173 -0.28749844 -0.60769890
  O  1.89211372 -0.94859723 -1.31778428
  C -0.28914949 -0.58714002 -0.46685738
  H -0.57045844 -1.42892235 -1.08708645
  C -1.32962465  0.48412657 -0.25458423
  H -2.27184761  0.35549859 -0.76540339
  H -1.01225672  1.51574838 -0.19816532
  C -0.98549687 -0.44117564  0.86179012
  H -0.40043641 -0.06504771  1.68801221
  H -1.70327808 -1.19770948  1.14003778
  H  2.59323969  1.02659309 -0.02158610
  H  1.02183380  1.44175679  0.51499537
