18
opt_min/./Reactant_3414_0_opt.xyz
  C  1.30406600 -1.09187600 -0.62581900
  C  0.83156152 -0.04309967  0.36727844
  H  1.46580776 -0.09812208  1.25319952
  C  0.71792619  1.39559715 -0.18039730
  H  1.39560887  2.11584537  0.26525226
  H  0.80816640  1.44559295 -1.26132150
  C -0.73732784  1.47293555  0.31794518
  H -0.87882381  2.15907379  1.14679615
  H -1.47138326  1.69460401 -0.45009142
  C -0.67551611 -0.01074369  0.74141207
  C -1.59663904 -0.94263588 -0.02756441
  H -2.61640247 -0.84699422  0.33967526
  H -1.59717637 -0.70067735 -1.08523799
  H -1.28873902 -1.97639590  0.09274252
  H -0.85063524 -0.15408552  1.80803697
  H  0.71210158 -1.06837003 -1.53441640
  H  2.34137296 -0.90105883 -0.89022123
  H  1.24843535 -2.08402272 -0.18740434
