17
opt_min/./Reactant_11542_0_opt.xyz
  C -2.49113500  0.59768700 -0.59611900
  O -1.29927315  0.35028828 -1.29709206
  C -0.36489658 -0.44460672 -0.60529828
  C  0.36293173  0.28076124  0.51020420
  H -0.25002512  0.96868284  1.07797196
  C  1.43565315 -0.43886845  1.27787021
  H  1.68473068 -1.44021643  0.95931610
  H  1.51644266 -0.28065510  2.34227696
  C  1.80051958  0.67956526  0.33959931
  O  2.42899546  0.37589955 -0.86443832
  H  3.35716586  0.17808926 -0.69420518
  H  2.12187426  1.62676674  0.76851996
  H -0.86848939 -1.33650711 -0.19690884
  H  0.36227519 -0.75351868 -1.35943300
  H -3.16493686  1.08095425 -1.30099188
  H -2.34385964  1.25597703  0.26645451
  H -2.94197331 -0.34077673 -0.24729778
