14
opt_min/./Reactant_10167_0_opt.xyz
  N  2.38356900  0.57526100 -0.03216200
  C  1.93809520 -0.62824469 -0.45108445
  O  2.59763968 -1.39239709 -1.11432973
  C  0.52701548 -0.94954500  0.04701230
  C -0.45854284  0.10988340 -0.39260952
  H -0.57959957  0.19776032 -1.47003625
  C -1.57182373  0.52288522  0.46375730
  H -1.69150358  0.07738434  1.44422369
  H -2.48340351  0.89941135  0.01343259
  O -0.44142214  1.33162122  0.29487117
  H  0.23134705 -1.91978842 -0.35294859
  H  0.54847322 -0.99957988  1.13691575
  H  1.74839530  1.23862469  0.38183939
  H  3.27057075  0.90324237 -0.37851856
