10
opt_min/./Reactant_3084_0_opt.xyz
  N  1.78085800 -0.40970300 -0.07734100
  C  0.43680600 -0.10879278 -0.08194424
  C -0.18750583  1.10167668  0.08116441
  H  0.16501515  2.10541518  0.17695178
  O -1.52608348  0.87099084  0.10265016
  C -1.64874362 -0.44670193 -0.03953599
  H -2.62418982 -0.88750247 -0.05458568
  N -0.52555411 -1.07800547 -0.16608858
  H  1.96946958 -1.31061978 -0.49554556
  H  2.38137109  0.32179264 -0.42814063
