13
opt_min/./Reactant_6239_0_opt.xyz
  O  2.86282200  0.31018000 -0.11335800
  C  1.95680661 -0.47052984  0.05653382
  N  0.66351734 -0.16256992  0.00732339
  C -0.00572786  1.09910160 -0.25597709
  H  0.25657104  1.88665242  0.45212474
  H  0.16390495  1.46279012 -1.27194608
  C -1.34995849  0.39071753 -0.02199382
  H -2.02859994  0.39598956 -0.86931435
  H -1.87288008  0.72585969  0.86903449
  C -0.56208763 -0.91595394  0.17394769
  H -0.71395397 -1.66362862 -0.60939615
  H -0.66157393 -1.39188197  1.15174539
  H  2.12109933 -1.54168803  0.28850115
