11
opt_min/./Reactant_2706_0_opt.xyz
  C  0.39391800  0.89288100 -0.10650000
  H  0.76362173  1.87587218 -0.32211037
  C -0.85601569  0.18065028 -0.57802879
  H -1.63902534  0.49603995 -1.23953495
  C -0.62057698  0.40536585  0.88940110
  H -1.18906177  0.89877314  1.65362063
  N  0.07898529 -0.91919288  1.03106952
  C  1.08692271 -0.46934945  0.06164053
  H  2.11683151 -0.77242522  0.07185641
  C -0.13426524 -1.16407346 -0.39995882
  H -0.28786204 -2.14015091 -0.82129835
