13
opt_min/./Reactant_9065_0_opt.xyz
  O -0.34949400  2.43470000 -0.18705700
  C -0.11114998  1.26086223 -0.13171557
  C -0.99090768  0.15137119 -0.67619370
  H -0.85914950  0.14625206 -1.76277994
  H -2.04350801  0.35295279 -0.48254133
  C -0.49862745 -1.14026174 -0.03899006
  H -1.14508528 -1.46409329  0.77855567
  H -0.43452037 -1.96951433 -0.74342370
  C  0.87526763 -0.85200551  0.54083205
  O  1.62665602 -1.67449039  0.98205900
  C  1.12351469  0.63879842  0.47877904
  H  1.99840465  0.86363650 -0.13608061
  H  1.33297529  1.05818219  1.46512915
