12
opt_min/./Reactant_345_0_opt.xyz
  C -1.20707195  0.87009315 -0.00442268
  C -0.91707888 -0.47479788  0.61405780
  H -1.61799948 -0.78434011  1.38664322
  O -0.49748662 -1.50466806 -0.23163366
  C  0.45528903 -1.01853328  0.68574351
  C  1.57052725 -0.27422681  0.18373263
  C  2.49716827  0.34939841 -0.24746327
  H  3.30718698  0.89223713 -0.63145073
  H  0.70080082 -1.70468612  1.49339632
  H -2.11563824  0.80605145 -0.59777899
  H -0.39109963  1.16250816 -0.65647417
  H -1.33853780  1.61706767  0.77088094
