15
opt_min/./Reactant_6670_0_opt.xyz
  C  1.94012700  0.04493800 -0.09432200
  C  0.46794784 -0.13012073 -0.39709349
  H  0.30524094 -0.54813267 -1.39060952
  C -0.38191528 -0.73141217  0.75734392
  H -0.06356788 -1.56287195  1.38189392
  O -0.37311092  0.57048207  1.38045022
  C -0.45737090  1.04754547  0.02168541
  H -0.21968076  2.09599716 -0.14244485
  C -1.81415057  0.48786258 -0.40528860
  H -2.58388425  0.98694206 -0.95543293
  C -1.76148280 -0.73689690  0.10092380
  H -2.47642353 -1.53246972  0.08368615
  H  2.06288897  0.56270384  0.85208490
  H  2.42689424 -0.92463631 -0.02865866
  H  2.42098249  0.62067714 -0.87946139
