10
opt_min/./Reactant_7193_0_opt.xyz
  N  0.17462100 -1.41002100  0.38397700
  C  0.37373635 -0.26268099 -0.06000914
  O -0.54373695  0.62762763 -0.59182628
  C -1.80976602  0.70265524 -0.15772271
  O -2.28038613  0.11965685  0.76534219
  H -2.32590476  1.43623615 -0.79759464
  C  1.78467150  0.26591361 -0.09369426
  O  2.08147036  1.36673175 -0.44662864
  H  2.49802427 -0.48527859  0.27926648
  H -0.76979459 -1.78312373  0.39837784
