10
opt_min/./Reactant_2595_0_opt.xyz
  C  1.69835600  0.07909700  0.34036200
  O  0.34187021  0.33933251  0.66970245
  C -0.57171295 -0.27032862 -0.12052510
  O -0.30641697 -1.01050745 -1.02973018
  N -1.82181741  0.08799998  0.25090273
  H -1.96339916  0.65231190  1.06853300
  H -2.60969354 -0.34149442 -0.19764547
  H  2.28982486  0.48231415  1.15793970
  H  1.96101312  0.56845132 -0.59981786
  H  1.86399416 -0.99486543  0.23540499
