13
opt_min/./Reactant_277_0_opt.xyz
  C -0.28458190 -1.39170332 -0.31974568
  C  0.20882686 -0.11895779  0.37225969
  C  1.32255317  0.55206754 -0.43420173
  H  1.64426737  1.47376033  0.04193690
  H  2.17871916 -0.11560769 -0.50604881
  H  0.98011653  0.78575460 -1.43889393
  C -0.89162140  0.80588602  0.57848919
  C -1.79521258  1.56971433  0.75752935
  H -2.58919877  2.23694044  0.91124654
  H  0.60748196 -0.39455507  1.35722464
  H  0.51723124 -2.12589887 -0.35604609
  H -0.59451564 -1.17681801 -1.34010979
  H -1.13144879 -1.81906139  0.20755660
