13
opt_min/./Reactant_10122_0_opt.xyz
  O -0.40983800  0.43379900  2.63505800
  C -0.25101060  0.54339854  1.45062393
  N  0.88645019  0.94975128  0.82252297
  H  1.74826655  1.07287139  1.33038372
  C  0.88016053  0.71887939 -0.60534257
  H  1.20449966  1.60215398 -1.16252585
  H  1.52900108 -0.12431209 -0.88474282
  C -0.59188597  0.40576487 -0.83053866
  H -1.11270395  0.91726732 -1.62792299
  C -1.10009552 -0.87446084 -0.30617648
  H -2.01960457 -1.29916026 -0.68344766
  H -0.37720705 -1.61194405  0.03223266
  N -1.25035263  0.34800686  0.45749298
