11
opt_min/./Reactant_10681_0_opt.xyz
  C  2.97915800  0.24914001 -0.68409100
  C  1.80551806  0.15451802 -0.44604454
  C  0.43699261  0.03568261 -0.15344101
  C -0.20454040  0.02804500  1.05931268
  H  0.25771960  0.11527002  2.01985079
  C -1.58141841 -0.11748077  0.76307832
  H -2.38790625 -0.16367056  1.46519003
  C -1.66938518 -0.18669951 -0.59232433
  H -2.51696454 -0.29724582 -1.23840645
  O -0.46011303 -0.09590486 -1.16195053
  H  4.00474264  0.34211521 -0.88001250
