15
opt_min/./Reactant_8650_0_opt.xyz
  C  2.05133400 -0.28859100  0.32328400
  C  1.01562713  0.53215206 -0.41475640
  H  1.21910026  1.59911389 -0.50349608
  O  0.35784915 -0.04253658 -1.50949248
  C -0.40251342  0.16101254 -0.35085336
  C -1.15933061 -0.94848563  0.35111714
  H -1.08557150 -1.97484944 -0.00202973
  H -0.99128240 -0.91425766  1.43940786
  O -2.38991515 -0.29760658  0.01938359
  C -1.72015051  0.90961379 -0.35899689
  H -1.76746316  1.64118639  0.46449986
  H -2.10154198  1.36209142 -1.27110064
  H  2.40353757 -1.08697907 -0.32872651
  H  2.89534496  0.33751879  0.59723088
  H  1.63332253 -0.74113551  1.22005898
