17
opt_min/./Reactant_11928_0_opt.xyz
  C  1.77857200 -0.33509900  0.49924400
  C  1.08981987  0.57749730 -0.48610833
  H  1.79269992  1.12766331 -1.09823016
  C -0.17597236  0.15670371 -1.18068697
  H -0.28093915  0.35080563 -2.23487025
  C -0.94820753 -1.01249133 -0.59200354
  H -1.79530352 -1.29804925 -1.22204775
  H -0.33296694 -1.90705106 -0.47766636
  C -1.38506737 -0.49208805  0.74936655
  H -1.95714477 -1.10128550  1.42462667
  C -0.99779546  0.76079213  0.96679801
  H -1.19308798  1.32177447  1.86022102
  C -0.20543476  1.28142636 -0.16493835
  H -0.32376495  2.31352029 -0.45981008
  H  2.15787505 -1.21994401 -0.00609703
  H  1.10154893 -0.65065858  1.28744932
  H  2.62353341  0.17154766  0.96459207
