9
opt_min/./Reactant_9005_0_opt.xyz
  N  3.18457100  0.10883200  0.07717800
  C  2.05099556 -0.05226891  0.04264273
  C  0.65752288 -0.23260354  0.01039006
  C -0.32298535  0.75381294 -0.00261951
  H -0.24460754  1.81895345  0.00643841
  N -1.47431561  0.05148023 -0.03042492
  H -2.41121482  0.42214224 -0.04647887
  N -1.22210400 -1.25696852 -0.03444047
  N  0.02741427 -1.43771198 -0.01137153
