10
opt_min/./Reactant_3365_0_opt.xyz
  C -1.41202900 -0.06096100 -0.02976300
  C  0.06470523 -0.16080397 -0.03433220
  C  1.03835388  0.79391684  0.12727293
  H  1.00430948  1.85095279  0.28382095
  O  2.22121373  0.19007346  0.04758113
  N  1.96695440 -1.14439983 -0.15396031
  N  0.73685123 -1.33144160 -0.20851839
  H -1.79308454 -0.11112041  0.99107089
  H -1.73111387  0.87795103 -0.47634391
  H -1.82779203 -0.89737259 -0.58599425
