17
opt_min/./Reactant_2508_0_opt.xyz
  C  1.85122600 -0.69323300 -0.25992900
  C  0.51016039 -0.57225459  0.41677969
  H  0.40045159 -1.23973229  1.27255463
  C -0.27254731  0.68773832  0.46197381
  C  0.19732570  1.97499971 -0.17935268
  H  1.25051060  1.94190348 -0.43339615
  H -0.37125425  2.16210782 -1.08506427
  H  0.04526691  2.81085285  0.49519724
  H -0.90127697  0.83424485  1.33642583
  N -0.64834470 -0.39213265 -0.42559486
  C -1.84047577 -1.13784287 -0.12325767
  H -1.95310457 -1.36093707  0.95068912
  H -2.70406205 -0.56088980 -0.44717499
  H -1.81475550 -2.07806355 -0.66884623
  H  2.05077114 -1.73556207 -0.48360576
  H  1.86807335 -0.12664916 -1.18100140
  H  2.63962971 -0.33099388  0.39916737
