14
opt_min/./Reactant_1972_0_opt.xyz
  C -2.10837400  0.06174700  0.55525800
  C -1.13339562 -0.37183807 -0.53566012
  C  0.19416787  0.33864903 -0.36276765
  O  0.35203962  1.53030469 -0.38749636
  O  1.17882248 -0.54993897 -0.17417895
  C  2.49944945 -0.05031506  0.01120108
  H  2.51402861  1.02332738 -0.19162256
  H  2.80506554 -0.23631559  1.04104329
  H  3.15833727 -0.57824049 -0.67759789
  H -1.53336457 -0.10045380 -1.51473246
  H -0.96556790 -1.44780593 -0.50346369
  H -3.05231240 -0.46709579  0.44004137
  H -1.70569527 -0.15810564  1.54131574
  H -2.29614072  1.13152370  0.48650517
