15
opt_min/./Reactant_1590_0_opt.xyz
  C  1.34271799  1.01755902  0.60399998
  C  0.72974117  0.23164960 -0.55208193
  C -0.35927939 -0.73870454 -0.05534676
  C -1.65541022 -0.01306179  0.37213930
  H -1.52150363  1.06118076  0.29905669
  H -2.47980607 -0.30157581 -0.27138226
  H -1.91422133 -0.26371416  1.39522405
  C -0.66926488 -1.67088458 -1.11363676
  N -0.92307105 -2.39499563 -1.96192953
  H  0.04993974 -1.31806305  0.77880944
  H  1.50997408 -0.33581412 -1.05901510
  H  0.28521932  0.91682641 -1.27321999
  H  1.93369725  0.36172078  1.23668151
  H  1.97817136  1.81089609  0.22761010
  H  0.56598175  1.46115770  1.22142892
