12
opt_min/./Reactant_1897_0_opt.xyz
  C -1.68836200  0.13263700  0.12955800
  C -0.30366405 -0.34668041  0.56482177
  C  0.81190544  0.38847993 -0.16599094
  O  0.64429869  1.25992756 -0.98551705
  N  2.05193222 -0.01929317  0.19739788
  H  2.21839683 -0.73700942  0.87690394
  H  2.84769931  0.41692752 -0.23414330
  H -0.15392006 -0.19445565  1.63437965
  H -0.17967186 -1.41391425  0.38008880
  H -2.17829972  0.69455775  0.91700394
  H -2.33094372 -0.69955255 -0.13899198
  H -1.58538373  0.77737291 -0.73817892
