9
opt_min/./Reactant_7924_0_opt.xyz
  N -1.86544701  0.05932503 -0.38170986
  C -0.78271506  0.85300474 -0.54908750
  O -0.82994522  2.03586755 -0.78432090
  C  0.47134856  0.13644217 -0.41288490
  C  1.55271800 -0.39919239 -0.32862492
  C  2.76841353 -1.00661522 -0.22311305
  N  3.78603462 -1.52955387 -0.13188916
  H -2.77920025  0.47496738 -0.46047016
  H -1.79055411 -0.92388424 -0.19015486
