14
opt_min/./Reactant_10174_0_opt.xyz
  N  2.38356900  0.57526100 -0.03216200
  C  1.93809510 -0.62824462 -0.45108452
  O  2.59763950 -1.39239698 -1.11432997
  C  0.52701545 -0.94954497  0.04701236
  C -0.45854289  0.10988338 -0.39260953
  H -0.57959960  0.19776026 -1.47003626
  C -1.57182383  0.52288519  0.46375726
  H -1.69150371  0.07738433  1.44422366
  H -2.48340361  0.89941128  0.01343250
  O -0.44142226  1.33162121  0.29487114
  H  0.23134703 -1.91978843 -0.35294845
  H  0.54847321 -0.99957977  1.13691581
  H  1.74839538  1.23862465  0.38183956
  H  3.27057070  0.90324241 -0.37851870
