23
opt_min/./Reactant_11677_0_opt.xyz
  C  2.47476100 -0.43627600 -0.29089300
  C  0.99304000 -0.33626003 -0.61596434
  C  0.19178075  0.31963138  0.51475272
  C  0.45661151  1.83592671  0.57190229
  H -0.44872822  2.39971329  0.36639740
  H  1.20693249  2.12332008 -0.15880418
  H  0.81207467  2.12561042  1.55779775
  C -1.32116375  0.02341378  0.42938061
  C -1.92866374  0.35002333 -0.93531073
  H -1.74679822  1.38564839 -1.21020748
  H -2.99919689  0.17000524 -0.91439007
  H -1.48576822 -0.28562783 -1.69944982
  C -1.63651499 -1.42038512  0.79849691
  H -2.71267454 -1.56657462  0.88607236
  H -1.17993939 -1.69347461  1.74784977
  H -1.28490374 -2.11799233  0.03947651
  H -1.79979736  0.67055489  1.17668983
  H  0.53343314 -0.12770931  1.45440325
  H  0.86047187  0.24704050 -1.53249857
  H  0.60492646 -1.33686925 -0.81310969
  H  3.00824750 -0.90608689 -1.11452183
  H  2.63161292 -1.03227637  0.60763499
  H  2.91376344  0.54288104 -0.11160218
