16
opt_min/./Reactant_9961_0_opt.xyz
  C  3.45656283  0.20647979 -0.36051756
  C  2.05357741  0.19301276 -0.71747514
  C  0.88900557  0.21486199 -1.00300105
  C -0.52945698  0.28776261 -1.30390742
  N -1.26175969  0.70110327 -0.12278696
  C -1.66242283 -0.31367809  0.81064057
  H -1.41644925 -1.35049905  0.59690528
  H -1.58820656 -0.04603186  1.85448167
  C -2.65783497  0.35711494 -0.05566284
  H -3.30531796  1.11772798  0.35391074
  H -3.09484021 -0.21933844 -0.86610051
  H -0.88128449 -0.68387143 -1.70538355
  H -0.70503310  1.04721488 -2.07515544
  H  4.07253316 -0.13106829 -1.19514622
  H  3.64345530 -0.44784365  0.48828496
  H  3.75303688  1.22421235 -0.10490596
