18
opt_min/./Reactant_4591_0_opt.xyz
  C  1.04858900  1.09817500 -0.59533600
  C  0.58348287 -0.33613804 -0.35027014
  C  1.66401059 -1.11969425  0.39735093
  H  1.90116698 -0.63067858  1.33785550
  H  2.56837061 -1.18117061 -0.19723703
  H  1.33165700 -2.12885702  0.61265357
  C -0.72923693 -0.39036080  0.43690239
  C -1.90099692  0.28897134 -0.26648176
  O -3.12059631  0.12678370  0.42080307
  H -2.99259390  0.38993542  1.33799077
  H -2.05668748 -0.16109012 -1.24894352
  H -1.70321441  1.36175827 -0.40510387
  H -0.57695804  0.07679505  1.41544047
  H -1.00232014 -1.43348592  0.60569008
  H  0.41902239 -0.81490048 -1.32000403
  H  1.04615050  1.66463048  0.33129071
  H  2.05847233  1.09959703 -0.99020636
  H  0.40619519  1.60129841 -1.30922465
