13
opt_min/./Reactant_11617_0_opt.xyz
  C  2.44488700  0.03771600  0.37318400
  O  1.53391902  0.17150433 -0.70027314
  C  0.23825742  0.05301975 -0.36302376
  N -0.18316242 -0.19426523  0.86387679
  N -1.52212445 -0.22557997  0.77610265
  H -2.07234049 -0.39970646  1.60022137
  C -1.95305369 -0.01101907 -0.47980237
  H -2.99303324 -0.00220294 -0.73389148
  C -0.84190945  0.17398401 -1.26727295
  H -0.79305521  0.36812403 -2.31508824
  H  2.16727610  0.67995830  1.20782631
  H  2.47967292 -0.99833367  0.71829458
  H  3.41589847  0.32881000 -0.02499152
