13
opt_min/./Reactant_1832_0_opt.xyz
  C  1.52026200 -0.39440800  0.22033000
  C  0.26292970  0.13282180 -0.46764164
  H  0.49001272  0.47765705 -1.47348314
  C -1.03262278 -0.70573543 -0.38702671
  H -0.94921191 -1.60539759  0.22574820
  H -1.51095014 -0.95544510 -1.33368593
  N -1.63802516  0.41118302  0.31646694
  H -2.56230001  0.55540440  0.68373619
  C -0.53062566  1.18979328  0.31994347
  O -0.30349972  2.27169445  0.78339910
  H  2.29291342 -0.63123763 -0.50477537
  H  1.30176070 -1.28589027  0.79576609
  H  1.91217931  0.36786451  0.88810399
