13
opt_min/./Reactant_3714_0_opt.xyz
  C -1.07968800  1.23236900  0.07501100
  C  0.09658157  0.32694614 -0.05706758
  N  1.23894727  0.81672808  0.18015136
  O  2.33835428 -0.03641440  0.04929825
  H  3.09724233  0.52099625  0.27132896
  C -0.17079035 -1.10094583 -0.46980429
  O -1.29259633 -1.66022254  0.18147620
  H -1.08234733 -1.77677541  1.11426975
  H  0.73084590 -1.70477400 -0.30775597
  H -0.41699019 -1.11908762 -1.53759087
  H -1.76933790  0.83668906  0.82129336
  H -0.75485210  2.22695608  0.36739548
  H -1.61569035  1.27396123 -0.87115648
