15
opt_min/./Reactant_5520_0_opt.xyz
  C -2.32572700  0.40770600 -0.51494200
  C -1.19407609 -0.51521095 -0.96727901
  N  0.01824802 -0.16889388 -0.28117659
  C  0.53905102 -0.98425317  0.52019825
  O  1.64989800 -0.74437881  1.20842671
  C  2.25246810  0.51812111  0.97505738
  H  3.13648706  0.55680790  1.61027465
  H  1.56066404  1.32290904  1.23153582
  H  2.53038680  0.62083110 -0.07586654
  H  0.14866662 -1.99048905  0.73956156
  H -1.01259563 -0.37225238 -2.03623361
  H -1.47454644 -1.56816911 -0.79597866
  H -1.95546501  1.42845508 -0.45736617
  H -3.15304753  0.37151686 -1.21975199
  H -2.68788258  0.11407901  0.46759534
