17
opt_min/./Reactant_7586_0_opt.xyz
  C -1.28182800  0.87563000 -0.76110200
  C -0.67540237 -0.35075592 -0.10522876
  C  0.63704945 -0.14347765  0.63195835
  C  1.77758761  0.35226179 -0.26205951
  O  3.01430157  0.37565448  0.41053024
  H  2.92502418  0.90899872  1.20682682
  H  1.91159628 -0.33515473 -1.09782882
  H  1.55243335  1.35129539 -0.65757599
  H  0.94734707 -1.09774856  1.06008324
  H  0.47020057  0.56350078  1.45108023
  C -1.58029645 -1.40314890  0.37200048
  H -2.64397993 -1.29085094  0.20931983
  H -1.28238330 -2.03127055  1.19874810
  O -0.81400332 -1.55915549 -0.79466033
  H -2.10259276  0.57397496 -1.40235076
  H -1.65212756  1.55308672  0.00131554
  H -0.54900894  1.39270348 -1.36935715
