8
opt_min/./Reactant_5034_0_opt.xyz
  O  1.14895300 -1.29141800 -0.60648000
  C  1.09298164 -0.20537257 -0.12519801
  N -0.03841921  0.42944542  0.35942502
  C -1.32218595 -0.09059196  0.37148971
  O -1.66402630 -1.15719089 -0.02772828
  H -2.02429125  0.64257921  0.81933175
  H  0.08185687  1.35757362  0.73961107
  H  1.97828059  0.45214875 -0.00392428
