11
opt_min/./Reactant_4943_0_opt.xyz
  O  1.88246300  0.63044200 -0.31407700
  C  0.90434855 -0.12260791  0.35509257
  C -0.35774922 -0.25935319 -0.48089594
  H -0.23975256 -0.85269195 -1.38305748
  C -1.69410804 -0.12957461  0.09531273
  H -1.79635286  0.06444525  1.15636217
  H -2.53627639 -0.62639268 -0.37022642
  O -1.12267443  0.90458881 -0.65541196
  H  0.65113287  0.32287076  1.32449927
  H  1.33674360 -1.11080881  0.52491753
  H  1.69600427  1.57015642 -0.21161652
