9
opt_min/./Reactant_3609_0_opt.xyz
  N  2.74052600  0.02679800 -0.50054200
  C  1.67458102 -0.06464892 -0.09749163
  C  0.34633087 -0.17403666  0.41373690
  H  0.29955395 -0.33322453  1.48739717
  C -0.74634294  0.58976822 -0.25440605
  H -0.50631142  1.20664282 -1.10601965
  H -1.55553262  0.96102927  0.36293729
  N -0.60740306 -0.82298373 -0.46766159
  H -1.28800071 -1.40333558  0.00682810
