14
opt_min/./Reactant_6948_0_opt.xyz
  O -2.21867873 -0.61696691  0.63233210
  C -1.74196698  0.48956424  0.62847991
  N -0.71572901  0.89602693 -0.13841219
  C -0.03225717 -0.01449167 -1.03541488
  C  0.82133417 -1.03487975 -0.26697121
  C  1.84648129 -0.37621000  0.51652216
  C  2.68608574  0.18543202  1.15807478
  H  3.42164320  0.67800727  1.72041445
  H  1.29264153 -1.71750757 -0.97802227
  H  0.17230719 -1.61028910  0.39692803
  H  0.59990354  0.57111826 -1.70544199
  H -0.78452976 -0.55111940 -1.62147780
  H -0.37505719  1.83871555 -0.05560642
  H -2.12610736  1.30532276  1.27206291
