17
opt_min/./Reactant_10095_0_opt.xyz
  C  2.06412600  0.41002200  0.05502100
  C  1.25791215 -0.81399708  0.47322345
  O -0.10466644 -0.54631282  0.73918188
  C -0.90982598 -0.26611832 -0.38297445
  C -2.29396161 -0.88552790 -0.16010093
  H -2.83646454 -0.32429542  0.59610619
  H -2.15720949 -1.90334292  0.19668556
  H -2.85918115 -0.89346204 -1.08824250
  C -1.08981954  1.22344222 -0.64273637
  O -0.54632405  2.12546797 -0.08022572
  H -1.83171347  1.39646063 -1.45686901
  H -0.46404083 -0.69304747 -1.29757985
  H  1.63425078 -1.20583175  1.42512807
  H  1.34623051 -1.60672954 -0.28490284
  H  3.13036730  0.20526342  0.12546294
  H  1.82026862  0.70787082 -0.96403242
  H  1.81503638  1.23725245  0.71975570
