19
opt_min/./Reactant_6516_0_opt.xyz
  C  1.71523700  1.01710000  0.10581700
  C  0.75273188 -0.09600223 -0.28815335
  C  1.26464396 -1.50400806 -0.02797877
  H  1.00488548 -2.15470452 -0.85711999
  H  2.34423857 -1.50209365  0.07609704
  H  0.83727461 -1.91009523  0.88522964
  O  0.06165251  0.08866264 -1.50829093
  C -0.69987492  0.17413596 -0.32579082
  C -1.24658327  1.54602943  0.02353367
  H -0.66892518  2.33148073 -0.44959571
  H -1.24049906  1.67984084  1.10200329
  H -2.27381817  1.63101924 -0.32065094
  C -1.70960716 -0.92749726 -0.08108223
  H -2.58046884 -0.76969964 -0.71229097
  H -1.30365573 -1.90512731 -0.31289384
  H -2.02114070 -0.91531972  0.95964644
  H  2.57682835  0.61164859  0.62424436
  H  1.24775530  1.74952445  0.75511033
  H  2.06721118  1.52440479 -0.78748830
