16
opt_min/./Reactant_10978_0_opt.xyz
  C -1.60517500 -0.36083600 -0.71350600
  C -0.51009262 -0.47627230  0.33439056
  H -0.88541167 -0.90819914  1.26021703
  N  0.81320514 -1.10437886 -0.07504851
  C  1.11528088  0.17922992 -0.81550620
  H  0.54544750  0.34211848 -1.72317252
  H  2.18164693  0.32572123 -0.96458770
  C  0.53187538  0.66092031  0.52159778
  O  0.33444504  1.95897627  0.96702761
  H  0.11287624  2.53174561  0.22828508
  C  1.40860531 -0.43281210  1.13609100
  H  1.06552279 -0.86629978  2.07160693
  H  2.48575141 -0.30641718  1.09592187
  H -1.80830022  0.68092525 -0.94409784
  H -1.34119015 -0.89038837 -1.62258081
  H -2.52723321 -0.79490413 -0.33849910
