15
opt_min/./Reactant_9121_0_opt.xyz
  C  2.13733800  0.37221900 -0.20589700
  C  0.84626520 -0.19432451 -0.72346429
  O  0.77757742 -0.89457845 -1.70737762
  C -0.38657070  0.16895315  0.03661422
  O -0.16316496  1.01852497  1.11750527
  H -0.99344668  1.14991965  1.58600124
  C -1.66661440  0.28352559 -0.77159057
  H -1.58102052  0.13805333 -1.83651564
  H -2.37849492  1.03889257 -0.47828017
  C -1.45800339 -0.89959390  0.11627845
  H -2.02447557 -0.97196946  1.03113681
  H -1.23249441 -1.84364384 -0.34810955
  H  2.10376497  0.48443636  0.87300115
  H  2.96619121 -0.25849053 -0.51331132
  H  2.27376453  1.35466723 -0.64813657
