15
opt_min/./Reactant_5970_0_opt.xyz
  C -2.29285900  0.57419800  0.06091700
  C -1.12516405 -0.39156735 -0.12323458
  C  0.22333825  0.29146328  0.07234499
  O  0.36670723  1.46704019  0.32565640
  N  1.26824825 -0.56212890 -0.03630803
  C  2.63333857 -0.10569664  0.11236845
  H  2.65847873  0.65853288  0.88560330
  H  2.99993798  0.34197955 -0.81428294
  H  3.26849373 -0.94126395  0.38637266
  H  1.10359344 -1.52979249 -0.24308417
  H -1.13525561 -0.82991266 -1.12279154
  H -1.18893057 -1.22104298  0.58231452
  H -2.73790344  0.47138788  1.04503987
  H -3.06233814  0.41630533 -0.68599904
  H -1.92928007  1.59405558 -0.03228244
