13
opt_min/./Reactant_8473_0_opt.xyz
  N  2.02445000 -0.19496000  0.08563300
  C  0.62893096 -0.13280298  0.00723579
  C -0.24397755  0.92019214  0.14385295
  O  0.12063608  2.23591130  0.38090565
  H -0.16714170  2.78131169 -0.36128283
  C -1.55786255  0.40104739  0.06617335
  H -2.46207738  0.97427446  0.13638567
  C -1.44271437 -0.94536958 -0.12134341
  H -2.19186998 -1.70333469 -0.24268138
  N -0.11489852 -1.26380377 -0.14953326
  H  0.26845162 -2.18706875 -0.27101469
  H  2.47485475 -0.58073419 -0.73691788
  H  2.42128520  0.69770589  0.35249855
