11
opt_min/./Reactant_1427_0_opt.xyz
  C  2.42045101  0.32595600 -0.51536194
  C  1.33458684 -0.12322497 -0.28445851
  C  0.03404429 -0.63834163 -0.00829228
  H -0.03755960 -1.71805445 -0.00334152
  C -1.15340363  0.13736846 -0.51955833
  H -0.98202867  1.03171306 -1.09631485
  H -2.00921241 -0.43079420 -0.85284945
  C -0.84342935  0.13998779  0.93962233
  H -0.40894345  1.03841819  1.34770739
  H -1.48313558 -0.40406833  1.61415875
  H  3.36403752  0.73130755 -0.72103597
