19
opt_min/./Reactant_7578_0_opt.xyz
  C  2.14066300 -0.54394800 -0.40070600
  C  0.91990852 -0.10585213  0.42711718
  O  1.28481629  0.79054097  1.45508801
  H  1.61647995  1.60491395  1.05507523
  C -0.13050378  0.49941751 -0.48465983
  H  0.21554848  1.42812534 -0.92819311
  C -1.00358359 -0.36195062 -1.35672451
  H -0.93225484 -1.43152813 -1.23071817
  H -1.15288890 -0.05554451 -2.38054348
  C -1.61762048  0.42252977 -0.24278277
  C -2.21443782 -0.26916349  0.95635720
  H -1.62883517 -1.14021782  1.23882359
  H -3.22979979 -0.58966883  0.74066105
  H -2.22839458  0.40781408  1.80754521
  H -2.17333168  1.31070721 -0.52183378
  H  0.50833622 -0.96240635  0.96764920
  H  2.78306415  0.31601397 -0.57918263
  H  1.81292582 -0.93704183 -1.35879312
  H  2.71051757 -1.30307018  0.12264050
