9
opt_min/./Reactant_215_0_opt.xyz
  O -1.11406009 -0.24044397 -0.87354689
  C -0.20002100  0.69214595 -0.37393326
  C  0.88014168  0.10734651  0.52662821
  O  1.78024191  0.74640895  1.00430075
  C  0.71088422 -1.31369382  0.78174551
  N  0.55947290 -2.42314818  1.01524506
  H -0.68860004  1.51728065  0.16690157
  H  0.29484556  1.12664178 -1.25127294
  H -1.63079496 -0.63851140 -0.16301715
