15
opt_min/./Reactant_11466_0_opt.xyz
  C  1.42012496 -1.22305504  0.28822402
  C  0.89158907  0.18891416  0.40103163
  H  1.27190220  0.72876370  1.26342926
  N  0.69392158  0.93309070 -0.81493217
  H  0.95375879  1.91115722 -0.80246415
  C -0.48860648  0.56814743 -0.05414518
  C -1.46237325 -0.39119865 -0.70965377
  H -1.96505150  0.11314151 -1.53148640
  H -2.20857029 -0.71487186  0.00907123
  H -0.93655443 -1.25105567 -1.10916721
  C -1.13734768  1.58809164  0.70584602
  N -1.64911408  2.41871139  1.30540468
  H  0.62080560 -1.95711736  0.26254654
  H  2.00277162 -1.32402517 -0.62147611
  H  2.05654385 -1.44850519  1.13478876
