13
opt_min/./Reactant_810_0_opt.xyz
  C -1.96165000  0.87594500  0.16456800
  C -1.00196197 -0.27427360 -0.08770576
  O  0.32930092  0.20279123  0.11885584
  C  1.30906815 -0.70379562 -0.07899996
  O  1.12479946 -1.84912429 -0.40081769
  N  2.52561747 -0.14169711  0.12530996
  H  3.34883543 -0.71504358  0.07826786
  H  2.59049502  0.78711763  0.50259906
  H -1.08185062 -0.65567806 -1.11150286
  H -1.18661918 -1.10969125  0.59789786
  H -1.61079558  1.45401346  1.01699418
  H -2.95459995  0.49272489  0.38332974
  H -2.01952346  1.53234043 -0.69990497
