12
opt_min/./Reactant_49_0_opt.xyz
  C -2.09543300 -0.26889300  0.09614500
  N -0.69040869 -0.41657287 -0.08421971
  C  0.07994623  0.54729922  0.12686718
  N  1.45425773  0.47224609 -0.01930221
  C  2.17717467 -0.63084385 -0.38731704
  O  1.76594376 -1.72520127 -0.62925508
  H  3.26081092 -0.38265361 -0.39332802
  H  1.96795035  1.32017655  0.16951705
  H -0.25489373  1.55228684  0.44783127
  H -2.58884359 -0.55096316 -0.83317352
  H -2.41471460 -0.97166265  0.86673523
  H -2.40011397  0.74816113  0.38647637
