14
opt_min/./Reactant_2822_0_opt.xyz
  C  0.12448500  1.46809100  0.23673300
  C  0.12779634 -0.02856654  0.02434194
  C  1.44980118 -0.64275986 -0.20144933
  O  1.65744341 -1.82105071 -0.33225194
  H  2.28002921  0.09016628 -0.25227991
  C -0.91033185 -0.89210177  0.70345082
  H -0.58380104 -1.86798102  1.03122329
  H -1.61972504 -0.40836869  1.35589232
  C -1.01126774 -0.66800526 -0.76078721
  H -0.72021873 -1.47034129 -1.42198955
  H -1.76933738 -0.00380403 -1.14494060
  H  0.40615484  1.98730098 -0.67847120
  H -0.86469530  1.80797651  0.53180671
  H  0.83051362  1.74582088  1.01717383
