17
opt_min/./Reactant_7061_0_opt.xyz
  C -2.11017700 -0.15342700 -0.34545300
  C -0.90422645  0.78091848 -0.17495384
  O -0.83891686  1.29953278  1.12766275
  H -0.52740071  0.57894156  1.69557381
  C  0.39244946  0.03891013 -0.52059780
  H  0.33357522 -0.35018619 -1.54148837
  C  1.70850306  0.72847507 -0.15843267
  H  2.41152213  0.87002196 -0.97665920
  H  1.57045162  1.65827974  0.39061049
  C  1.95774525 -0.48863796  0.73284564
  H  2.05905110 -0.29117978  1.80403051
  H  2.74649980 -1.16681310  0.40034765
  O  0.66059326 -1.01481456  0.42604271
  H -0.99425793  1.65593278 -0.82929910
  H -1.95969862 -0.79907344 -1.20657481
  H -2.20426164 -0.77773751  0.54145150
  H -3.02789904  0.41366145 -0.46844041
