12
opt_min/./Reactant_1495_0_opt.xyz
  O  0.39571800  2.35031700  0.05064000
  C  0.19772231  1.16672213  0.02937685
  C  1.24476434  0.07343822  0.00850340
  H  1.87832936  0.11062605  0.89703935
  H  1.89295653  0.19658169 -0.86139895
  C  0.44513207 -1.19359791 -0.03392741
  H  0.92783342 -2.15309155 -0.06242158
  C -0.86000720 -0.96405669 -0.02585345
  H -1.63403311 -1.70937897 -0.04574093
  C -1.16782755  0.49939927  0.01216580
  H -1.75691106  0.82162717 -0.84879459
  H -1.72644881  0.79832737  0.90323213
