15
opt_min/./Reactant_10347_0_opt.xyz
  C -1.18841600  1.29479800 -0.63785600
  C -0.29963858  0.15932726 -0.17181365
  C  1.07691337  0.59569681  0.26284263
  O  1.37317960  1.76035863  0.41246998
  N  1.99522618 -0.39785934  0.45085186
  H  1.72576037 -1.35692370  0.59283777
  H  2.88541021 -0.11845633  0.83365635
  C -0.90708617 -1.02326899  0.50837416
  H -0.35444678 -1.53377647  1.29161310
  H -1.98016886 -1.03006643  0.64396448
  N -0.47891844 -1.10448913 -0.86156539
  H  0.37231912 -1.63189922 -1.03184622
  H -1.45217452  1.14766132 -1.68274692
  H -0.64711395  2.23185457 -0.53205200
  H -2.10245777  1.34770845 -0.05006707
