16
opt_min/./Reactant_673_0_opt.xyz
  C -0.78373100  1.20226000  0.50578200
  C -0.44014809 -0.26763972  0.24168447
  C -1.57388346 -0.97108219 -0.49882928
  H -2.51307854 -0.84181547  0.02858882
  H -1.67285542 -0.56621129 -1.50007496
  H -1.37033296 -2.03404809 -0.58321516
  C  0.86000345 -0.35352919 -0.54447680
  O  0.91653575 -0.78977882 -1.66600852
  C  2.08452533  0.18291197  0.15953146
  H  1.98309631  0.16606438  1.23904764
  H  2.95286954 -0.39680607 -0.14060692
  H  2.24705583  1.20652973 -0.16944201
  H -0.27077502 -0.76690684  1.20111458
  H -1.72207528  1.27493966  1.04572229
  H -0.88689712  1.73483073 -0.43575479
  H -0.01411804  1.69240750  1.09480501
