12
opt_min/./Reactant_5340_0_opt.xyz
  C  1.49124257 -0.35260109 -0.05831408
  C  0.25299471  0.50071677  0.10959347
  H  0.50372799  1.56262264  0.05446033
  C -1.01790679  0.09781169 -0.66167046
  H -0.93957581 -0.80167657 -1.26454338
  H -1.51089060  0.87765978 -1.23305891
  C -1.57320876 -0.12733404  0.73756361
  O -2.60553880 -0.48109981  1.20482327
  O -0.42928409  0.23431343  1.36257235
  H  1.22718157 -1.40299697 -0.15104308
  H  2.03894492 -0.04155435 -0.94338277
  H  2.12965797 -0.23205157  0.81247829
