13
opt_min/./Reactant_3341_0_opt.xyz
  C -1.15425900  0.79807700 -0.39714700
  H -2.22108891  0.91588482 -0.47984037
  H -0.62185329  1.73474301 -0.35673025
  C -0.73879315 -0.41002954  0.38679975
  H -1.42264985 -0.94036119  1.02879074
  C -0.63359076 -0.41166935 -1.11795755
  H -1.19025473 -0.94908529 -1.86595140
  N  0.83583091 -0.66927517 -1.06926294
  C  1.54714137  0.37454783 -0.36918748
  H  2.61580206  0.22162293 -0.40234644
  H  1.27897077  1.41948902 -0.43318313
  C  0.78088186 -0.61041405  0.40806939
  H  1.22621524 -1.35883040  1.04370734
