12
opt_min/./Reactant_9145_0_opt.xyz
  C -1.73839700 -0.21319800 -0.06694300
  C -0.29953004  0.12888481  0.02505043
  C  0.32701477  1.29059240  0.25400137
  H -0.04719721  2.27213723  0.44952889
  O  1.68814504  1.11283037  0.22497850
  C  1.93394431 -0.19635001 -0.03188348
  O  3.01568897 -0.70189451 -0.12717397
  N  0.70706571 -0.81188218 -0.15708198
  H  0.58336949 -1.78885766 -0.35332332
  H -2.33330189  0.58439597  0.36660892
  H -1.94844705 -1.14371667  0.45583019
  H -2.03904785 -0.33525543 -1.10776458
