16
opt_min/./Reactant_6977_0_opt.xyz
  C -1.94655401 -0.69894701  0.17547985
  C -0.51731171 -0.41629197  0.62116488
  C  0.19678652  0.52406414 -0.35029813
  O -0.41356536  1.78968113 -0.25583580
  H -0.06708716  2.36730192 -0.94445517
  C  1.70300480  0.62954030 -0.00415399
  C  2.37508201 -0.63100403 -0.17013523
  N  2.90389800 -1.63373698 -0.31728893
  H  2.17758580  1.36892876 -0.65819851
  H  1.80679044  0.95438220  1.03589765
  H  0.10118748  0.12889686 -1.37519015
  H  0.04506707 -1.35066438  0.69119949
  H -0.53362655  0.05620434  1.60672841
  H -1.95398019 -1.20034084 -0.79090288
  H -2.45026137 -1.33384561  0.90155714
  H -2.49944475  0.23516904  0.08716017
