11
opt_min/./Reactant_4706_0_opt.xyz
  C  1.55174200  0.23637700  0.11106300
  C  0.23900056 -0.47070764 -0.05328284
  O  0.13151689 -1.65655566 -0.25586691
  C -0.99830241  0.40085825 -0.00267978
  O -2.16292219 -0.36569399 -0.06727979
  H -1.89325190 -1.27563140 -0.28543548
  H -0.93963554  1.07385710 -0.87583072
  H -1.01835154  1.01126888  0.90773513
  H  1.80457758  0.72953870 -0.82918528
  H  2.33778437 -0.48419314  0.34056979
  H  1.49626093  0.98943731  0.89191728
