12
opt_min/./Reactant_1953_0_opt.xyz
  C -1.67706700 -0.20261300  0.05712700
  N -0.26328268  0.04545124  0.01239940
  C  0.72501962 -0.89522858 -0.07005699
  H  0.51451204 -1.94260024 -0.12440190
  C  1.90350677 -0.20140734 -0.06777295
  H  2.89870976 -0.59606952 -0.12535457
  N  1.66001447  1.12968854  0.01254664
  C  0.36302121  1.24261317  0.06939233
  H -0.15237528  2.17852222  0.14149610
  H -1.95995014 -0.89557718 -0.73414187
  H -2.20825864  0.73588010 -0.08234246
  H -1.95879121 -0.63500219  1.01847646
