16
opt_min/./Reactant_8569_0_opt.xyz
  C  2.55775100 -0.41049200  0.00548900
  C  1.11283931 -0.04710523 -0.02106832
  C -0.00096197 -0.84624844  0.00169737
  H -0.01029197 -1.91865581  0.02858784
  C -1.13975769 -0.00581266 -0.01759048
  C -2.56552753 -0.44228841  0.01581190
  H -2.69443333 -1.36024743 -0.54975776
  H -3.20925730  0.32243799 -0.40942687
  H -2.88559436 -0.63222054  1.03967382
  C -0.67426902  1.28225785 -0.05795511
  H -1.22173475  2.20341235 -0.08970054
  N  0.68870743  1.24583834 -0.05940398
  H  1.28952916  2.05052351 -0.08601813
  H  3.17219272  0.43147930 -0.30369743
  H  2.74723509 -1.24441151 -0.66248969
  H  2.86207519 -0.71140322  1.00751751
