7
opt_min/./Reactant_2515_0_opt.xyz
  O  1.71283800  0.13246900 -0.29929800
  C  0.41735822  0.00869633 -0.16336944
  N -0.24926463 -1.10399722  0.04776821
  O -1.52609930 -0.72390882  0.10430327
  N -1.59635812  0.61282595 -0.05909929
  N -0.45070148  1.07101017 -0.22405097
  H  2.14478620 -0.72864068 -0.22794576
