12
opt_min/./Reactant_3766_0_opt.xyz
  C  1.44517100  0.01495799 -0.21476198
  C -0.02894536  0.13796053  0.10834661
  C -0.44802643  1.45356415  0.47036705
  N -0.78702289  2.50132907  0.78347162
  C -1.03702818 -0.73054495 -0.56612597
  H -0.69239379 -1.45391172 -1.28861611
  H -2.01832345 -0.32373352 -0.77862783
  N -0.64843367 -0.98485954  0.79524857
  H -1.34136909 -0.73063928  1.48938336
  H  1.64082814  0.33154863 -1.23605937
  H  1.75293021 -1.01879926 -0.09665627
  H  2.03584149  0.63248024  0.45650280
