14
opt_min/./Reactant_2977_0_opt.xyz
  C  1.75062100 -0.07947500  0.57308500
  C  0.96241091  0.01897607 -0.70879604
  H  1.46972551  0.60372009 -1.47341732
  O  0.30426555 -1.11509212 -1.20355882
  C -0.50429224 -0.04968855 -0.79558309
  C -1.43143044 -0.27027558  0.38572251
  O -2.03295845  0.91967687  0.83667557
  H -2.42134209  1.38014902  0.08610724
  H -2.19337648 -1.00620877  0.09308633
  H -0.88751455 -0.66793832  1.24098382
  H -0.97968142  0.47816385 -1.62191374
  H  2.68848138 -0.58671416  0.37382590
  H  1.21220959 -0.62798677  1.33626907
  H  1.96922533  0.92009266  0.93743707
