16
opt_min/./Reactant_3451_0_opt.xyz
  C  1.24874600 -0.93260000 -0.71227500
  H  1.63031249 -0.98620969 -1.71852351
  H  0.84068927 -1.86197762 -0.34996009
  C  1.93772659 -0.03490974  0.26767741
  H  2.79177771  0.53249347 -0.06949747
  H  2.02805397 -0.36079915  1.29092341
  C  0.58278236  0.33613038 -0.25350503
  C -0.61210316  0.26089986  0.64714156
  H -0.39080506  0.06709548  1.68699303
  C -1.88579392 -0.33864279  0.11400823
  H -1.89430277 -0.68724533 -0.90545709
  H -2.48666345 -0.93826742  0.77876668
  C -1.79938430  1.13219727  0.36451372
  H -1.73775230  1.78229253 -0.49391896
  H -2.35129852  1.56480619  1.18414693
  H  0.54226975  1.14509136 -0.97005918
