10
opt_min/./Reactant_9380_0_opt.xyz
  O  0.83145514 -0.73041306  1.74048537
  C  0.68090175 -0.30384802  0.62895236
  C -0.45850786 -0.68920105 -0.30244491
  C -1.27596821  0.49939295 -0.46518056
  C -1.92144724  1.50177284 -0.56288209
  H -2.50626491  2.36521160 -0.67307793
  H -1.04604120 -1.49862677  0.13489283
  H -0.05816212 -0.99587333 -1.27356442
  C  1.55797975  0.66862998  0.00172202
  N  2.23521491  1.39719407 -0.56356500
