11
opt_min/./Reactant_299_0_opt.xyz
  C  1.73876600 -0.02700200 -0.22437900
  C  0.41599250  0.07549740  0.46440100
  O  0.25884527  0.23916963  1.65116342
  C -0.80672018 -0.07407122 -0.46544690
  O -0.70998484 -0.25136748 -1.65919895
  N -1.95997929  0.01781352  0.21787153
  H -2.84506970 -0.05194956 -0.26067281
  H -1.94061919  0.16605579  1.21527735
  H  1.59572190 -0.22797851 -1.28199109
  H  2.28360050  0.90605904 -0.09134033
  H  2.32771780 -0.81708733  0.23792768
