16
opt_min/./Reactant_7534_0_opt.xyz
  C  2.41787202  0.75199198 -0.73484893
  O  1.03242400  0.74258652 -0.95620101
  C  0.35017314 -0.22981988 -0.20306305
  C -1.15390251 -0.08913896 -0.46960037
  C -1.94862644 -1.23529459  0.16532496
  H -3.01410468 -1.06056010  0.05265778
  H -1.69010604 -2.17669924 -0.30917048
  H -1.72527147 -1.30757330  1.22508850
  C -1.61874694  1.17925429  0.04441762
  N -1.99287841  2.17062694  0.47133946
  H -1.30407371 -0.07870957 -1.55510402
  H  0.67948668 -1.23930784 -0.49428440
  H  0.55527545 -0.10035919  0.87141209
  H  2.86889807 -0.21150755 -1.00419993
  H  2.65592415  0.97108722  0.31114667
  H  2.82447132  1.53198502 -1.37213285
