14
opt_min/./Reactant_11692_0_opt.xyz
  C -2.22907000 -0.44429000  0.04927000
  C -0.81468110  0.02623725  0.08900032
  C -0.36139711  1.23266189  0.51356600
  H -0.88172067  2.08578495  0.89580428
  O  1.00045014  1.30449656  0.40730122
  C  1.40116922  0.12040852 -0.09128818
  N  2.74376493 -0.05132579 -0.28632426
  H  3.07786563 -0.90692995 -0.68009574
  H  3.37739639  0.69536896 -0.08326777
  C  0.34201993 -0.71063744 -0.30988841
  H  0.37196949 -1.70591411 -0.69871185
  H -2.28679020 -1.41763433 -0.43092899
  H -2.63234368 -0.52953545  1.05694359
  H -2.85074151  0.25534060 -0.50565464
