16
opt_min/./Reactant_9963_0_opt.xyz
  C  3.45656283  0.20647979 -0.36051756
  C  2.05357741  0.19301276 -0.71747515
  C  0.88900558  0.21486199 -1.00300107
  C -0.52945698  0.28776262 -1.30390743
  N -1.26175967  0.70110328 -0.12278698
  C -1.66242279 -0.31367808  0.81064057
  H -1.41644920 -1.35049903  0.59690529
  H -1.58820651 -0.04603184  1.85448166
  C -2.65783493  0.35711493 -0.05566283
  H -3.30531792  1.11772796  0.35391075
  H -3.09484017 -0.21933846 -0.86610050
  H -0.88128449 -0.68387141 -1.70538357
  H -0.70503308  1.04721490 -2.07515545
  H  4.07253317 -0.13106828 -1.19514621
  H  3.64345529 -0.44784364  0.48828496
  H  3.75303686  1.22421235 -0.10490596
