16
opt_min/./Reactant_2557_0_opt.xyz
  C -1.26678300  1.29309400  0.17445200
  C -0.30176849  0.13079209  0.40648774
  C -0.95154229 -1.19483580  0.01220403
  H -1.75227188 -1.43816182  0.70605197
  H -1.36545596 -1.12854777 -0.99055483
  H -0.22893847 -2.00557521  0.02036482
  C  1.00648850  0.35981716 -0.34408784
  H  1.23760593  1.40478410 -0.54079423
  C  2.14110721 -0.55609830 -0.21711126
  H  2.04575012 -1.46124088  0.37082833
  H  3.15194744 -0.17189421 -0.30202727
  O  1.37223336 -0.50005749 -1.38345219
  H -0.06433954  0.09698947  1.47717259
  H -1.70754480  1.22915297 -0.81769268
  H -0.75271782  2.24759002  0.25944147
  H -2.06841280  1.27364374  0.90821189
