21
opt_min/./Reactant_11598_0_opt.xyz
  C -2.58613000 -0.07760700 -0.97972700
  C -2.06908903 -0.49378621  0.39557850
  C -0.75401333  0.18085535  0.77860757
  C  0.41361590 -0.20029752 -0.12862556
  C  1.73194388  0.38145128  0.37300422
  C  2.90889220 -0.01232108 -0.52017507
  O  4.14270161  0.47480406 -0.04440250
  H  4.09447488  1.43505154  0.00604854
  H  3.01885642 -1.09737153 -0.54024567
  H  2.73203178  0.33403858 -1.54921582
  H  1.65485684  1.47144863  0.40708915
  H  1.93515554  0.02921913  1.38491497
  H  0.49854702 -1.28747923 -0.18050593
  H  0.23329167  0.16324825 -1.14077681
  H -0.88900673  1.26390398  0.75718279
  H -0.50485218 -0.09919136  1.80361638
  H -1.94074515 -1.57707608  0.41357135
  H -2.81670740 -0.23359458  1.14641493
  H -1.92883502 -0.43544765 -1.76457076
  H -3.57131266 -0.49815362 -1.14833114
  H -2.65759486  1.00306748 -1.04475231
