16
opt_min/./Reactant_3093_0_opt.xyz
  C  1.25767500  0.78846600 -0.11216400
  H  1.14585402  1.33224888 -1.04816600
  H  2.10376780  1.19744238  0.42997256
  C  1.28672948 -0.74804097 -0.25810917
  H  2.12637239 -1.21085479  0.25091295
  H  1.22822786 -1.11541854 -1.27755908
  C -0.02480841 -0.84610419  0.54095624
  H -0.03628019 -1.53418944  1.38321249
  C -1.30688834 -0.75913906 -0.30251026
  H -1.18817975 -1.08630561 -1.33094194
  H -2.15637318 -1.27164291  0.13905687
  C -1.33062249  0.77275539 -0.11329629
  H -2.18495628  1.13056294  0.45054829
  H -1.24110947  1.34583512 -1.03149112
  C -0.03496550  0.69040003  0.71316252
  H -0.04001469  1.17251335  1.68755580
