12
opt_min/./Reactant_2626_0_opt.xyz
  C -1.55971300  0.19686600 -0.08874500
  C -0.24820841 -0.53251915  0.18221472
  H -0.42394999 -1.47224642  0.71486418
  O  0.55748004 -0.75291334 -0.99434847
  C  1.66121684  0.00527796 -0.49114335
  H  1.90490024  0.86592632 -1.11714083
  H  2.55824913 -0.59933539 -0.34181885
  C  0.88320690  0.29751897  0.77342233
  O  1.06074366  0.91750716  1.77565176
  H -1.94138260 -0.11257812 -1.05710048
  H -1.40601381  1.27172604 -0.09766107
  H -2.29292683 -0.04288967  0.67482288
