15
opt_min/./Reactant_11899_0_opt.xyz
  O  1.84145400 -1.08837200 -0.11911300
  C  0.78988120 -0.27039821  0.30167980
  H  1.06881017  0.02804293  1.31701848
  C  0.43165758  0.93059135 -0.59198313
  H  0.96439402  0.90924731 -1.54431364
  H  0.61019739  1.90195100 -0.13421105
  C -1.05826691  0.59951992 -0.78548175
  H -1.62064996  1.18566709 -1.50831732
  C -1.52153599  0.23029358  0.61991748
  H -2.57052749 -0.05518470  0.65342701
  H -1.27355491  0.86159894  1.46775359
  C -0.60556709 -0.95008147  0.27362452
  H -0.69120456 -1.95900595  0.66234089
  O -0.99652256 -0.80218608 -1.10121294
  H  1.74102387 -1.24286540 -1.06810221
