16
opt_min/./Reactant_9853_0_opt.xyz
  O  2.52429800  0.13137100  0.43071500
  C  1.37710253  0.05134231 -0.36815285
  H  1.65064578  0.12233446 -1.42744426
  C  0.38932385 -1.11063939 -0.09298569
  H  0.62388140 -1.65970949  0.81241209
  H  0.22365965 -1.79262054 -0.92014336
  C -0.70668549 -0.06825270  0.12011208
  C -2.09290214 -0.12365456 -0.37214883
  H -2.59649659  0.75477994 -0.74936487
  H -2.43615361 -1.04969813 -0.81025270
  N -1.79181908 -0.24014867  1.04753391
  H -1.99498755  0.59914037  1.57779697
  C  0.29686998  1.07660121  0.03468219
  H  0.09573029  1.87189813 -0.67870457
  H  0.51720463  1.50569020  1.00758884
  H  3.01078732 -0.69572359  0.36753128
