11
opt_min/./Reactant_4096_0_opt.xyz
  N  1.26687900 -0.07919400  0.21981600
  H  1.60262399  0.20206943  1.14171136
  C  0.25346370  0.85237425 -0.31792468
  H  0.46871156  1.86578780 -0.63935733
  C -0.49316932 -0.28719328 -1.04993807
  H -0.40037206 -0.67982565 -2.05347174
  O -1.78546979  0.06800212 -0.52017416
  C -0.90278139  0.33711097  0.58595374
  H -1.28023758  0.72801345  1.52462822
  C  0.02068497 -0.87324637  0.28967548
  H -0.01339448 -1.89237356  0.66008764
