10
opt_min/./Reactant_146_0_opt.xyz
  O  0.36566200  2.16168700 -0.59582200
  C  0.14354337  1.03291669 -0.29106433
  C  1.01128651 -0.18229863  0.02761147
  H  1.66955142 -0.10045625  0.89131623
  H  1.58233154 -0.49259077 -0.84881792
  C -0.29436859 -0.96392526  0.23204140
  H -0.49360702 -2.01269209  0.09023810
  O -1.01286661 -0.26812856  1.20718189
  C -1.12051760  0.21141100 -0.10613158
  H -2.07329551  0.29413771 -0.60651331
