11
opt_min/./Reactant_2417_0_opt.xyz
  C  1.26071200  0.05452400 -0.21523300
  H  1.33188166  0.85814312 -0.92791142
  H  2.20041386 -0.31306878  0.15527829
  C  0.10088350  0.04782444  0.74182799
  H  0.17394860 -0.10752844  1.80040454
  C -1.10728769  0.59124129 -0.01310526
  H -1.03196597  1.60902738 -0.39538588
  H -2.05423784  0.44275513  0.50359562
  O -0.94732286 -0.39025168 -1.05614999
  C  0.16488888 -0.95567993 -0.38074810
  H  0.31381955 -2.02136707 -0.37100593
