15
opt_min/./Reactant_9325_0_opt.xyz
  C  2.57940400 -0.22458800 -0.06280600
  N  1.18799391  0.09738969  0.07369338
  C  0.12979520 -0.59525497 -0.39051050
  H  0.23889864 -1.49083101 -0.96785823
  C -1.01048337  0.06973925  0.01705588
  C -2.43197740 -0.27207887 -0.25951219
  H -2.52650730 -1.32403078 -0.51780655
  H -3.05240398 -0.06103030  0.60771070
  H -2.80812632  0.31655931 -1.09694395
  C -0.50863411  1.16584599  0.74138846
  H -1.06776833  1.93875132  1.23125024
  N  0.80912879  1.16704417  0.76588344
  H  2.74867770 -0.73117535 -1.01170394
  H  3.15137058  0.70107643 -0.03364190
  H  2.91378913 -0.86633088  0.75534780
