21
opt_min/./Reactant_10311_0_opt.xyz
  C  2.61811700 -0.42385500 -0.76501700
  C  1.74657227 -0.56216912  0.48562505
  C  0.99252235  0.73491328  0.79920922
  O  0.24510997  1.26164529 -0.27454975
  C -0.83008682  0.47834217 -0.74596732
  C -1.97541771  0.30320767  0.25467359
  C -3.16300534 -0.39664150 -0.38993998
  H -3.52156477  0.16803076 -1.24656694
  H -3.97465984 -0.49799265  0.32463735
  H -2.88093573 -1.39124402 -0.72872911
  H -2.27148671  1.28825105  0.62091120
  H -1.63146549 -0.27912424  1.11088321
  H -0.47849226 -0.50891325 -1.07649407
  H -1.18872345  1.02583658 -1.62090424
  H  1.70971732  1.53008471  1.02226973
  H  0.35730432  0.58501776  1.68344839
  H  1.03197019 -1.37722530  0.35714505
  H  2.35914867 -0.79893225  1.35459723
  H  2.07590738 -0.73221071 -1.65436889
  H  3.52035451 -1.02124680 -0.68758758
  H  2.89970695  0.61737047 -0.90215737
