13
opt_min/./Reactant_8768_0_opt.xyz
  O  1.02302100  0.29798800 -2.46536700
  C  1.21725048  0.36212568 -1.28697015
  C  0.62923896 -0.59760696 -0.28134829
  H  0.89007572 -1.62197566 -0.56469394
  O  0.96471547 -0.34967126  1.08841894
  C -0.40469217 -0.23242187  1.44040781
  H -0.74712806 -0.64033265  2.37598818
  C -1.05040074  0.89933646  0.70069809
  H -2.06176094  1.13689832  0.99258954
  H -0.45014226  1.74426265  0.39974362
  C -0.86934032 -0.43202183  0.02580824
  H -1.66652197 -1.02794419 -0.37517228
  H  1.83989199  1.14748396 -0.81677413
