15
opt_min/./Reactant_7155_0_opt.xyz
  O  0.01362900 -1.59013300 -0.55763400
  C -0.25438803 -0.34029724 -0.01343123
  C  0.95268325  0.32481662  0.65681524
  C  2.10046876  0.32984979 -0.31708882
  O  3.04401577 -0.40484638 -0.26352945
  H  1.99013939  1.05695968 -1.14400423
  H  1.23951950 -0.24547948  1.54296664
  H  0.68807195  1.34192308  0.93724635
  C -1.24340364  0.51102917 -0.74267851
  H -1.71086773  0.10328014 -1.62355243
  H -1.05720554  1.57111153 -0.80205394
  C -1.60990724 -0.08234290  0.59135154
  H -1.67939322  0.56456149  1.45018408
  H -2.30733306 -0.90365888  0.58205609
  H  0.23472798 -2.21313376  0.14490775
