11
opt_min/./Reactant_5809_0_opt.xyz
  C -1.00114000 -0.17425400  0.17533400
  H -1.48956749 -0.17975581  1.14622267
  H -1.73024402 -0.36362409 -0.61084326
  C -0.09566946  1.04017658 -0.12659063
  H -0.34331615  1.55038741 -1.05360469
  H  0.00345480  1.76695216  0.67921377
  C  1.09291367  0.07900308 -0.24212549
  H  1.96505022  0.16303719 -0.86722890
  O  1.18989978 -0.60794688  0.97370441
  C  0.23327699 -1.07230794  0.06492844
  H  0.28879180 -2.09820948 -0.25693777
