17
opt_min/./Reactant_11529_0_opt.xyz
  C -1.67830900  0.73436800  0.29343300
  C -1.20460679 -0.69065919  0.14494901
  H -1.95366885 -1.41099936  0.46784274
  N -0.43340365 -1.00650990 -1.03286042
  H -0.66670785 -1.86891608 -1.50856022
  C  0.20591014 -1.15914960  0.26019726
  C  1.42994075 -0.34330091  0.57307280
  H  2.23863313 -0.94064752  0.97892216
  C  1.82470379  0.82376551 -0.25135396
  H  1.16121720  1.12445089 -1.05037995
  H  2.87475557  0.98949017 -0.43824833
  N  1.42705839  0.98846684  1.12427922
  H  0.51623517  1.40227889  1.27097280
  H  0.30668068 -2.17520193  0.63886129
  H -2.67757813  0.82919886 -0.12592852
  H -1.03142056  1.41962059 -0.24367592
  H -1.73078126  1.02095737  1.34136878
