17
opt_min/./Reactant_11048_0_opt.xyz
  C  2.80667300 -0.06802600 -0.00358200
  N  1.40503669 -0.36439343 -0.18256907
  C  0.46197670  0.44984443  0.37411652
  O  0.76630412  1.40441627  1.06438392
  N -0.84420731  0.09606967  0.14576484
  C -1.87526148  0.99034511  0.61633237
  H -2.71024771  0.41806324  1.02571459
  H -1.44689221  1.61283896  1.40013715
  H -2.24297863  1.63906739 -0.18680398
  C -1.24025217 -1.00878380 -0.69213502
  H -2.32334945 -1.10563732 -0.64684396
  H -0.80109655 -1.94592606 -0.33729275
  H -0.95891054 -0.85429853 -1.74128203
  H  1.15603179 -1.09691025 -0.82072012
  H  3.00729530  0.11752011  1.05305918
  H  3.09831629  0.82603477 -0.56256201
  H  3.40137349 -0.91494126 -0.33873368
