16
opt_min/./Reactant_8630_0_opt.xyz
  C -2.06751100  0.73907300 -0.77047900
  C -1.65179700 -0.52990286 -0.03435253
  C -0.22977073 -0.94870056 -0.37815953
  O  0.66847786  0.05413808  0.09796380
  C  1.97707983 -0.18039232 -0.13624753
  O  2.41108188 -1.13727482 -0.72257668
  N  2.72942666  0.84660194  0.33066403
  H  2.31004790  1.59340093  0.85439870
  H  3.72730736  0.81809935  0.21894786
  H  0.02668982 -1.90395565  0.09515190
  H -0.10071785 -1.06263773 -1.46006138
  H -1.71333982 -0.37092089  1.04328204
  H -2.31840362 -1.35292553 -0.29693813
  H -1.80480170  0.67002149 -1.82438040
  H -1.56415750  1.60545984 -0.34848370
  H -3.14174691  0.88981751 -0.69564674
