18
opt_min/./Reactant_4797_0_opt.xyz
  C  2.00245400  0.49735200 -0.47771500
  C  1.26402974 -0.71668174  0.07764413
  C -0.11585635 -0.38417239  0.65235477
  C -1.18034305 -0.02839976 -0.39585462
  C -2.58126698 -0.10226591  0.22269629
  H -3.30203948  0.33376160 -0.46649566
  H -2.86095157 -1.13597464  0.41499702
  H -2.61445963  0.45027122  1.16145541
  O -0.97531157  1.23964416 -0.98586346
  H -0.92581364  1.89454796 -0.27931923
  H -1.11732284 -0.73565368 -1.23240605
  H -0.47699177 -1.24970443  1.21247525
  H -0.02335846  0.44933715  1.35596375
  H  1.14556009 -1.45892185 -0.71624239
  H  1.87254007 -1.17181703  0.86386434
  H  2.94836267  0.19208581 -0.92209310
  H  2.21438161  1.21716751  0.31134968
  H  1.40275302  0.97786075 -1.24742185
