15
opt_min/./Reactant_3488_0_opt.xyz
  C -1.12159100 -1.10993300  0.11575500
  C -0.08518070 -0.02053993  0.38444820
  C -0.62807143  1.35234053 -0.01157564
  H -1.60501262  1.51772461  0.43161465
  H -0.72350412  1.42135164 -1.09098017
  H  0.03394504  2.14475323  0.31739566
  C  1.20824600 -0.32913390 -0.38415044
  O  2.21048959  0.64598349 -0.21489502
  H  2.35353131  0.77171806  0.72852574
  H  1.58161699 -1.31838747 -0.08603228
  H  1.00786917 -0.34761773 -1.45655858
  H  0.15081560 -0.01347629  1.45508433
  H -0.70312059 -2.09541305  0.29904170
  H -1.45491486 -1.06584460 -0.91544029
  H -1.98421758 -0.98055987  0.76017488
