14
opt_min/./Reactant_8993_0_opt.xyz
  C -2.53310600  0.25209600 -0.05694300
  N -1.23696311 -0.33959602 -0.30490795
  C -0.10170421  0.28547914  0.13417372
  O -0.11101233  1.34165458  0.70128882
  N  1.04270186 -0.46843170 -0.16695393
  C  2.34423250 -0.14246237  0.12594271
  N  2.67559906  0.90974219  0.72112039
  H  3.67114271  1.02268684  0.87254113
  H  3.03379820 -0.93039324 -0.23447415
  H  0.90281374 -1.34209590 -0.65084574
  H -1.19884930 -1.23794587 -0.75330405
  H -3.26014683 -0.17367939 -0.74309489
  H -2.46680359  1.32822173 -0.21082469
  H -2.85278451  0.07677675  0.97304871
