15
opt_min/./Reactant_1996_0_opt.xyz
  C -1.71366600 -0.75334200  0.01155100
  N -0.99280334  0.29878727 -0.67379670
  C -0.40083082  1.38098542  0.06432012
  H -0.43967119  1.35920257  1.14963241
  H -0.51511323  2.36357027 -0.36990942
  C  0.44662068  0.36840937 -0.61394896
  C  1.29180477 -0.60886819  0.18395100
  O  2.64016127 -0.22327293  0.22696426
  H  2.69391054  0.68263351  0.55767162
  H  0.87445803 -0.71502164  1.19849058
  H  1.28499534 -1.58788311 -0.30269328
  H  0.91273791  0.63864613 -1.55693574
  H -1.18324450 -1.70401939 -0.04335330
  H -2.67651073 -0.86974295 -0.48635674
  H -1.89086738 -0.52272749  1.06558728
