18
opt_min/./Reactant_11102_0_opt.xyz
  C -2.31106500  0.88446500 -0.38917700
  C -1.43731265 -0.22560400  0.16145532
  H -1.42523066 -0.28625068  1.24870444
  C -1.24125868 -1.49134424 -0.58479552
  H -1.06179128 -2.39056276 -0.00408153
  H -1.73349604 -1.64373442 -1.53286925
  N -0.22734054 -0.47683734 -0.56349520
  C  1.00825208 -0.70709617  0.12976240
  C  1.73516310  0.61658901  0.39337305
  O  2.13067937  1.19884450 -0.82700865
  H  2.90160366  1.75295354 -0.68582922
  H  1.05492892  1.29493742  0.92688806
  H  2.59090165  0.41248031  1.04704648
  H  1.63433334 -1.34559417 -0.49449764
  H  0.86258486 -1.20259905  1.11076778
  H -2.95315568  0.51453020 -1.18135531
  H -2.92962064  1.31473329  0.39416017
  H -1.68009694  1.66441930 -0.80309090
