11
opt_min/./Reactant_1096_0_opt.xyz
  C -1.68930600 -0.04183500  0.09371400
  C -0.21022728 -0.14845764  0.03129644
  C  0.77236454  0.76996227 -0.22265163
  H  0.66275295  1.80832251 -0.44853626
  C  1.96118922  0.01265643 -0.11920623
  H  2.96996225  0.35077101 -0.24883959
  N  1.70392597 -1.22908732  0.17033289
  O  0.35590172 -1.34046633  0.26889010
  H -1.98965425  0.51088459  0.98289092
  H -2.06140338  0.48812165 -0.78065513
  H -2.12673858 -1.03536630  0.13103191
