15
opt_min/./Reactant_9119_0_opt.xyz
  C  2.13733800  0.37221900 -0.20589700
  C  0.84626520 -0.19432450 -0.72346430
  O  0.77757742 -0.89457843 -1.70737763
  C -0.38657070  0.16895316  0.03661421
  O -0.16316496  1.01852498  1.11750526
  H -0.99344668  1.14991966  1.58600123
  C -1.66661441  0.28352558 -0.77159057
  H -1.58102052  0.13805333 -1.83651564
  H -2.37849493  1.03889256 -0.47828018
  C -1.45800338 -0.89959390  0.11627845
  H -2.02447556 -0.97196946  1.03113681
  H -1.23249440 -1.84364384 -0.34810954
  H  2.10376497  0.48443634  0.87300115
  H  2.96619121 -0.25849053 -0.51331133
  H  2.27376454  1.35466724 -0.64813656
