9
opt_min/./Reactant_214_0_opt.xyz
  O -1.11406009 -0.24044397 -0.87354689
  C -0.20002100  0.69214597 -0.37393327
  C  0.88014165  0.10734652  0.52662822
  O  1.78024189  0.74640895  1.00430075
  C  0.71088421 -1.31369381  0.78174549
  N  0.55947291 -2.42314819  1.01524501
  H -0.68860005  1.51728067  0.16690156
  H  0.29484558  1.12664180 -1.25127295
  H -1.63079507 -0.63851130 -0.16301715
