15
opt_min/./Reactant_11795_0_opt.xyz
  C  2.40261500  0.00520800 -0.13506600
  N  1.07088119 -0.41418672  0.20779805
  C -0.06388253  0.13973170 -0.28168479
  N -0.20213002  1.09887983 -1.10585935
  H  0.66121687  1.51602486 -1.43247564
  C -1.30508876 -0.51400349  0.26563608
  O -1.21464277 -1.43230947  1.04917546
  C -2.60918528  0.05425722 -0.20645812
  H -3.09380236  0.54063219  0.63412222
  H -2.43992748  0.77030064 -1.00065983
  H -3.25378024 -0.74792774 -0.54950169
  H  0.95304429 -1.15726258  0.87794806
  H  2.68565737  0.93547754  0.37194977
  H  2.49131000  0.16218899 -1.21234513
  H  3.11184251 -0.76730276  0.14941227
