13
opt_min/./Reactant_2459_0_opt.xyz
  N  2.15338300 -0.37634700 -2.57892600
  C  1.29990153 -0.56990134 -1.84408915
  C  0.21795198 -0.80611078 -0.92304670
  C -0.12100992  0.45816150 -0.15224072
  H -0.03849233  1.35478241 -0.75009421
  C -1.20760303  0.41537049  0.87664485
  H -1.71236251 -0.51391442  1.07902969
  H -1.85865749  1.27139606  0.95686676
  C  0.22190555  0.57825732  1.30218257
  H  0.70855773 -0.26398296  1.76666423
  H  0.53913506  1.53326586  1.68548230
  H  0.51818335 -1.60990594 -0.24634000
  H -0.64515021 -1.15531733 -1.49858943
