13
opt_min/./Reactant_5505_0_opt.xyz
  C -1.43282300  0.20993801  0.18715000
  C -0.36605448 -0.88229809  0.14673403
  O  0.80882720 -0.54376185  0.86514467
  C  1.56861172  0.50423820  0.30842666
  C  2.06567732  0.21624979 -1.02664122
  N  2.44005969 -0.01692745 -2.08104913
  H  2.42326263  0.63918458  0.97993410
  H  0.99399920  1.44338388  0.25640181
  H -0.11903035 -1.13258525 -0.89290642
  H -0.72302768 -1.78103573  0.65492996
  H -1.53231898  0.57968614  1.20588280
  H -2.38878669 -0.20059358 -0.12457347
  H -1.18750976  1.03699044 -0.47441749
