20
opt_min/./Reactant_3448_0_opt.xyz
  C  1.23939300 -1.24914100 -0.10876600
  C  0.75742108  0.18106297 -0.38070664
  C  1.51800228  1.15109659  0.52180714
  H  1.41176804  0.86235389  1.56455526
  H  2.57738504  1.12986739  0.27895960
  H  1.15881754  2.16951533  0.40571513
  C -0.77461289  0.35795842 -0.24602277
  C -1.51888237 -0.54948442 -1.21803395
  H -1.13427230 -0.43125108 -2.22668098
  H -1.42800447 -1.59186217 -0.92378547
  H -2.58023812 -0.30950991 -1.22101777
  C -1.29629413  0.14413584  1.17674123
  H -2.37556283  0.25505203  1.19775252
  H -1.04883367 -0.85196707  1.53170876
  H -0.86218337  0.87008179  1.85676801
  H -0.98306391  1.39737579 -0.52135534
  H  1.00062075  0.42015463 -1.42011767
  H  0.89009298 -1.92819941 -0.88051042
  H  2.32344245 -1.27750874 -0.09139422
  H  0.87171751 -1.59992977  0.85060892
