16
opt_min/./Reactant_8002_0_opt.xyz
  C  3.48468901  0.46915198 -0.16845800
  C  2.08788834  0.30422797 -0.50936879
  C  0.92733577  0.17843717 -0.77761121
  C -0.47924491  0.03137052 -1.10324543
  C -1.35723827  0.10470955  0.13750665
  H -1.03571081  0.80468765  0.89748540
  C -2.81110028 -0.13673012  0.00705623
  H -3.19417094 -0.38560323 -0.97587538
  H -3.50810418  0.39302575  0.63925973
  N -1.96180036 -1.07965047  0.69925286
  H -1.77804387 -1.92870591  0.17728299
  H -0.63676782 -0.92557842 -1.60662689
  H -0.76561960  0.82515313 -1.79852662
  H  4.04014279 -0.42606640 -0.43338001
  H  3.58351294  0.63897187  0.90274496
  H  3.89702160  1.32295209 -0.70366216
