9
opt_min/./Reactant_4343_0_opt.xyz
  C -0.05718300  1.33087100  0.42328700
  H -0.07746484  2.40611282  0.53835544
  N  1.13324626  0.75419477  0.44863473
  C  1.11592401 -0.55977023  0.30491721
  H  2.06509142 -1.07802543  0.31878277
  N  0.02722673 -1.29392064  0.14497109
  C -1.10502213 -0.61142888  0.13538625
  H -2.01846297 -1.17666565  0.00669488
  N -1.20840309  0.70009089  0.26993713
