15
opt_min/./Reactant_8839_0_opt.xyz
  C -0.77326400  0.85217001  1.04343499
  C -0.25916021 -0.16234755  0.05103683
  C  0.48470723  0.45815022 -1.13621032
  C  1.67282873  1.13406790 -0.69157616
  N  2.61374076  1.67296828 -0.32970847
  H  0.76741606 -0.30862973 -1.86276466
  H -0.17309294  1.17328585 -1.63889504
  C  0.14776943 -1.51756523  0.48929176
  H  0.95710360 -2.02621470 -0.01888820
  H  0.03658764 -1.77727384  1.53063023
  N -1.11382054 -1.29565390 -0.19034573
  H -1.17204183 -1.62918872 -1.14299656
  H -1.57969750  1.43954828  0.61423311
  H -1.16082376  0.35857937  1.92868745
  H  0.03784662  1.51085175  1.34316177
