10
opt_min/./Reactant_4492_0_opt.xyz
  N  2.06059500 -0.07059200  0.01592500
  C  0.71162928 -0.09422428 -0.01600700
  N -0.05035795 -1.14638212  0.01502910
  C -1.32685392 -0.64609383  0.00201393
  H -2.16941527 -1.30479441  0.02431945
  C -1.27682293  0.70407344 -0.04661396
  H -2.00373354  1.48803645 -0.07441666
  O  0.04164866  1.07243550 -0.06069454
  H  2.53237626  0.79348687 -0.17310521
  H  2.55403807 -0.93796593 -0.06521049
