13
opt_min/./Reactant_10127_0_opt.xyz
  O -0.40983800  0.43379900  2.63505800
  C -0.25101059  0.54339855  1.45062393
  N  0.88645019  0.94975132  0.82252297
  H  1.74826655  1.07287144  1.33038370
  C  0.88016053  0.71887939 -0.60534257
  H  1.20449968  1.60215396 -1.16252586
  H  1.52900108 -0.12431211 -0.88474280
  C -0.59188598  0.40576488 -0.83053866
  H -1.11270394  0.91726730 -1.62792301
  C -1.10009553 -0.87446081 -0.30617646
  H -2.01960457 -1.29916026 -0.68344763
  H -0.37720704 -1.61194401  0.03223269
  N -1.25035264  0.34800690  0.45749298
