16
opt_min/./Reactant_672_0_opt.xyz
  C -0.78373100  1.20226000  0.50578200
  C -0.44014808 -0.26763972  0.24168447
  C -1.57388346 -0.97108219 -0.49882927
  H -2.51307854 -0.84181549  0.02858883
  H -1.67285543 -0.56621128 -1.50007496
  H -1.37033296 -2.03404810 -0.58321516
  C  0.86000345 -0.35352919 -0.54447680
  O  0.91653575 -0.78977882 -1.66600852
  C  2.08452533  0.18291197  0.15953145
  H  1.98309631  0.16606439  1.23904763
  H  2.95286955 -0.39680608 -0.14060692
  H  2.24705582  1.20652974 -0.16944202
  H -0.27077502 -0.76690685  1.20111458
  H -1.72207529  1.27493966  1.04572227
  H -0.88689710  1.73483074 -0.43575479
  H -0.01411805  1.69240749  1.09480503
