19
opt_min/./Reactant_8019_0_opt.xyz
  C -1.79587400  1.15258800 -0.71681200
  O -0.55879391  0.59373460 -1.06598360
  C -0.09892080 -0.42884224 -0.18918296
  C -0.69712086 -1.78286481 -0.55638545
  H -1.78436891 -1.75400539 -0.51639352
  H -0.34761078 -2.55741237  0.12084415
  H -0.40959952 -2.05117221 -1.57146947
  C  1.42364632 -0.46392074 -0.28460794
  C  2.05924925  0.85682457  0.13856379
  O  3.46164341  0.70381014  0.06414550
  H  3.88676992  1.54903493  0.24381590
  H  1.71436806  1.65317936 -0.53205285
  H  1.76287106  1.11398235  1.16693513
  H  1.82272397 -1.26306768  0.33902396
  H  1.71425331 -0.65704343 -1.31836174
  H -0.39130307 -0.16542379  0.84185431
  H -2.61165332  0.41978815 -0.74834374
  H -1.99677155  1.92347062 -1.46025967
  H -1.76320616  1.60073037  0.28392398
