16
opt_min/./Reactant_4080_0_opt.xyz
  C  1.42258100  0.83522200 -0.70840100
  C  0.92735796 -0.29097798  0.16866630
  H  1.59332972 -1.14342033  0.19620437
  C  0.17581421 -0.01482153  1.44475868
  H  0.36241481 -0.65521818  2.29024575
  H -0.04536279  1.00708836  1.70030387
  C -0.54247026 -0.61383332  0.27040822
  C -1.54682590  0.19820147 -0.52241406
  H -1.50182185  1.24885386 -0.25943421
  H -1.37810935  0.10721624 -1.59432682
  H -2.54543771 -0.16559032 -0.29809634
  O -0.90468865 -1.96137882  0.41239233
  H -0.71100790 -2.43026845 -0.40549081
  H  2.50266864  0.92020098 -0.63978534
  H  1.16824652  0.65558369 -1.75059237
  H  0.98673687  1.78259094 -0.41058516
