12
opt_min/./Reactant_159_0_opt.xyz
  C -1.63392300 -0.31750800 -0.17940300
  N -0.20411410 -0.44870437 -0.26122829
  C  0.69484452  0.39616557  0.29700499
  N  0.51645425  1.44149452  0.99759718
  H -0.45373033  1.69850508  1.15764947
  C  2.10946449  0.00063170  0.03603041
  O  2.42661423 -0.95076665 -0.62906373
  H  2.84904104  0.66928680  0.50351481
  H  0.18041091 -1.19733697 -0.82034885
  H -2.02386831  0.34764921 -0.95748562
  H -2.09801953 -1.29569162 -0.29229061
  H -1.91419908  0.08537650  0.79587988
