13
opt_min/./Reactant_728_0_opt.xyz
  O  2.18348900  0.35009400 -0.60804700
  C  1.19973743 -0.37472314  0.08944448
  C -0.17996410 -0.22328253 -0.51404458
  H -0.17236132 -0.35094257 -1.59089146
  C -1.37656293 -0.72387563  0.23893964
  H -1.21147310 -1.14749806  1.21852257
  H -2.16494098 -1.20796906 -0.31595576
  C -1.16846090  0.74665805  0.05967518
  H -0.86665603  1.32987282  0.91788882
  H -1.82125034  1.27800518 -0.61603955
  H  1.17317268 -0.07860863  1.14990289
  H  1.51864065 -1.41994214  0.03450460
  H  1.91067879  1.27552435 -0.64422933
