13
opt_min/./Reactant_4546_0_opt.xyz
  O  2.86898300 -0.01350400  0.01647300
  C  1.68592732  0.14822903 -0.10361646
  C  0.67076647 -0.32758534  0.90306783
  N -0.73988550 -0.11500300  0.68309920
  C -1.35929172 -0.63499023 -0.51021094
  H -0.72080665 -1.06214069 -1.27810654
  H -2.30005217 -1.14923659 -0.36379760
  C -1.28276205  0.82277898 -0.26587656
  H -2.16760699  1.33826540  0.09053420
  H -0.64666970  1.44099513 -0.88562010
  H  0.82629665 -1.40651012  1.03415800
  H  0.92520880  0.13483610  1.86664221
  H  1.28195351  0.66655868 -0.99529468
