8
opt_min/./Reactant_150_0_opt.xyz
  C -1.36476400 -0.01602600  0.04336800
  H -2.44262782 -0.01588648  0.07745860
  N -0.75978229  1.16472501  0.00907753
  N  0.53622177  1.17711311 -0.03206782
  C  1.16235697  0.00821110 -0.03686624
  H  2.24047530  0.00416424 -0.07090138
  N  0.55622910 -1.17282704 -0.00255576
  N -0.73946926 -1.18582365  0.03858788
