13
opt_min/./Reactant_9666_0_opt.xyz
  O -1.63853500 -1.41765700  0.43315900
  C -0.48385580 -0.67332838  0.49504686
  H  0.01493842 -0.92496382  1.43038506
  C  0.37618203 -0.60217525 -0.81843492
  H  0.56701105 -1.44487652 -1.47579832
  O -0.57985084  0.36587312 -1.30072377
  C -0.59824780  0.82516223  0.06780604
  H -1.42943600  1.47236676  0.33466142
  C  0.84321918  1.26123086  0.27667447
  H  1.17339125  2.13804454  0.79247754
  C  1.50710901  0.28203210 -0.32813724
  H  2.55414099  0.10755491 -0.45962296
  H -2.12504255 -1.12110393 -0.35060878
