15
opt_min/./Reactant_6671_0_opt.xyz
  C  1.54072000 -0.12963600  0.54816700
  C  0.34523490  0.05667743 -0.39069713
  O  0.74145817  0.12274183 -1.73539456
  H  1.16767382 -0.70747748 -1.97752985
  C -0.86260598 -0.87941391 -0.09012437
  H -1.24544591 -1.36980725 -0.98302869
  H -0.68133988 -1.61856549  0.68542459
  C -1.70450139  0.33482920  0.35288402
  H -2.57749292  0.53376174 -0.26560453
  H -1.98934256  0.36154439  1.40233489
  C -0.54007330  1.24446343  0.01548604
  O -0.36820128  2.42221322  0.07104093
  H  1.20009834 -0.21458040  1.57441986
  H  2.20965012  0.72390455  0.46630980
  H  2.09415510 -1.02347923  0.26405896
