16
opt_min/./Reactant_6469_0_opt.xyz
  C -0.70525500  1.44770200  0.09538100
  C -0.06105490  0.06691901  0.26897383
  C -0.92073443 -1.03807532 -0.36235202
  O -2.17489439 -1.04458075  0.27345293
  H -2.71887951 -1.74206684 -0.10717903
  H -0.41040660 -2.00293523 -0.22845708
  H -1.02698003 -0.84853774 -1.44189287
  N  1.27197919  0.03300313 -0.29889356
  C  2.36508151 -0.34011992  0.39173907
  O  2.39820174 -0.68487066  1.54424167
  H  3.27726743 -0.28336427 -0.24092249
  H  1.35829856  0.29131154 -1.27034061
  H  0.06418596 -0.16714134  1.33071785
  H -0.14880574  2.04012370 -0.62741639
  H -1.72799353  1.34160418 -0.25354776
  H -0.72667233  1.98534643  1.03733347
