16
opt_min/./Reactant_6602_0_opt.xyz
  C -1.92890500 -0.15467400 -0.98522700
  C -0.56192563  0.40936301 -0.62665610
  O -0.64191175  1.73957670 -0.14897481
  H -1.51203316  1.87368371  0.24435484
  C  0.13240510 -0.47965205  0.42736284
  N  1.51247727 -0.08786984  0.61490537
  C  2.46274317 -0.43728875 -0.26978418
  O  2.30305415 -1.14318042 -1.23204450
  H  3.44560289  0.01118306 -0.01314267
  H  1.72734882  0.56344070  1.35152761
  H  0.11005522 -1.51945021  0.09083722
  H -0.39142163 -0.38869742  1.38178979
  H  0.07687446  0.43942999 -1.51587401
  H -2.50937544 -0.36475681 -0.08594383
  H -1.82006189 -1.07522703 -1.55247599
  H -2.47807590  0.55939003 -1.59771547
