8
opt_min/./Reactant_5200_0_opt.xyz
  O  1.40411000  1.22794000  0.45481900
  C  0.97208544  0.60454617 -0.46476076
  C -0.24532271 -0.32375027 -0.42618428
  O -0.59983733 -0.90967264 -1.41681732
  C -1.00229726 -0.49285465  0.89337147
  O -0.73175841  0.04101611  1.92453085
  H -1.85732973 -1.18905675  0.78096734
  H  1.42135710  0.63295612 -1.47739667
