13
opt_min/./Product_9836_0_opt.xyz
  C -1.20513800 -0.95679600 -0.26383100
  H -1.79067762 -1.59169466 -0.92117444
  H -1.21947009 -1.34687772  0.76339496
  O -1.81242734  0.36375295 -0.24239768
  C -0.81342120  1.29567706  0.01275069
  H -1.16922539  2.22028933  0.42618476
  C  0.36959661  0.72369109 -0.09742411
  C  1.82837147  0.40792204 -0.00913859
  H  2.30310772  0.57642538  0.96207273
  H  2.44456952  0.80777648 -0.81736340
  O  1.49648500 -0.99096341 -0.19231273
  C  0.20182100 -0.62568929 -0.72701773
  H  0.25484407 -0.64202180 -1.82716182
