14
opt_min/./Product_5412_0_opt.xyz
  C -1.68172800 -0.53430300 -0.26776200
  C -0.45115551  0.04873768  0.43388834
  H -0.76802104  0.39530850  1.42559191
  C  0.56646511 -0.98771605  0.72637626
  C  1.82400691 -0.40792679  0.28038123
  H  2.51638349 -0.39623541  1.13431819
  H  2.27702284 -1.07076799 -0.46928811
  O  1.66121519  0.90867612 -0.24147046
  C  0.27408946  1.18365596 -0.33262094
  H  0.08171909  2.17123468  0.09395591
  H -0.02935247  1.20177423 -1.38767798
  H -2.52512929  0.14683625 -0.19929633
  H -1.46371027 -0.71046146 -1.31565350
  H -1.95625355 -1.47713954  0.19277528
