14
opt_min/./Product_6929_0_opt.xyz
  N -1.94803800  0.99326000  0.59473200
  C -0.92662063  0.46675567 -0.28781747
  H -1.29380733  0.56527356 -1.32198424
  C  0.45036030  1.09019113 -0.29278417
  C  1.30415967 -0.01775605 -0.13102410
  N  2.69495678  0.05473973 -0.00648191
  H  3.03038241  0.96375108 -0.29089083
  H  3.19970062 -0.69840863 -0.44947985
  C  0.58036911 -1.19905496  0.02435130
  H  0.96849434 -2.19482420  0.16331740
  N -0.73008645 -0.95969479 -0.01297523
  H -1.46941750 -1.63974414  0.00355669
  H -1.57827530  1.02144702  1.54110780
  H -2.15159114  1.94944378  0.32684497
