11
opt_min/./Product_6336_0_opt.xyz
  O  2.55704900 -0.91851100 -0.33239200
  C  1.44205140 -0.59030786 -0.04825711
  O  0.50929705 -1.62961802  0.25261285
  C -0.75931015 -1.51243528  0.20393146
  C -1.32264720 -0.16532393 -0.16410663
  H -1.45676996 -0.30405882 -1.24526284
  H -2.31837033 -0.02439897  0.25520869
  C -0.41083064  0.96086777  0.11802629
  H -0.82392396  1.92607198  0.38018210
  C  0.91136070  0.74747499  0.11561197
  H  1.63675538  1.52194040  0.30961003
