16
opt_min/./Product_1484_0_opt.xyz
  C  1.98807000  0.24037600 -0.82122000
  C  0.71471868 -0.04859885 -0.00628526
  H  1.00771262 -0.53187062  0.93472177
  C  0.04148558  1.19126265  0.45607133
  C -1.40626472  0.95270223  0.30740946
  H -1.95916875  1.31578222  1.17612919
  H -1.69045537  1.60831143 -0.52317411
  C -1.64896411 -0.52555618 -0.04233838
  H -2.51429567 -0.67444004 -0.68415779
  H -1.79983102 -1.09436795  0.87595367
  C -0.33431749 -0.93393205 -0.71074361
  H -0.12076331 -1.99557280 -0.60785901
  H -0.35374358 -0.68762084 -1.77356862
  H  2.88664981  0.10497913 -0.22813304
  H  1.97313652  1.26261211 -1.18600058
  H  2.03913750 -0.43273627 -1.67428497
