10
opt_min/./Product_3888_0_opt.xyz
  C -1.74953300  0.26427700  0.13984900
  C -0.45598955  0.49850297  0.28709653
  N  0.54106507 -0.43095755  0.00778822
  C  1.86541256 -0.13559207  0.07183799
  O  2.33256301  0.92522860  0.38565716
  H  2.48238332 -1.00983391 -0.22254596
  H  0.24637951 -1.35124959 -0.28245690
  H -0.06218981  1.44200047  0.63632576
  H -2.12379833 -0.68432328 -0.20814160
  H -2.47926405  1.01564350  0.37416728
