15
opt_min/./Product_7518_0_opt.xyz
  O  1.94208200  0.75542000  0.42300600
  C  1.43025502 -0.52069085  0.16586549
  C  0.23125514 -0.53031123 -0.79854542
  C -0.90737723  0.35387272 -0.33215941
  O -0.67728887  1.69906982 -0.53068436
  H -1.47912621  2.11438453 -0.86737673
  C -1.80308982 -0.07594262  0.75185978
  H -1.68916407 -1.05034336  1.20381894
  H -2.29634588  0.66961192  1.36008522
  O -2.19725690 -0.08992235 -0.60765302
  H -0.13823883 -1.54971510 -0.89272529
  H  0.54078898 -0.17951011 -1.78473239
  H  1.11520424 -0.89736198  1.14213641
  H  2.19476289 -1.19447054 -0.24019304
  H  2.35852188  1.10463504 -0.37193502
