11
opt_min/./Product_5153_1_opt.xyz
  C  1.18876100 -0.26301000 -0.09856300
  C  1.46729836  0.96683890 -0.38090009
  O  1.73190697  2.08864401 -0.55629585
  C -0.20983987 -0.81559481  0.07606627
  C -1.29215651  0.24858313 -0.02074609
  H -1.38168061  0.63107434 -1.03235326
  H -1.06053277  1.08706522  0.63039893
  H -2.24951070 -0.16754001  0.27481813
  H -0.37419431 -1.58668075 -0.67818136
  H -0.26399382 -1.30305251  1.05189366
  H  1.98058225 -0.98614519 -0.21427418
