15
opt_min/./Reactant_8139_0_opt.xyz
  C  1.28082800 -0.37255800  0.44957500
  H  1.91858911  0.39347810  0.89676645
  H  1.65973247 -1.36151159  0.72545087
  O  1.29090110 -0.25089604 -0.97648543
  C -0.04670576 -0.00410062 -1.33505408
  H -0.15790643 -0.13003927 -2.41037238
  C -0.84719040 -0.90000758 -0.38382458
  H -0.57610079 -1.94638240 -0.47320613
  H -1.91842617 -0.74769567 -0.45937206
  C -0.20140065 -0.19269049  0.81206711
  H -0.48569776 -0.52020214  1.80969573
  C -0.54533958  1.26227587  0.46336389
  H -1.57393320  1.52062203  0.73520082
  H  0.13809071  1.98242153  0.91626704
  O -0.41877523  1.29905076 -0.96386493
