16
opt_min/./Product_4013_0_opt.xyz
  C  2.74124000 -0.39725600 -0.55663700
  C  1.43658999  0.13415436 -1.00938010
  O  0.77960163  0.98737892 -0.22176256
  C -0.58995815  1.07088149 -0.33132833
  C -1.25808157 -0.23213646  0.33038139
  C -2.68293892 -0.25385489  0.18961793
  H -3.12625177 -0.37543704 -0.78247817
  H -3.31496253  0.15460659  0.95451606
  H -0.74936790 -1.04774278 -0.20589204
  H -0.94422870 -0.24830217  1.37539836
  H -0.92111044  1.10038362 -1.37450576
  H -0.91321094  1.96552073  0.20210056
  H  0.99752782 -0.15631536 -1.95197130
  H  3.49445053 -0.31656681 -1.34204950
  H  3.07347540  0.15893671  0.31660867
  H  2.67684961 -1.45633654 -0.28516187
