11
opt_min/./Product_4888_0_opt.xyz
  O -1.21902400 -0.98989600  0.88960200
  C -0.75818505  0.06446924  0.17572189
  C -1.51367665  1.12137710 -0.08154444
  H -1.14705840  1.95195926 -0.65161583
  C  0.67173116 -0.06868029 -0.31183717
  O  1.36439012 -0.92924584  0.57523354
  H  2.29017727 -0.96793505  0.32298965
  H  0.66726448 -0.50123691 -1.32609076
  H  1.13912951  0.92035876 -0.36439212
  H -2.52382343  1.16255317  0.27982052
  H -0.45779900 -1.54936466  1.10314171
