7
opt_min/./Product_3552_1_opt.xyz
  C -0.75411955  1.12381348 -0.03623830
  C -0.18818723 -0.21498395 -0.15306754
  C  1.23730503 -0.30333159  0.06343080
  N  2.37041000 -0.38539174  0.17560319
  H -0.46946267 -0.84225522 -1.01247704
  H -0.68859674 -0.63431650  0.74452511
  H -1.72172070  1.16533501 -0.56196784
