12
opt_min/./Product_6797_0_opt.xyz
  O  0.14161500  1.55584000  0.49171800
  C  1.20886270  0.75786955  0.15081641
  H  2.13316026  1.29990856  0.26425242
  C  1.10331221 -0.48740834 -0.27874985
  H  1.97728710 -1.05143106 -0.55984065
  C -0.23012192 -1.15972548 -0.41182914
  H -0.40193858 -1.48576928 -1.44220975
  H -0.28923551 -2.04120548  0.23530430
  N -1.36257752 -0.30240543 -0.08907760
  C -1.08948584  0.97762677  0.43855715
  H -1.85004457  1.73479577  0.24985908
  O -1.44615263 -0.01188068  1.31857625
