14
opt_min/./Product_8264_0_opt.xyz
  C  1.74316300 -0.57514300 -0.00487900
  C  0.32450631 -0.10849363  0.06888302
  N  0.01397717  1.28508224 -0.31007841
  H -0.61737731  1.45001888 -1.09308429
  H  0.81682805  1.90707429 -0.27468139
  C -0.46262269  0.80420507  1.03868187
  C -1.78149381  0.10687391  0.57785795
  H -2.44331133  0.69494264 -0.05437011
  H -2.36943998 -0.32165629  1.38585670
  C -0.90823657 -0.90566535 -0.14416434
  O -1.03855784 -2.07252690 -0.42854369
  H  2.29845845 -0.22690492  0.86429778
  H  2.24281532 -0.23016683 -0.91041116
  H  1.74952351 -1.66057613 -0.01094858
