10
opt_min/./Product_8640_0_opt.xyz
  N -2.05480242  0.82720611 -0.83136639
  C  11.26584999 -12.21361304 -9.64790943
  C -0.40139722  0.40082742 -7.86324117
  C  8.48169601  0.47913101  24.35248879
  C  2.70269630  14.08711275  17.25977968
  O  5.26095281  7.33780839 -0.60066027
  H -0.48644666 -0.10774978 -2.03644963
  H -4.20121618 -9.71794905 -8.52699909
  O  4.62046091  23.81523435 -4.21766075
  H -4.60942665  0.03244358  4.34461400
