13
opt_min/./Product_10198_0_opt.xyz
  C  2.37285600 -0.63134600  0.41113100
  O  1.02352451 -0.23909334  0.61532635
  C  0.49566997  0.51254691 -0.30643015
  C -0.96465128  0.77553414  0.02393073
  O -1.43905310  1.86598560 -0.71679892
  H -2.27330853  1.64229886 -1.14625003
  C -1.71678729 -0.50905058 -0.20895836
  O -1.57894072 -1.52276608  0.41422907
  H -2.42539809 -0.44401103 -1.06425142
  H -1.06396791  0.99417521  1.10161908
  H  2.89295191 -0.52365514  1.36261160
  H  2.83989114 -0.01958397 -0.36193106
  H  2.38671140 -1.68040353  0.11038343
