17
opt_min/./Product_11562_0_opt.xyz
  C -2.28763968 -1.59033552 -0.00058190
  O -0.92021671 -1.32438871 -0.15598834
  C -0.43756978 -0.05033754  0.08943275
  C -1.28032920  0.98988969  0.78771553
  H -2.17068489  0.55910150  1.23682271
  H -1.58874840  1.76267169  0.08246302
  H -0.69191772  1.46389565  1.57250999
  C  0.76261526  0.24867548 -0.33260792
  C  1.97895810  0.55004046 -0.67650324
  C  3.18020447  0.36632854  0.20768911
  H  3.24969054  1.19339627  0.91667892
  H  3.10013064 -0.55986503  0.77375847
  H  4.09318647  0.34544595 -0.38311246
  H  2.15863465  0.99329648 -1.65024741
  H -2.42890441 -2.59687237 -0.39808672
  H -2.59664886 -1.58460194  1.05169801
  H -2.91450962 -0.89216212 -0.56757718
