9
opt_min/./Product_4627_0_opt.xyz
  O -1.53014800  1.50073400 -0.08196100
  C -0.72364702  0.61948023 -0.23497303
  N -0.92198303 -0.75507290 -0.18157559
  H -1.82737497 -1.15357970  0.00395052
  C  0.20711493 -1.48408314 -0.40079311
  N  1.13185833 -0.56361895 -0.59537289
  H  2.10416458 -0.73390396 -0.78868289
  N  0.61675805  0.73224951 -0.50491063
  H  1.14181238  1.58049425 -0.61861560
