11
opt_min/./Product_1471_0_opt.xyz
  C  1.69988600  0.39173500 -0.19978602
  C  1.10330012 -0.31939142  0.97190066
  O -0.13057387 -0.51768830  1.02625119
  C -1.11518743 -0.09267529 -0.02168276
  C -2.36306431 -0.75556691  0.22613739
  N -3.35206268 -1.29814057  0.41600103
  H -0.72215304 -0.36399162 -1.00439733
  H -1.24166557  0.99060827  0.06139166
  H  1.58902368 -0.21256535 -1.10257747
  H  2.75933170  0.57022510 -0.03694262
  H  1.20493185  1.35078245 -0.37292265
