8
opt_min/./Product_3918_0_opt.xyz
  O  2.25237772 -1.19903190  0.03802807
  N  2.20198940  0.01953764  0.10593131
  C  1.06189750  0.71084854 -0.26089571
  C -0.15428139  0.19874274 -0.21389636
  C -1.29442229 -0.36408583 -0.01157053
  H -1.85381973 -0.80492485 -0.82160578
  H -1.75167326 -0.41221314  0.96490536
  H  1.24298422  1.75753486 -0.46059252
