15
opt_min/./Product_11670_0_opt.xyz
  O  2.87401000  1.48962800 -0.04810000
  C  1.79040524  0.78210066 -0.45950978
  C  1.27154459 -0.26840518  0.15497588
  C  0.06257754 -1.00468494 -0.33276760
  C -1.05870089 -0.87230359  0.67035645
  C -2.11341192 -0.14473416  0.47993957
  C -3.15471312  0.58736647  0.24432254
  H -3.19040180  1.62824195  0.52003098
  H -4.04508706  0.18471976 -0.20990606
  H -0.92410508 -1.40856569  1.59967128
  H -0.25796483 -0.60505526 -1.29746341
  H  0.29721452 -2.06800998 -0.44811213
  H  1.70305044 -0.62437167  1.08358386
  H  1.39269276  1.18006779 -1.38144873
  H  3.19930400  1.12794014  0.78682053
