13
opt_min/./Product_2422_0_opt.xyz
  C  0.27705400  1.02950000 -0.49315600
  H  0.18365925  1.25114272 -1.55472194
  H  0.73260230  1.86144822  0.03543329
  C -0.96910030  0.44622751  0.20328968
  H -1.82093501  1.04720176  0.51326664
  C  0.01087857 -0.21945366  1.19146666
  H  0.43035844  0.46196634  1.92559177
  H -0.32951447 -1.13691260  1.66810024
  C  0.84481883 -0.35868093 -0.10528908
  H  1.90486457 -0.59978063 -0.11680289
  C -0.16579961 -1.18858146 -0.87830784
  H  0.02453578 -2.05265148 -1.48865107
  N -1.30997630 -0.68272765 -0.68943571
