9
opt_min/./Product_7228_1_opt.xyz
  O -1.32410300  0.72942700 -0.52170300
  C -0.62206535 -0.39438003 -0.04276355
  C  0.79666114 -0.08153091  0.36931003
  H  0.92522597  0.49033153  1.28183764
  C  1.93491371 -0.83042603 -0.20233902
  O  1.68819807  0.31026900 -0.69005633
  H -1.14891365 -0.84169164  0.81312261
  H -0.61567839 -1.12243068 -0.85813869
  H -1.16064019  1.48265924  0.05643998
