11
opt_min/./Product_2349_0_opt.xyz
  O  2.71347000  0.53751000  0.58901500
  C  1.52545986  0.54304897  0.44473199
  C  0.78687785 -0.12758905 -0.68732222
  N -0.63511456  0.05087972 -0.64267240
  C -1.31073581 -0.46553465  0.28532728
  O -2.62496267 -0.31189433  0.36022126
  H -2.91459958  0.24131345 -0.38361762
  H -0.92719842 -1.10077588  1.09417375
  H  1.14596709  0.30353100 -1.62745559
  H  1.07181598 -1.18823700 -0.68085979
  H  0.85759623  1.07349113  1.15640309
