14
opt_min/./Product_7380_0_opt.xyz
  C -0.97707800 -1.32279800  0.12830000
  H -1.60224666 -2.10233701 -0.28209784
  H -0.56710291 -1.54287352  1.10401522
  C -1.35020810  0.08935087 -0.20858297
  H -2.28995921  0.38403672 -0.63677040
  C -0.40267449  1.03786406  0.51863609
  H -0.38445595  0.98701036  1.60940033
  H -0.48076636  2.07940019  0.20069333
  N  0.71804507  0.36014446 -0.13085083
  C  2.02495676  0.35671216  0.15220410
  O  2.56750204  1.07940073  0.95354095
  H  2.56909740 -0.37529713 -0.48229138
  C -0.14206077 -0.54287032 -0.84917189
  H  0.06685958 -0.85353443 -1.86009760
