13
opt_min/./Product_10494_0_opt.xyz
  C  2.56027000 -0.18776300  0.26602600
  C  1.25713044  0.08996560  0.14783909
  C  0.69895682  1.47513878  0.20031598
  N -0.60129892  1.25689394  0.03719458
  H -1.29011942  1.99180036  0.02603718
  C -0.96245531 -0.09940245 -0.11012235
  N -2.27137947 -0.43096565 -0.28183394
  H -2.54007459 -1.38922374 -0.37154275
  H -2.97976736  0.27510560 -0.31164786
  C  0.16212103 -0.84031060 -0.04498297
  H  0.25822049 -1.90349031 -0.12515389
  H  3.28028558  0.59947132  0.40882748
  H  2.93168701 -1.20050718  0.23710142
