15
opt_min/./Product_1594_0_opt.xyz
  C  2.20998400 -0.56013700  0.12114600
  C  0.78357554 -0.35059758 -0.36307694
  C  0.01579398  0.60396840  0.56254150
  C -1.36019660  0.78005052  0.10691800
  N -2.24305090  1.60167792 -0.24532471
  C -2.60938451  0.14278253 -0.26088057
  H -2.72902011 -0.32443740 -1.23134800
  H -3.30298571 -0.20065954  0.49843411
  H -0.00348375  0.17953465  1.57182408
  H  0.50904801  1.57868403  0.60120116
  H  0.25918092 -1.30890123 -0.40449018
  H  0.79315168  0.06462352 -1.37389477
  H  2.74659554  0.38631324  0.15808070
  H  2.74281715 -1.22387086 -0.55670355
  H  2.22115587 -1.00086867  1.11611776
