14
opt_min/./Product_6924_0_opt.xyz
  N  2.40890500 -0.21694400 -0.00986700
  C  0.93607407  0.01322930  0.04743038
  C -0.12491327 -0.83362891 -0.21571649
  H -0.09666290 -1.85806969 -0.53550492
  C -1.24839548 -0.02567468  0.04109000
  N -2.60276749 -0.42266098 -0.00839571
  H -2.74956745 -1.15631199 -0.69201210
  H -3.22009490  0.35762926 -0.19552760
  C -0.76117585  1.21520809  0.42807284
  H -1.32932499  2.08501976  0.70437729
  N  0.58786501  1.24457373  0.43465351
  H  2.76178873  0.70840630  0.26566907
  H  2.71835231 -0.92979068  0.65978586
  H  2.73995928 -0.47338844 -0.94604796
