12
opt_min/./Product_8372_1_opt.xyz
  O -1.16790300 -1.17817600 -1.03525300
  C -0.41744991 -0.04411258 -0.78941147
  H  0.05571847  0.25907950 -1.73126351
  C -1.03238412  1.18316244 -0.11521713
  H -1.78531746  1.91385897 -0.31231578
  N -0.05137653  1.18387113  0.77280280
  H  0.18770432  1.84616986  1.50597950
  C  0.58085751  0.04714121  0.36597247
  C  1.68380153 -0.63664918  0.88100533
  O  2.17917561 -1.66671741  0.45413035
  H  2.09142566 -0.13735440  1.79185372
  H -1.11188926 -1.76702752 -0.27408442
