14
opt_min/./Product_7122_0_opt.xyz
  N -1.98677300  0.02595000  0.46009200
  H -2.95041172  0.02413564  0.75463093
  C -1.12361407  1.03202360  0.20607649
  O -1.22453536  2.22395240  0.25889853
  C -0.00270882  0.02605756 -0.15994183
  C  1.19323033  0.05347890  0.72057817
  C  2.43837036  0.09050494  0.28196252
  H  3.27592765  0.12043536  0.95716715
  H  2.67163240  0.10176944 -0.76967991
  H  0.98423615  0.05423793  1.78254149
  H  0.28267176  0.07174656 -1.20900077
  C -1.06816861 -1.05391898  0.16399171
  H -1.37148932 -1.67989211 -0.67605994
  H -0.83411424 -1.68374774  1.02395796
