11
opt_min/./Product_11504_0_opt.xyz
  N  2.31678800 -0.17876900  0.46578100
  C  1.06691458 -0.19374975  0.25041015
  C  0.30458442  1.02270646  0.27656717
  H  0.79658864  1.93935453  0.55147100
  N -0.93757123  0.98773230 -0.17684099
  H -1.40885576  1.84670101 -0.44250775
  C -1.67463097 -0.15643362 -0.13628011
  C -0.96771420 -1.29517598  0.00417505
  H -1.41788025 -2.26954346  0.09068302
  O  0.39604661 -1.34145310 -0.11387266
  H  2.74924150 -1.09246864  0.36900828
