14
opt_min/./Product_8726_0_opt.xyz
  C -1.14824800 -0.75048000 -0.45183400
  C -1.83355649 -0.28026998  0.80769022
  O -1.92404756  0.86435225  1.14942669
  H -2.28497667 -1.09409955  1.40455922
  C  0.01096755  0.17822444 -0.79937149
  C  1.05004827  0.11344589  0.31349293
  O  0.93517060 -0.59466613  1.28807094
  N  2.10148043  0.94908007  0.13671682
  H  2.85724474  0.91989121  0.80039464
  H  2.25070429  1.44085189 -0.72574204
  H  0.46886462 -0.09882703 -1.74985715
  H -0.34654286  1.20699003 -0.86333855
  H -0.79693994 -1.77211701 -0.31613877
  H -1.89586318 -0.73811961 -1.24924288
