15
opt_min/./Product_11390_0_opt.xyz
  C -0.66161000  1.19931200 -0.76847600
  C -0.21452131 -0.06366163 -0.05017640
  C -1.35763698 -0.98586937  0.24667752
  O -2.49295170 -0.83968990 -0.10930336
  H -1.05313674 -1.87210041  0.84368148
  C  0.73678130  0.13786172  1.17823822
  H  0.40485294 -0.32202164  2.10792667
  H  0.98428618  1.18115255  1.36079507
  C  1.75162182 -0.64115398  0.39099867
  H  2.75873563 -0.93863517  0.61720204
  C  0.96262314 -0.80601817 -0.66520736
  H  1.06862506 -1.28929585 -1.61777146
  H  0.20093735  1.78828828 -1.07106350
  H -1.29180294  1.79688889 -0.11340625
  H -1.24064058  0.93877500 -1.65093607
