15
opt_min/./Product_6541_0_opt.xyz
  C  2.08713667 -0.34607097  0.22023909
  N  1.06836503  0.25548890 -0.62743006
  C -0.25471823  0.31885253 -0.11839347
  C -0.94736865 -0.99171031  0.17541902
  O -2.33521267 -0.76256211  0.25001393
  H -2.77968504 -1.59114444  0.45757867
  H -0.57998670 -1.42542735  1.12035423
  H -0.70243688 -1.69122100 -0.64038184
  C -0.90662916  1.43922025  0.05412850
  N -1.47925413  2.48649013  0.29409695
  H -2.03280037  2.94657171 -0.42404374
  H  1.36014007  1.18179990 -0.92170995
  H  2.47884608  0.33832412  0.98262162
  H  2.91086812 -0.66880665 -0.41783390
  H  1.67795838 -1.21977842  0.72135107
