17
opt_min/./Product_10659_0_opt.xyz
  C -1.10236900  1.70409500 -0.43591900
  C -0.41318972  0.33905677 -0.41873798
  O  0.95670770  0.57116729 -0.12294935
  C  1.76473636 -0.52237386 -0.14038159
  C  3.03416323 -0.47643896  0.22231053
  H  3.48319684  0.44036337  0.55759887
  H  3.65104113 -1.35227140  0.17876070
  H  1.30019180 -1.44254434 -0.48351356
  C -1.05229891 -0.55098576  0.61087612
  C -1.97257190 -1.45899668  0.34480002
  H -2.42293841 -2.05687763  1.11835288
  H -2.31820293 -1.63720116 -0.66122178
  H -0.70676517 -0.37933899  1.62291044
  H -0.49355196 -0.13231039 -1.41227730
  H -0.50711573  2.39060011 -1.03400900
  H -2.09729999  1.61346803 -0.86491749
  H -1.17981073  2.09487351  0.57729124
