14
opt_min/./Reactant_7716_0_opt.xyz
  C  2.50659900 -0.11804900 -0.77483800
  N  1.15230896  0.12702900 -1.19006024
  C  0.18573368 -0.09785921 -0.44500218
  O  0.11026763 -0.63654595  0.84719912
  C -1.31676948 -0.58873130  0.77885367
  H -1.88860456 -1.38994937  1.20930147
  C -1.75830626  0.82625221  0.60210880
  H -2.81876073  1.02190219  0.66100688
  H -1.13049150  1.62392360  0.98168974
  C -1.29101869  0.02652094 -0.59474424
  H -1.85668744 -0.14581433 -1.48853070
  H  3.05441859  0.81700897 -0.88974944
  H  2.93654589 -0.85617910 -1.45494247
  H  2.58022713 -0.48849461  0.25189573
