15
opt_min/./Product_9116_0_opt.xyz
  C  1.83587500 -0.48203400 -0.03359600
  C  0.71238254  0.46270970  0.32144170
  O  0.85749108  1.02988125  1.57836264
  H  0.60686609  1.96054111  1.53099999
  C -0.63205977  0.28042014 -0.22178409
  O  0.21025442  1.30601915 -0.68321148
  C -2.05842568  0.20286905  0.13067516
  H -2.32046775 -0.19706451  1.09997228
  H -2.70522872  1.00212769 -0.20915468
  C -1.46111438 -0.71681011 -0.92124445
  H -1.72737939 -0.54331141 -1.95361078
  H -1.31512232 -1.75863637 -0.66676850
  H  2.66921827  0.08267919 -0.45028666
  H  2.16311879 -0.98006310  0.87587798
  H  1.50082855 -1.21980728 -0.75790854
