11
opt_min/./Product_2677_0_opt.xyz
  O  0.08694200  1.43949700  0.06894000
  C  1.20099582  0.68010155 -0.08580740
  H  2.12747174  1.21707071 -0.14791374
  C  0.98836131 -0.62747830 -0.13792257
  H  1.73219579 -1.38796254 -0.25679502
  C -0.48890626 -0.88886253  0.00490930
  H -0.89260341 -1.42682912 -0.85260268
  H -0.70065293 -1.47420890  0.90049169
  C -1.03371677  0.55038072  0.11257122
  H -1.69547255  0.80954824 -0.71815548
  H -1.56487287  0.72365815  1.05192446
