17
opt_min/./Product_6666_0_opt.xyz
  C  2.61358300 -0.65291200  0.16716300
  O  1.22101991 -0.81728811  0.07856986
  C  0.53052127  0.38855847 -0.13842688
  C -0.96275361  0.09810561 -0.09355785
  O -1.33040890 -0.02946130  1.31315026
  C -1.68008646 -1.09612927  1.86713915
  H -1.69706840 -1.97675714  1.17481228
  C -1.80544225  1.20555843 -0.69525081
  H -2.85133046  1.03801503 -0.44405422
  H -1.50021383  2.17476594 -0.30596121
  H -1.70489576  1.22581751 -1.77849874
  H -1.14870629 -0.86872481 -0.58071288
  H  0.78119227  1.12491835  0.64312828
  H  0.81365051  0.82359335 -1.11045270
  H  3.02977564 -0.23420267 -0.75293655
  H  3.01482087 -1.64800831  0.35223953
  H  2.87776642  0.00229312  1.00862078
