11
opt_min/./Product_3643_0_opt.xyz
  O  2.25450400  0.57338200 -0.99388200
  C  1.17683540  0.29936131 -0.56245501
  C  0.41563579 -1.03153797 -0.38235905
  H  0.95290648 -1.78370699  0.19307074
  H  0.00488391 -1.46994815 -1.28979975
  N -0.59083574 -0.28393503  0.40082416
  H -0.88475754 -0.59768172  1.31995700
  C -1.26480083  0.72410051 -0.46310258
  H -2.01470319  1.22015754  0.18234310
  C  0.08688470  1.01182457  0.15724764
  H  0.29323550  1.70575084  0.96331532
