13
opt_min/./Product_11620_0_opt.xyz
  C  1.50324751 -1.21002835  1.29971057
  O  1.43275985 -0.40565675  0.14518350
  C  0.21775505  0.12918403 -0.11485471
  N -0.77102999 -0.10062720  0.66003307
  N -1.97442593  0.51149005  0.47739750
  H -2.14991268  0.87981952 -0.45615356
  H -2.71676071 -0.07629522  0.83051886
  C  0.17175320  0.92553488 -1.29780117
  C  0.05323018  1.61954858 -2.27221500
  H -0.02749385  2.23072969 -3.12098467
  H  2.53192938 -1.55859732  1.36142455
  H  1.24290577 -0.63115623  2.18981981
  H  0.81633068 -2.05657918  1.22487404
