11
opt_min/./Product_8821_0_opt.xyz
  C -2.14383100  0.32593100 -0.08778100
  C -0.82569105  0.10874070 -0.15726085
  C  0.23216669  0.23506453  0.82238001
  H  0.12703812  0.54896099  1.83835017
  C  1.34706507 -0.13000512  0.14554654
  O  2.61940475 -0.21027089  0.53675558
  H  3.15309046 -0.48895459 -0.22087446
  N  1.00747815 -0.46203207 -1.17804491
  N -0.21869153 -0.32967878 -1.36251474
  H -2.62316086  0.66308187  0.81547101
  H -2.75650756  0.16343626 -0.95808510
