14
opt_min/./Product_6377_0_opt.xyz
  C  2.46167300  0.43190900  0.43448100
  N  1.11859030 -0.06964313  0.43399553
  C  0.68304854 -1.30643104  0.76050707
  H  1.35766771 -2.06927393  1.09579831
  C -0.70661705 -1.37084358  0.58514215
  N -0.94280201 -0.10046046  0.15205843
  C -2.23013873  0.43755614 -0.17164417
  H -2.74609118  0.76378502  0.73484549
  H -2.82657005 -0.33592886 -0.65344502
  H -2.10633641  1.29220354 -0.83560022
  N  0.12055868  0.68880061  0.05278982
  H  2.89230222  0.36894272 -0.56762750
  H  2.45914612  1.47515994  0.74970799
  H  3.06638285 -0.15829792  1.12174848
