10
opt_min/./Product_7649_0_opt.xyz
  N -0.94538139  2.69988885 -0.77597701
  C -0.66556284  1.66836315 -0.36572594
  C -0.28299859  0.41574169  0.17257935
  C -0.89050636  0.01194774  1.47582360
  O -2.02983355  0.19916336  1.78000620
  H -0.16892666 -0.49760944  2.14186403
  C  0.53309877 -0.37437074 -0.48562666
  C  1.31233732 -1.16045183 -1.14372061
  H  2.38361043 -1.11115233 -1.03553879
  H  0.92776570 -1.89309423 -1.83419743
