19
opt_min/./Product_10196_0_opt.xyz
  C  1.96164500 -0.26211400  0.21448600
  C  0.88372326  0.65556676 -0.35365108
  C -0.55417322  0.14243624 -0.10680852
  C -0.88918326  0.13083002  1.39820148
  H -0.06440327  0.51751221  1.98681159
  H -1.10839355 -0.87667155  1.73708806
  H -1.76245765  0.74446759  1.60809510
  C -0.77669703 -1.21723267 -0.76799644
  H -0.49668582 -2.03293572 -0.10861071
  H -0.19834139 -1.29641228 -1.68421330
  H -1.82564905 -1.32745390 -1.02972247
  C -1.46882475  1.17093646 -0.74247527
  O -2.23278996  0.98822383 -1.64537295
  H -1.36484433  2.18235072 -0.28983437
  H  0.98459140  1.64813071  0.09027792
  H  1.03263497  0.75936941 -1.42992117
  H  1.96619654 -0.24345902  1.30010766
  H  1.80681645 -1.28750910 -0.10718009
  H  2.94022647  0.05814084 -0.13059533
