14
opt_min/./Product_7020_0_opt.xyz
  C -1.51577200 -0.19536100  0.48010800
  C -0.34756013  0.00613446 -0.48970247
  H -0.73292770 -0.02207166 -1.51009911
  C  0.47397917  1.28025850 -0.21380204
  H  0.01770684  1.92940939  0.52998159
  H  0.61274021  1.88342068 -1.11296788
  C  1.84205135  0.85620198  0.22895603
  N  1.84711201 -0.46932983  0.13524098
  H  2.66776746 -1.01543721  0.36139094
  C  0.66676797 -1.09817779 -0.29065285
  O  0.54391203 -2.28302155 -0.42394473
  H -1.98323848 -1.15974715  0.29497754
  H -1.16300883 -0.17445886  1.50746718
  H -2.26085766  0.58302341  0.34406670
