12
opt_min/./Product_1497_0_opt.xyz
  O  2.01488392 -2.27591092  1.51837409
  C  1.18439573 -1.42461933  0.97764042
  C  0.35799750 -0.66727819  0.51472159
  C -0.13014934  0.46547157 -0.17516510
  C -1.35949827  0.88961550 -0.47188928
  C -2.68279773  0.27342080 -0.16849015
  H -3.31267648  0.99587794  0.35341146
  H -3.18899297  0.01354558 -1.10031028
  H -2.58839370 -0.62054227  0.44065853
  H -1.42593572  1.82054510 -1.02190476
  H  0.69909879  1.08302540 -0.50473845
  H  1.70158457 -3.03627337  1.93267254
