12
opt_min/./Product_4196_0_opt.xyz
  C  1.88709100  0.41047000  0.61998500
  H  2.79084514  0.94289830  0.28458551
  N  1.71608817 -0.76248730 -0.19811933
  H  1.19984955 -1.50187681  0.27919053
  C  0.75569800  0.36103308 -0.43044110
  C -0.59542820  0.18769514 -0.25035990
  C -1.73650735 -0.53345065  0.27876112
  H -1.98299500 -0.44760040  1.33028597
  H -2.06665074 -1.45649656 -0.18480681
  N -1.83051486  0.63887503 -0.61561152
  H -2.18223580  1.52606542 -0.27375801
  H  0.99167981  1.04404674 -1.24660555
