15
opt_min/./Product_9603_0_opt.xyz
  O  1.38970400 -0.17254700  1.64035700
  C  0.87796323  0.53751134  0.53321209
  C  1.51553250  0.07429179 -0.78719507
  H  1.79560844  0.93271267 -1.39256642
  H  2.41109461 -0.50141864 -0.56178154
  H  0.84106572 -0.54216510 -1.37539773
  C -0.64534492  0.47417837  0.53732016
  H -1.04451368  0.87021563  1.46752848
  C -1.46800766  0.61778751 -0.66305025
  O -1.83776867  1.30796212 -1.55838426
  C -1.45099232 -0.70995667 -0.04697303
  H -0.92775904 -1.52302711 -0.53091791
  H -2.30499579 -1.04701290  0.52516625
  H  1.16385367  1.57926064  0.72389838
  H  1.08904673 -1.08885272  1.58455761
