8
opt_min/./Product_1373_1_opt.xyz
  O  1.09911400 -0.78028700 -0.50751600
  C  0.32172958  0.32991520 -0.14481590
  C -1.11174879 -0.01655387  0.17701711
  O -1.92964039  0.75319804  0.59078539
  H -1.35502644 -1.08121024 -0.01007243
  H  0.32753115  1.00001887 -1.01084434
  H  0.76037328  0.88038640  0.70069677
  H  1.13831529 -1.40317324  0.22667637
