10
opt_min/./Product_445_0_opt.xyz
  O  1.00231800  1.92026600 -0.47585100
  C  0.42149688  0.88480569 -0.22979263
  C -0.98874979  0.60276175 -0.14394998
  H -1.80845532  1.28739121 -0.21044791
  N -1.11191034 -0.68416552  0.15354747
  H -2.00357847 -1.16159207  0.26989141
  N -0.04865077 -1.38850430  0.28316270
  C  1.04455876 -0.48709445  0.05306435
  H  1.64074042 -0.84220161 -0.79123367
  H  1.70665944 -0.45989317  0.92080899
