14
opt_min/./Reactant_5579_0_opt.xyz
  C -1.15744800 -0.59762500 -0.27492500
  H -2.07188806 -1.02871579  0.11594356
  H -1.09998154 -0.66467138 -1.35456265
  C -0.79385102  0.73157752  0.40874280
  H -1.52157513  1.50859313  0.63577906
  C  0.51634547  1.12002458 -0.29998235
  H  1.04330706  1.91407075  0.21850152
  H  0.33849413  1.40840388 -1.33201734
  C  1.21861607 -0.25334060 -0.16632511
  H  1.47932937 -0.70521312 -1.11813941
  H  2.09652074 -0.20138124  0.47116324
  C  0.07531971 -0.98552529  0.55676586
  H  0.25057847 -1.99228404  0.93226948
  O -0.32942684 -0.02070034  1.54415405
