8
opt_min/./Product_4718_0_opt.xyz
  O  1.97585300  0.45795400 -0.71784500
  C  1.15816915 -0.23682421 -0.01376388
  N  0.96046580 -1.21992980  0.76042232
  N -0.14629995 -0.25591030  0.30896111
  C -1.41070113  0.17762334  0.28422835
  O -1.75831681  1.13859272 -0.34919433
  H -2.06867363 -0.44956133  0.90380427
  H  2.88476306  0.11786630 -0.66866019
