10
opt_min/./Product_5181_0_opt.xyz
  N -1.92496348  0.36131731  0.11163736
  H  23.16610527  26.52471186  80.92181182
  H  114.17547158  3.40248305  8.14516805
  C -46.61325193 -86.41577344 -20.21799580
  N  31.11329310  35.93022513  26.60412609
  C -68.88430643 -55.02737771 -49.92788901
  N  22.85552206  27.44173149  19.96631688
  H  23.32511857 -23.28450097  22.06291063
  H  21.80508691 -18.10913723 -21.10892339
  N -42.19487000 -46.53049425 -8.10804703
