11
opt_min/./Product_3424_0_opt.xyz
  C -1.18430400 -0.47465300  0.74237900
  C -0.54823487  0.32024861 -0.10789061
  O -1.10194010  1.39756840 -0.74426371
  H -2.01835569  1.49787780 -0.46811044
  N  0.78631533  0.20187221 -0.50861480
  C  1.69526464 -0.72073831 -0.11278951
  O  1.51524570 -1.61896889  0.66580200
  H  2.66979835 -0.54577716 -0.60604920
  H  1.05772518  0.91586651 -1.16839640
  H -2.21622469 -0.30133104  0.98961592
  H -0.67627616 -1.29998074  1.19672665
