14
opt_min/./Product_5256_0_opt.xyz
  C  1.62292100  0.04164400 -0.27626600
  H  1.74247349 -0.38585104 -1.27258851
  H  2.60697872  0.04461539  0.18865262
  C  1.03872136  1.43036863 -0.27694023
  C -0.08459607  0.92844353  0.59383312
  H -0.33717333  1.54055464  1.45409892
  C -1.27916637  0.43832982 -0.26994558
  H -1.34601981  0.91042732 -1.24651710
  H -2.22449593  0.55585706  0.24946920
  C -0.71270186 -0.98893438 -0.24992719
  H -0.44184071 -1.38708246 -1.22498474
  H -1.34687332 -1.70865224  0.25848995
  C  0.48282056 -0.50815508  0.59155047
  H  0.73708991 -1.07766347  1.47866896
