17
opt_min/./Product_9038_0_opt.xyz
  C -1.83648700  1.22290100  0.42605700
  C -0.96880473  0.12165767 -0.17956321
  C -1.40124952 -1.26877111  0.28209654
  H -2.46079209 -1.41735549  0.09105070
  H -1.21268391 -1.36320888  1.34939192
  H -0.84026603 -2.04231109 -0.24008998
  O  0.36476837  0.37439784  0.25809893
  C  1.36372105 -0.19696380 -0.39016765
  C  2.66017246 -0.09506054  0.04227076
  C  2.96927174  0.37333620  1.31999183
  H  4.01397627  0.71507081  1.39446580
  H  3.41298609 -0.47797954 -0.65223945
  H  1.12757198 -0.64162332 -1.35922512
  H -0.98888508  0.17074027 -1.27956936
  H -1.83467363  2.11009299 -0.20327776
  H -1.42459917  1.48522533  1.39832460
  H -2.85957889  0.88131104  0.55529911
