10
opt_min/./Product_4060_0_opt.xyz
  N -1.61676600  0.17538500 -0.04556500
  C -0.19292574 -0.21676272  0.16596365
  C  0.39344664 -1.19810568  0.89181056
  N  1.76863021 -0.95049811  0.61420103
  C  1.86646342  0.05362781 -0.16876411
  H  2.77301758  0.48328888 -0.55486529
  O  0.70165373  0.62574792 -0.54359509
  H -1.63935730  0.84207980 -0.82370329
  H -2.00365048  0.60770846  0.80130954
  H -2.15977561 -0.66343960 -0.27122934
