11
opt_min/./Product_4758_0_opt.xyz
  N  0.29488505 -1.05512194 -0.79257707
  C -0.64657342 -0.08013920 -0.48263581
  O -1.77999769 -0.08842844 -1.23090459
  H -1.68391083 -0.68617173 -1.98111535
  C -0.44973297  0.87126378  0.44510879
  C  0.68404920  0.88839462  1.27544633
  C  1.65643527  0.90440515  1.98277447
  H  2.49941217  0.93190507  2.60611964
  H -1.18524063  1.64837227  0.57281148
  H -0.07438562 -1.97489101 -0.99691481
  H  1.05810547 -1.07574801 -0.12968940
