12
opt_min/./Product_10593_0_opt.xyz
  O  1.49312900 -0.79985300  1.92941100
  C  0.89472432 -0.21722216  1.07236422
  C -0.51931395 -0.48457974  0.59520538
  H -1.27099339 -0.75306412  1.31920607
  C -0.70477417  0.49776734 -0.53020328
  H -1.64132016  0.97438241 -0.77496315
  C  0.56689549  1.24247938 -0.53680064
  H  0.77544877  2.06126166 -1.20638401
  N  1.43236148  0.85224616  0.31266653
  C -0.53957611 -0.98037458 -0.81667327
  H  0.38145488 -1.32471256 -1.26623222
  H -1.41640529 -1.51498851 -1.15469288
