15
opt_min/./Product_10966_0_opt.xyz
  C  2.08670800 -0.12366600  0.33669700
  C  0.63843637  0.12788576  0.03033979
  C  0.14106556  1.35735198  0.00498495
  H  0.73806195  2.24015677  0.18322160
  O -1.17350763  1.68249645 -0.21381910
  C -2.04023979  0.63238138 -0.13884394
  H -3.06460858  0.97273764 -0.07194825
  C -1.68682890 -0.64309347 -0.11971452
  H -2.43554270 -1.40745758  0.00035523
  C -0.24630128 -1.05927286 -0.25791675
  H -0.02170096 -1.88326141  0.42730975
  H -0.05059388 -1.43122909 -1.27396791
  H  2.32529623  0.17166554  1.36011247
  H  2.72553040  0.45372600 -0.33144174
  H  2.32696254 -1.17710014  0.20888322
