13
opt_min/./Product_10373_0_opt.xyz
  N  2.54683499  0.17377105  1.76740001
  C  1.79510549  0.41080173  0.93928027
  C  0.86090062  0.65546259 -0.12770938
  H  0.86513026  1.72180340 -0.37378301
  C  0.96048233 -0.31163347 -1.31222837
  H  1.10787719  0.16843238 -2.27846972
  C -0.44806767 -0.75684163 -0.97951409
  H -0.59910822 -1.80066203 -0.69542997
  H -1.20410303 -0.49295469 -1.72445917
  N -0.47023673  0.12475205  0.16907910
  C -1.08449753  0.01569782  1.32273423
  H -1.84802115 -0.73068237  1.45084883
  H -0.71656883  0.55918369  2.17453136
