12
opt_min/./Product_1146_0_opt.xyz
  O -1.54059000  0.79849800  0.78413500
  C -1.10602547 -0.51608925  0.43761750
  C -0.13501189 -0.56285205 -0.68698568
  N  1.13714161 -0.20568034 -0.53718404
  C  1.80929291  0.16746439  0.53081079
  H  2.86315627  0.34046136  0.45153749
  H  1.31243770  0.28584206  1.47104348
  H  1.68960096 -0.24669912 -1.38930563
  H -0.48273734 -0.69919976 -1.69676521
  H -1.97757020 -1.13674967  0.18650080
  H -0.65338189 -0.90148281  1.35600301
  H -1.94776133  1.20031045  0.00898696
