12
opt_min/./Product_4271_0_opt.xyz
  C  0.43332227 -1.12549797 -1.36299893
  C  0.12033744 -0.08123761 -0.32102682
  C  0.22596600  1.27497900 -0.72175539
  C  0.32679116  2.41429198 -1.08729812
  H  0.41537594  3.40946962 -1.40632516
  C -0.27946641 -0.37507160  0.89035489
  C -0.59614569 -0.62990506  2.11602425
  H -1.61848033 -0.76216288  2.43390079
  H  0.15139892 -0.73849719  2.88767712
  H  0.84109931 -2.02042316 -0.89936714
  H -0.47453757 -1.39832777 -1.90169189
  H  1.14975715 -0.73165317 -2.08050822
