12
opt_min/./Reactant_4271_0_opt.xyz
  C -0.07841917  1.45581546  0.44468628
  C -0.19831893 -0.06560857  0.60529339
  C  1.10175296 -0.69726892  0.41121182
  C  2.17274076 -1.20515412  0.25389323
  H  3.11876689 -1.64022114  0.12534839
  C -1.16874032 -0.59837826 -0.34331109
  C -1.97371455 -1.03424917 -1.11313275
  H -2.68784000 -1.39948680 -1.78931951
  H -0.54873004 -0.30380128  1.62343747
  H  0.63394591  1.85308415  1.16426271
  H -1.04611978  1.92728256  0.60436809
  H  0.26617370  1.69876729 -0.55788167
