8
opt_min/./Product_5763_0_opt.xyz
  O -2.16690900  0.60531300 -0.64928900
  C -1.40341180 -0.20280072 -0.17087566
  N -0.10799152 -0.03147133 -0.00656223
  C  1.09843872  0.78254264 -0.12831027
  H  1.38537123  1.74050786 -0.47822686
  C  1.23136088 -0.39734216  0.39138641
  H  1.74244144 -1.21619879  0.82846160
  H -1.71200541 -1.20545065  0.19404644
