13
opt_min/./Product_288_0_opt.xyz
  C  2.26410600  0.24105400  0.52409200
  C  1.01105859 -0.41954225  0.90732500
  C -0.13168923 -0.02887660  0.08189771
  O -1.37432905 -0.31654263  0.66633796
  C -2.44664209 -0.18107866 -0.22395647
  H -2.36961406 -0.88805197 -1.06178389
  H -3.35120505 -0.39011520  0.34456223
  H -2.50514922  0.83824692 -0.63475176
  H -0.12651603  1.00834841 -0.31967747
  H  0.03348984 -0.68986657 -0.80179405
  H  2.47639038  0.91148670  1.36427685
  H  3.08151383 -0.47803115  0.50287740
  H  2.24970591  0.84427597 -0.39544582
