16
opt_min/./Product_2816_0_opt.xyz
  C  1.15993100  0.90292800 -0.77513700
  H  0.82949081  0.98331490 -1.79966427
  H  1.18797294  1.84846190 -0.25534154
  C  2.22111948 -0.12418678 -0.43304707
  H  2.58987487 -0.75293562 -1.22765174
  H  2.96382679  0.12509247  0.30800808
  C  0.82803978 -0.29935147 -0.00996361
  C -0.03663493 -1.05204391  0.62195614
  C -1.50186003 -0.76271002  0.79142199
  C -1.96722987  0.54569533  0.16663548
  H -1.42991041  1.39136648  0.58389328
  H -3.02804816  0.68633686  0.35177031
  H -1.80846745  0.53704975 -0.90779499
  H -2.07151701 -1.58836111  0.35802488
  H -1.72686376 -0.75470310  1.86207711
  H  0.30128028 -1.97540755  1.07694125
