16
opt_min/./Product_10739_0_opt.xyz
  N  1.61721500 -0.82039300 -0.70464500
  C  0.71924495 -0.29637055  0.29833679
  O  1.37516773 -0.02105457  1.52057856
  H  1.97916887  0.72040585  1.40393273
  C -0.02767521  0.93878424 -0.26660037
  H  0.28970529  1.85453434  0.23208541
  H  0.18197571  1.01038067 -1.33237080
  C -1.49648458  0.61194638 -0.00783383
  H -1.80295240  0.98768360  0.96976592
  H -2.15956969  1.01151487 -0.77249952
  C -1.47089568 -0.91305903  0.00249319
  H -2.26007138 -1.36768862  0.60263454
  H -1.51402488 -1.30881856 -1.02366042
  O -0.23617997 -1.26715978  0.59579407
  H  1.91125691 -1.75373931 -0.44124369
  H  2.43733075 -0.23365307 -0.80960211
