11
opt_min/./Product_2686_0_opt.xyz
  C -0.65176188 -0.53656288  0.61340523
  H -0.40934335 -1.57256291  0.79253843
  H -1.27940772 -0.10999724  1.37844871
  C -0.80796102 -0.10345487 -0.81358566
  H -1.52090525  0.67061560 -1.04395959
  H -0.68846974 -0.84018980 -1.58917747
  C  0.41304410  0.31811779 -0.02487078
  O  0.56057612  1.65818058  0.32591206
  H  0.35844794  1.79938778  1.25526666
  C  1.64532554 -0.33719624 -0.33805992
  N  2.62512860 -0.87211192 -0.59015385
