13
opt_min/./Product_10411_0_opt.xyz
  C -2.21349900 -0.22655400  0.24574600
  H -2.59491142 -0.73852076  1.11884152
  H -2.87956425 -0.27776864 -0.60529660
  C -0.78157939 -0.23019939  0.02113287
  N  0.21689483 -0.89077606 -0.32271969
  C  1.51926933 -0.43074052 -0.28343934
  N  2.02733285 -0.02009045  0.79280020
  H  3.02811929  0.16725500  0.75943146
  O  2.13356998 -0.61403102 -1.47789720
  H  3.08319406 -0.43881864 -1.40277524
  C -1.37516300  1.03879729  0.44126721
  H -1.19471073  1.39755029  1.44407455
  H -1.48538626  1.82801684 -0.29068434
