19
opt_min/./Product_10913_0_opt.xyz
  C -2.51761800  0.36837000  1.30771900
  O -1.71757135  0.24472569  0.16775012
  C -0.82805798 -0.84920784  0.22217063
  C -0.00380833 -0.88036891 -1.06241738
  C  0.83825540  0.38460100 -1.27548345
  C  1.91354098  0.56243617 -0.25030591
  C  3.20631105  0.57997414 -0.52145438
  H  3.94579827  0.72075824  0.24811402
  H  3.57287577  0.45871045 -1.52669713
  H  1.58421222  0.69313634  0.77123621
  H  1.29214316  0.33998021 -2.26559030
  H  0.16271151  1.24073861 -1.24281515
  H -0.69169286 -0.98334129 -1.90099413
  H  0.64252444 -1.75959675 -1.03619022
  H -0.17490156 -0.75838389  1.10134760
  H -1.39132689 -1.79111028  0.32446091
  H -3.15379812  1.23721669  1.15332125
  H -3.14746175 -0.51788082  1.45939350
  H -1.91274622  0.52141244  2.21092330
