12
opt_min/./Product_3162_0_opt.xyz
  O -0.86228800 -2.16534600 -1.06165400
  C -0.36979724 -1.07945219 -0.43976035
  C -0.69748733 -0.13682816  0.42169993
  C  0.23263055  0.89973560  0.81307073
  C -0.07517210  1.86164169  1.68089434
  H -1.04904477  1.90712170  2.13568740
  H  0.63882448  2.61851676  1.95117760
  H  1.21622261  0.86912926  0.36550443
  H -1.68183412 -0.11617360  0.86323647
  C  0.48232652 -1.78466031 -1.35489040
  H  0.66274018 -1.39987978 -2.35120353
  H  1.25086091 -2.45151533 -0.97951627
