11
opt_min/./Product_3541_1_opt.xyz
  C  1.52321200 -0.99737100 -0.61258700
  C  1.00613701  0.06217559  0.13018452
  H  1.64871333  0.50951860  0.88080764
  C -0.11570440  1.02838999 -0.35332227
  H  0.00249593  2.05948829 -0.06597664
  H -0.43054989  0.87923327 -1.37666332
  C -0.52807369  0.03693677  0.63059465
  O -1.33928273 -1.01465568  0.34828280
  H -1.29799525 -1.21912618 -0.59574470
  H -0.61148671  0.31436505  1.67134681
  H  0.79195622 -1.34709775 -1.36755206
