14
opt_min/./Product_11460_0_opt.xyz
  O  2.82952300  0.28875400  0.52101400
  C  1.74812411 -0.24942721 -0.01373334
  C  0.55066559  0.60653112  0.30353499
  N -0.68573339  0.02009182 -0.16180193
  C -1.25074337 -1.04276320  0.62428172
  H -1.56478836 -0.67086081  1.60253719
  H -0.51542731 -1.83619955  0.77303608
  H -2.11178890 -1.45736985  0.10799400
  C -1.22651187  0.45816744 -1.30813134
  O -0.80303879  1.37263824 -1.97969195
  H -2.14641093 -0.09036001 -1.58302748
  H  0.67251041  1.55249983 -0.23741238
  H  0.48925909  0.81948293  1.37571582
  H  3.61796011 -0.23251436  0.29950597
