12
opt_min/./Product_5236_0_opt.xyz
  C  1.74357500 -0.61185800 -0.17051700
  C  0.53946017 -0.05476592 -0.07744017
  C -0.77845864 -0.72295839  0.25672263
  H -1.05448154 -1.48909852 -0.47476525
  H -0.77881444 -1.17829963  1.25186173
  N -1.68476023  0.40876033  0.20100790
  H -2.67014547  0.37973523  0.38200739
  N -1.08243471  1.55323422 -0.09850208
  C  0.17672897  1.33900792 -0.26566313
  H  0.85280309  2.13053419 -0.51736854
  H  1.89904398 -1.66409619 -0.00579693
  H  2.60744808 -0.02030937 -0.41795184
