12
opt_min/./Product_9512_0_opt.xyz
  C -1.81251800 -0.59062700 -0.23368000
  C -0.60030781  0.27299792  0.00534044
  C -0.70738697  1.54584842  0.28589806
  O -0.75562954  2.68758096  0.52474113
  N  0.62222535 -0.38743993 -0.09586359
  C  1.75776431  0.14588705  0.05269195
  O  2.85858209 -0.59935690 -0.07741511
  H  2.59680473 -1.51214755 -0.27430894
  H  2.00388987  1.18532682  0.28099778
  H -2.69042426  0.01883914 -0.43728090
  H -1.61338942 -1.24165436 -1.08195534
  H -2.01251248 -1.21185998  0.63949306
