19
opt_min/./Product_6573_0_opt.xyz
  C  2.00761500 -0.43854100 -0.33323400
  C  0.95562077  0.36661395  0.43759616
  O  1.21972979  1.74326991  0.21004644
  H  0.51358081  2.25662310  0.61407729
  C -0.47019519  0.01536907  0.03101075
  C -0.80725048  0.32977797 -1.41267015
  H -0.59366669  1.37316214 -1.62883113
  H -0.21256760 -0.28070653 -2.08476865
  H -1.85891458  0.14005754 -1.60198721
  C -1.10910308 -1.17758325  0.67634083
  H -1.77831423 -1.77163308  0.07585982
  H -0.54330224 -1.75698576  1.38429110
  C -1.54852687  0.20631791  1.06156001
  H -1.27013294  0.57222129  2.03774388
  H -2.52061015  0.54553706  0.74372952
  H  1.06461937  0.16343731  1.51578586
  H  2.50075351  0.21645592 -1.04250770
  H  1.55472755 -1.26158890 -0.87596713
  H  2.76021067 -0.84190593  0.33418857
