14
opt_min/./Product_10158_0_opt.xyz
  N  2.68917400  0.36766100  0.39549000
  C  1.68358048 -0.53371168  0.27941456
  O  1.89179036 -1.71476377  0.14346782
  C  0.30142988  0.10023885  0.30745618
  C -0.77133235 -0.93673373  0.22920112
  O -2.02789794 -0.66745694  0.23029222
  C -2.60740442  0.48633415  0.29905992
  H -3.67834602  0.47120724  0.28649310
  H -2.06535138  1.41292025  0.36484889
  H -0.51045247 -1.97571361  0.14378161
  H  0.22914937  0.80061477 -0.53744417
  H  0.19881933  0.69539538  1.22560951
  H  3.63787581  0.03277100  0.41957579
  H  2.51883834  1.34251456  0.56540363
