17
opt_min/./Product_10874_0_opt.xyz
  C  2.36162900 -0.04560500  0.47056000
  C  0.98445525 -0.61478112  0.41201971
  C -0.05697734 -0.10931501 -0.23832245
  C -1.37606396 -0.81860453 -0.18194126
  H -1.54160193 -1.55687393 -0.96297524
  O -1.88592916 -1.19514829  1.06456936
  C -2.55413281 -0.16682339  0.39623271
  H -2.46781530  0.81985463  0.83173691
  H -3.53769151 -0.42236466  0.01854721
  C -0.02520217  1.15457440 -1.05675624
  H -0.95368039  1.27589275 -1.60818591
  H  0.79214003  1.13528278 -1.77144988
  H  0.10512800  2.02077953 -0.41377881
  H  0.83829927 -1.52361914  0.98036865
  H  2.45791071  0.85935572 -0.11937189
  H  2.62232000  0.17920038  1.50174790
  H  3.07877099 -0.77907675  0.10625800
