19
opt_min/./Product_10184_0_opt.xyz
  C -2.97599400 -0.11445600 -0.21755300
  C -1.72130628 -0.01513021  0.63838776
  C -0.46510457 -0.18850525 -0.20977625
  C  0.80828458 -0.17852461  0.70083826
  C  1.79437616 -0.50972881 -0.33333996
  C  2.32827180  0.63667545 -1.08572820
  H  1.90849949  1.62240353 -0.85954320
  H  3.39311884  0.64261118 -0.83284925
  H  2.29631267  0.42532188 -2.15725642
  O  0.70501116 -1.12583570  1.73062181
  H  0.89614072 -1.99278508  1.34902310
  H  0.87910176  0.80108015  1.19005808
  H -0.38899991  0.61891811 -0.93956957
  H -0.50832240 -1.13915894 -0.74777933
  H -1.68885314  0.95881936  1.13202857
  H -1.73818458 -0.78081036  1.41533936
  H -3.05516712 -1.10246979 -0.66694093
  H -2.95749897  0.62475621 -1.01599397
  H -3.86001273  0.05858821  0.39169608
