11
opt_min/./Product_10740_1_opt.xyz
  N -1.33736800 -0.69689000 -0.27499600
  C -0.42198652  0.41909868 -0.48272106
  C  0.72516925  0.38050221  0.53399275
  O  1.39370510 -0.84775320  0.59845130
  H  1.63543337 -1.13169957 -0.28923584
  H  0.32149616  0.52503455  1.54267413
  H  1.41855775  1.20492392  0.31658283
  H -0.90164324  1.40600328 -0.38744478
  H -0.01895821  0.33278117 -1.49590465
  H -1.37773880 -0.92172989  0.71227222
  H -2.27315406 -0.47250690 -0.58567018
