13
opt_min/./Product_7476_0_opt.xyz
  C  2.03604300 -0.52303800 -1.02356100
  O  1.11889334  0.55603828 -0.98443749
  C  0.07439233  0.37408625 -0.19652202
  N -0.14388604 -0.63743839  0.57074622
  C -1.39512237 -0.36091937  1.21818573
  H -1.25248798 -0.33465192  2.30074687
  H -2.12230431 -1.14339805  0.99723758
  N -1.88676861  0.90702274  0.75730047
  C -1.02484033  1.34424961 -0.07087129
  H -1.10941788  2.27913293 -0.58972439
  H  2.83673165 -0.21462456 -1.69290184
  H  2.42803522 -0.72245423 -0.02667694
  H  1.55209654 -1.42205788 -1.40784020
