14
opt_min/./Product_7120_0_opt.xyz
  N -2.39010400 -1.34707900 -0.22105800
  C -1.42873819 -0.53438103 -0.17958966
  O -1.26961677  0.43885008  0.77502895
  C -0.13793802  1.22767342  0.46231152
  H  0.44177207  1.38596071  1.37536473
  H -0.46545699  2.19743723  0.07495712
  C  0.60212218  0.42658251 -0.62090536
  C  1.51620132 -0.67657508 -0.01297078
  H  1.11517917 -1.01509254  0.93959319
  H  2.51097253 -0.26495487  0.13049189
  H  1.58692476 -1.53510710 -0.68052712
  H  1.16470534  1.03693600 -1.32699005
  C -0.34468178 -0.53810127 -1.18465731
  H -3.08499537 -1.22340302  0.51283226
