11
opt_min/./Product_10120_0_opt.xyz
  N  1.90725000  0.19173400  0.02925800
  C  0.68340654 -0.59551648  0.07005313
  C -0.51947028  0.22907167 -0.01098849
  N -1.03517553  1.37329475  0.00734469
  C -1.96396581  0.20169087 -0.15418582
  H -2.59614251 -0.04228855  0.69183982
  H -2.41799148  0.06459425 -1.12829340
  H  0.58335297 -1.21751016  0.97807595
  H  0.68310169 -1.28697522 -0.78664156
  H  1.73427192  1.12901075  0.38062993
  H  2.63312008 -0.23082586  0.59834866
