15
opt_min/./Product_10337_0_opt.xyz
  C  1.01639500  0.29161800  1.21575200
  C  0.22788715 -0.19188239  0.01755967
  C -1.14799020  0.11644257 -0.02942323
  O -1.70325787  0.97107211  0.83985487
  H -2.61043470  1.18053387  0.58369544
  N -1.87041278 -0.42489973 -1.03135287
  H -2.87523530 -0.46492532 -0.98755791
  H -1.36425360 -1.17828390 -1.48249452
  C  0.98661150 -0.32393698 -1.35494948
  H  2.08008729 -0.14686867 -1.24847118
  N  0.55129977 -1.47119481 -0.64273056
  H  1.23760985 -2.05912852 -0.15935075
  H  1.95077035 -0.25962469  1.29654611
  H  1.24951790  1.34986139  1.11356612
  H  0.44705417  0.15387524  2.13369873
