15
opt_min/./Product_9601_0_opt.xyz
  O -1.82755500  0.44262300 -1.32865500
  C -1.32910984  0.84347580 -0.09414287
  H -1.51802087  1.89037345  0.14422153
  C -1.29155739 -0.12232499  1.06187491
  H -1.67666461 -1.11359440  0.87596886
  H -1.46618839  0.25684044  2.05753310
  C -0.02516532  0.25383899  0.34813711
  C  0.67419850 -0.75603334 -0.54671586
  C  1.96292551 -1.19225650  0.10479601
  O  2.89573678 -0.32431235  0.06563308
  H  2.71479201  0.51360913 -0.43576505
  H  0.87607097 -0.28013417 -1.51767184
  H  0.02167644 -1.61166678 -0.71716619
  H  0.65142278  0.92749357  0.86974872
  H -2.78093502  0.58093502 -1.34832979
