13
opt_min/./Product_5505_0_opt.xyz
  C -1.91763547 -0.11831065  1.39496620
  C -0.78015462  0.57225718  0.67021663
  O  0.50364909  0.07053443  1.10291395
  C  1.50357119  0.28869309  0.03948784
  C  2.61059701 -0.29947773 -0.12820266
  N  3.77901247 -0.47404911 -0.52292861
  H  3.96035863 -1.23676333 -1.16396710
  H  0.46890055 -0.97818980  1.22759643
  H -0.75070310  1.64090904  0.89774980
  H -0.85906285  0.44852168 -0.41567191
  H -1.79643974 -0.03815213  2.47337247
  H -1.97213624 -1.17121096  1.12133373
  H -2.85650080  0.35291659  1.12025229
