14
opt_min/./Product_6013_0_opt.xyz
  C -0.76969800 -1.39727300 -0.01894000
  C -0.15485592 -0.00583895 -0.20817778
  C -0.89379844  0.94976089  0.69821052
  O -1.79575746  1.60225323 -0.01022865
  H -2.30542806  2.20423447  0.55733842
  C  1.32961321 -0.01640786  0.18307668
  O  1.91590899  1.25823468 -0.00293588
  H  2.55156114  1.22602981 -0.72162244
  H  1.84923933 -0.77980126 -0.40666880
  H  1.41830109 -0.27287102  1.24452382
  H -0.24856009  0.28796311 -1.26379592
  H -0.46223920 -1.81543361  0.93646335
  H -0.44235133 -2.06230132 -0.81472001
  H -1.85518622 -1.33860230 -0.04144174
