14
opt_min/./Product_1730_0_opt.xyz
  O -0.36550400 -0.31551800 -1.34699300
  C  0.05653219  0.65969512 -0.38658649
  C  1.46456609  0.40757044  0.15629830
  O  1.51876637 -0.81967923  0.84981524
  H  2.22580768 -1.36404746  0.49897769
  H  2.16658206  0.43621164 -0.68202476
  H  1.71514914  1.22566210  0.84590294
  H  0.01282072  1.67125102 -0.80405634
  C -1.10331220  0.28928937  0.55372587
  H -0.77636817 -0.17548311  1.47530969
  H -1.81151480  1.08498295  0.75286196
  C -1.49585912 -0.69351459 -0.55784402
  H -2.43173651 -0.45420355 -1.07012823
  H -1.47988789 -1.74932755 -0.28854470
