10
opt_min/./Product_7204_0_opt.xyz
  N -0.15624800  0.24488100  2.81586500
  C -0.20036551  0.37025650  1.68249427
  C -0.22442951  0.54526665  0.22902107
  O  0.66051700 -0.44246879 -0.33884572
  C  0.12978801 -1.34976901 -1.15169854
  O -1.02004814 -1.47298156 -1.43570480
  H  0.94144703 -2.00132725 -1.51637125
  O  0.14406020  1.80998218 -0.17059758
  H  0.99503166  2.05614184  0.21729842
  H -1.24546551  0.36325534 -0.14615339
