11
opt_min/./Product_4885_0_opt.xyz
  O -1.97473400 -0.14690800 -0.52058900
  C -0.69563185 -0.65835869 -0.25192304
  C  0.19479212  0.36076740  0.46507482
  O  1.45080303 -0.26668300  0.79772014
  C  2.51184752 -0.12737444  0.14307358
  H  2.42245306  0.56962527 -0.73070243
  H -0.26013186  0.67580500  1.40654767
  H  0.38045918  1.22837869 -0.18372149
  H -0.19734900 -0.98282506 -1.17720516
  H -0.85407924 -1.52930507  0.39051365
  H -1.90510675  0.59789511 -1.13123533
