15
opt_min/./Product_10487_0_opt.xyz
  C -2.49655400  0.67005900  0.17682700
  C -1.69045943 -0.47413395 -0.36977847
  C -0.39373067 -0.48603542 -0.43945593
  C  0.90442801 -0.49151449 -0.49866971
  N  1.73959262 -1.02966077  0.50860129
  C  2.97232580 -0.65587169  0.87682776
  N  3.47305485  0.39937600  0.23732934
  H  2.97961979  0.96211931 -0.45341389
  H  4.39702736  0.70795918  0.47057635
  H  1.32334421 -1.76916727  1.05521928
  H  1.42759686 -0.11398096 -1.37009120
  H -2.25864072 -1.31731002 -0.74548512
  H -1.94775577  1.19471380  0.95514821
  H -2.72111355  1.38184225 -0.61829641
  H -3.43766278  0.30963515  0.58468940
