9
opt_min/./Product_2579_1_opt.xyz
  C  1.63014700  0.05915300  0.70259300
  C  0.52000674  0.44680487 -0.09435559
  H  0.62248288  0.91473072 -1.08307226
  C -0.63297794 -0.55367463  0.02503727
  H -0.48514508 -1.37974364  0.70814466
  H -1.15041818 -0.80035165 -0.89933142
  N -0.73704730  0.71168669  0.62291389
  H -1.32183448  1.37969484  0.12487117
  H  2.56887716  0.16549629  0.13202614
