11
opt_min/./Product_11512_0_opt.xyz
  N  0.17557100 -1.98464800 -0.21187700
  C -0.19580284 -0.78834799 -0.10495684
  C -1.60811625 -0.31808924 -0.04014934
  H -2.47059875 -0.95213702 -0.08437450
  N -1.66687756  0.95012322  0.05731888
  C -0.34919251  1.46811033  0.08580146
  H -0.22881599  2.52866359  0.17397837
  C  0.56698597  0.48777157 -0.00889803
  O  1.91202773  0.57509476 -0.01654472
  H  2.30593889 -0.30411200 -0.09061325
  H  1.18272665 -2.15037559 -0.24824242
