13
opt_min/./Product_2769_0_opt.xyz
  C -1.24459100 -0.70230400  0.63397900
  H -2.21225423 -0.80095190  1.11285242
  H -0.77672794 -1.64741101  0.39605714
  C -1.06876943  0.49310472 -0.25379169
  H -1.78860367  1.09116522 -0.77465104
  C  0.42813915  0.58122873 -0.17520347
  C  1.37315568 -0.48772252 -0.67923700
  H  2.17405735 -0.65730222  0.03991424
  H  1.82483845 -0.16645443 -1.61575128
  H  0.86911282 -1.43186492 -0.86115535
  H  0.82340789  1.58445478 -0.33369164
  C -0.40706607  0.46372677  1.06671206
  H -0.40992057  1.03338560  1.97431029
