15
opt_min/./Product_10483_0_opt.xyz
  C -2.30835100  0.51601200 -0.50051300
  C -0.85738016  0.29329279 -0.25259083
  C  0.11524394  1.24510699 -0.14102241
  C  1.29093455  0.44372823  0.06306891
  N  2.52797010  0.93338911  0.21278601
  H  3.32508675  0.34953493  0.40344352
  H  2.63180546  1.93130772  0.24908257
  N  1.06587136 -0.88449183  0.07887632
  H  1.75307669 -1.60563714  0.23609968
  C -0.33799599 -1.13315012 -0.12056459
  H -0.51304742 -1.73156614 -1.02050605
  H -0.77679851 -1.65278174  0.73785718
  H -2.91993675 -0.09566261  0.16470227
  H -2.56678351  0.24927269 -1.52789729
  H -2.54732011  1.56456141 -0.34767795
