17
opt_min/./Product_7044_0_opt.xyz
  C  1.34753600 -1.15054200  0.31759000
  C  0.34936233 -0.10352187 -0.16319295
  C  1.02559413  1.25892968 -0.32637646
  H  1.58240038  1.50841964  0.57111875
  H  1.70022857  1.23171607 -1.17680539
  H  0.27434636  2.02843425 -0.49354684
  C -1.00664442 -0.05084669  0.62930902
  C -1.21844457  1.27915430  1.15811369
  H -2.07345126  1.77625764  0.67190768
  H -1.04184371 -0.76920647  1.44641465
  C -1.63285814 -0.52652561 -0.69479644
  H -2.33824235  0.16044475 -1.17112445
  H -2.05660314 -1.53663076 -0.69478074
  O -0.35786030 -0.49950491 -1.34590569
  H  1.07756851 -2.14012864 -0.03978923
  H  1.38672818 -1.17865182  1.40348133
  H  2.34642285 -0.91868312 -0.04245999
