16
opt_min/./Product_7990_0_opt.xyz
  C  3.39606900  0.13865801 -0.45493101
  C  2.01378747 -0.26395538 -0.30182655
  C  0.86787490 -0.59616846 -0.18458881
  C -0.52889999 -0.96274952 -0.06428052
  C -1.44232575 -0.01995158 -0.85017500
  H -0.96363073  0.35651867 -1.75059519
  C -2.91779406  0.01210600 -0.76184710
  H -3.28437914 -0.71354927 -0.01618909
  N -2.07381104  1.04077964 -0.03667641
  H -1.86694009  1.02282946  0.96239323
  H -2.09423291  1.98383407 -0.40895134
  H -0.67370228 -1.97684203 -0.45032539
  H -0.81457550 -0.96929118  0.99321130
  H  3.76868804 -0.16762355 -1.43198791
  H  4.00822104 -0.32589858  0.31744862
  H  3.48269900  1.22176528 -0.36936399
