12
opt_min/./Product_10452_0_opt.xyz
  C -0.37830900  1.69004500 -0.57897100
  C -0.27703701  0.40945683  0.00257009
  C  1.04511455 -0.33998210 -0.04787864
  O  2.04876161  0.30343143  0.69060996
  H  2.16377356  1.19654800  0.34807617
  H  0.92701432 -1.33189902  0.39636238
  H  1.34955819 -0.44198760 -1.10143383
  C -1.52897591 -0.35372404 -0.36086624
  H -1.36054628 -1.36485858 -0.72033123
  H -2.38402466  0.15021422 -0.80158508
  O -1.24817286 -0.08089590  0.94624562
  H -1.24765757  2.24211828 -0.20115847
