12
opt_min/./Product_5630_0_opt.xyz
  C -1.65590841  0.69942558 -0.02919097
  C -1.15089741 -0.49502193  0.21754944
  C  0.26822607 -0.73386746  0.60987160
  H  0.34371890 -1.53617310  1.34785760
  O  1.10781911 -1.08490878 -0.54452979
  C  1.87727339  0.00763530 -0.24540456
  H  2.74802028  0.28200494 -0.81189875
  C  1.20020289  0.43565488  0.82025545
  H  1.26165191  1.22964497  1.52846850
  H -1.74917141 -1.38901884  0.10804678
  H -1.06759095  1.59638797  0.06737101
  H -2.68147096  0.82591838 -0.33143612
