12
opt_min/./Product_7448_0_opt.xyz
  O -2.35583800 -0.86887200  0.01529200
  C -1.64685870  0.32488563  0.25727007
  C -0.16675152  0.11490392  0.37505902
  C  0.83698877  0.73138862 -0.44934027
  C  2.05210002  0.14159231  0.13070104
  H  2.66521886  0.93492673  0.56705391
  H  2.66384168 -0.40350802 -0.58718177
  O  1.63139215 -0.75860578  1.19355865
  N  0.32545128 -0.70462668  1.27141524
  H -2.04509729  0.71610920  1.19783629
  H -1.82690275  1.06553112 -0.53271188
  H -2.14754429 -1.18551971 -0.87083129
