12
opt_min/./Product_3032_0_opt.xyz
  O -0.40682900 -1.19009100 -0.85042100
  C -1.11510271 -0.45005618  0.13587255
  H -2.18943374 -0.61100205  0.20575209
  C -0.54486031  0.97907407 -0.04123460
  H -0.81011491  1.64808926  0.76766709
  H -0.86322013  1.37753244 -1.00070597
  C  0.93585273  0.53653905 -0.04228383
  H  1.47350365  0.78132030 -0.94972682
  H  1.47546086  0.87540134  0.83774354
  C  0.62851077 -0.97534620  0.09435311
  H  1.44071904 -1.69996671  0.11949883
  O -0.30940760 -1.00499698  1.16231124
