13
opt_min/./Product_4876_0_opt.xyz
  C -1.97406100  0.13446700  0.59106500
  C -1.42536460 -0.09872950 -0.77437636
  N -0.10284505  0.00842817 -0.98986977
  C  0.89432410  0.06190269 -0.15267407
  O  1.17562798  0.20100073  1.19055837
  C  2.26355984  0.10375137  0.25448397
  H  2.84664188  1.01452495  0.14034784
  H  2.84764495 -0.81018042  0.33015140
  H  0.19180484 -0.07279082 -1.95935836
  H -2.04507942  0.07507926 -1.63672649
  H -1.29061193 -0.25974802  1.34035234
  H -2.93559155 -0.36818920  0.69275574
  H -2.12585595  1.19941771  0.80690023
