14
opt_min/./Product_10220_0_opt.xyz
  C -2.29872900 -0.05947000  0.09219800
  C -0.91660536 -0.60750238  0.25723831
  C  0.18259323  0.39925754  0.47413246
  N  1.43502863 -0.15466177  0.41876604
  C  2.37731875  0.17521079 -0.33340926
  H  2.30197358  0.93838328 -1.10832739
  H  3.32461580 -0.33467981 -0.22145707
  H  0.21994613 -2.15960265  0.33649693
  N  0.04911793  1.61579219  0.81430594
  H -0.90988574  1.91350118  0.96717366
  N -0.74327021 -1.85446752  0.20877596
  H -2.31849580  0.70155629 -0.68679140
  H -2.63544128  0.39247575  1.02494213
  H -2.97157048 -0.87044452 -0.16859264
