15
opt_min/./Product_10504_0_opt.xyz
  C  0.50129600 -0.90776600  0.45408900
  H  0.22081768 -1.86874434  0.03283800
  H  0.74792173 -1.03299612  1.50148261
  C  1.53732077 -0.10903068 -0.35536474
  H  2.45174178  0.12119595  0.17774178
  H  1.78344823 -0.56481983 -1.30954918
  C  0.54750026  1.06299821 -0.47519407
  H  0.29226293  1.35796521 -1.48815151
  H  0.81011792  1.93878694  0.10457137
  C -0.54443139  0.23484765  0.24739721
  O -1.01553448  0.84644896  1.40835962
  H -1.87687636  0.46405434  1.62782733
  C -1.69013045 -0.19681740 -0.62547363
  O -2.83690632 -0.13407664 -0.27260272
  H -1.40265027 -0.61009280 -1.60799855
