11
opt_min/./Product_4386_0_opt.xyz
  O  2.77056400 -0.67067700 -0.09088800
  C  1.47051908 -0.24130659  0.01965647
  C  0.23262749 -0.56290327 -0.28145464
  C -0.90210539  0.26433207  0.06671654
  C -2.15755604 -0.04719217 -0.23051457
  H -2.98087543  0.58913217  0.04219129
  H -2.40589863 -0.95268885 -0.75874819
  H -0.67219156  1.17883574  0.59814193
  H  0.06094673 -1.48523351 -0.81147186
  N  2.35673724  0.57539296  0.56144946
  H  2.93597042  1.24724359  0.99226595
