12
opt_min/./Product_10069_0_opt.xyz
  N -2.16165600 -0.53230300  0.43602700
  C -0.97335730  0.03064433  0.06548052
  O  0.00614742 -0.95217262  0.10838687
  O  1.10328781 -0.68736170 -0.75342862
  C  2.26098174 -0.47480684 -0.14192544
  O  2.50966381 -0.43798152  1.01630382
  H  2.98604952 -0.32463015 -0.96869032
  C -0.76372915  1.30531550 -0.24713201
  H  0.20014515  1.66168099 -0.55165189
  H -1.57615000  2.00411520 -0.24291467
  H -2.17678511 -1.47791167  0.76315049
  H -3.00039452  0.01136871  0.41672704
