12
opt_min/./Product_10537_0_opt.xyz
  O  2.59175400  0.14962000 -0.19701700
  C  1.77946235 -0.82121478 -0.30637227
  C  0.38386758 -0.44589363 -0.70030700
  H  0.21083810 -0.88678097 -1.69115550
  C -0.68696195 -0.88972138  0.33403507
  H -0.22607318 -1.31974059  1.22649560
  H -1.40118692 -1.60838362 -0.06970079
  N -1.36809410  0.33331294  0.68416116
  C -0.83768486  1.26988528  0.03814564
  H -1.12846919  2.30451303  0.10048154
  O  0.17579191  0.99004172 -0.80360214
  H  2.22961511  1.05484817 -0.38518265
