15
opt_min/./Product_9582_0_opt.xyz
  C  2.24435600  1.07878900  0.44345200
  C  1.60531790 -0.05555456  0.72838198
  C  0.37061631 -0.44787073  0.12356134
  C -0.48564207 -1.47646025  0.27313032
  H -0.53801555 -2.33975788  0.90754857
  C -1.47051761 -0.91887446 -0.72641155
  H -2.01849646 -1.47878985 -1.46345408
  C -1.85030162  0.46361118 -0.26344600
  H -1.88695552  0.67690944  0.79481296
  H -2.59533495  0.97332257 -0.86119936
  C -0.51171313  0.23481301 -0.91240007
  H -0.19012879  0.72889093 -1.81287077
  H  2.01882394 -0.75027468  1.45016553
  H  1.84757748  1.78272780 -0.26880964
  H  3.17546077  1.34228855  0.91694139
