9
opt_min/./Reactant_5619_0_opt.xyz
  C -1.08129200 -0.02258300 -0.48578200
  N  0.27028946 -0.51404475 -0.34019738
  C  1.30251597  0.34029900 -0.24423310
  O  1.21050223  1.54233527 -0.25306950
  H  2.26905564 -0.18035757 -0.12433848
  H  0.42779704 -1.50527517 -0.31229659
  H -1.33523094  0.63242720  0.34782292
  H -1.77839136 -0.85397377 -0.51618378
  H -1.17745071  0.56031756 -1.40344386
