13
opt_min/./Product_2275_0_opt.xyz
  C -0.13927300 -1.06009100  0.12044800
  H -0.21760035 -1.86272332 -0.61785242
  H -0.31036420 -1.49700719  1.11016118
  C  1.23804425 -0.47692844  0.05355128
  H  2.05029245 -1.18845684 -0.01926864
  C  1.44346699  0.84633515  0.09102322
  H  2.43488875  1.26298368 -0.00833358
  C  0.39653102  1.72357060  0.59046100
  N -0.81510472  1.26206553  0.45785062
  H -1.57939297  1.79280886  0.85774283
  C -1.19290017  0.00322714 -0.18804152
  H -2.17568159 -0.30175027  0.18145752
  H -1.25778237  0.15957005 -1.27244582
