10
opt_min/./Product_2950_0_opt.xyz
  O -4.37777862  0.58671416  0.00502186
  C -98.75297400  68.97129881 -30.18302478
  C -82.80726115 -21.27518769  19.17214034
  C  79.41339323  24.81199402 -21.27593591
  C  13.45331644 -11.20231943 -5.89704010
  C -19.86055480  23.13737401  23.10577972
  H  12.89410789 -7.26884088  1.19106051
  H  6.37262107 -5.83218396 -15.36257278
  H  42.39145235 -34.21908244  14.92789840
  H  15.45274704  54.14565814  92.70363396
