14
opt_min/./Product_480_0_opt.xyz
  C  1.94796400  0.20261500  0.47917600
  C  0.53493296  0.34320619  0.06719313
  C -0.25182606  1.45844794  0.07303080
  C -1.55056977  1.12709627 -0.10855051
  H -2.37208882  1.77699379 -0.34792871
  C -1.70431853 -0.37057049  0.05098938
  H -1.83186144 -0.69066680  1.08691884
  H -2.53499118 -0.76755248 -0.53362796
  C -0.29185629 -0.81063853 -0.46716224
  H  0.04711837 -1.77674725 -0.09858022
  H -0.32208716 -0.84551674 -1.56019346
  H  2.60946361  0.28147560 -0.38633399
  H  2.11699682 -0.77167652  0.93309427
  H  2.21916331  0.99228991  1.17703704
