13
opt_min/./Product_2431_0_opt.xyz
  C  2.06049600  0.19965300  0.30817000
  C  1.09030568 -0.27274441 -0.45191583
  C -0.28243072  0.31647001 -0.52123322
  H -0.28336374  1.20224936 -1.16500299
  C -1.44948169 -0.62952961 -0.77152036
  H -1.73228422 -1.26955439 -1.57309332
  C -1.94251240 -0.29758790  0.43557955
  H -2.80476733 -0.54226327  1.02949077
  N -0.93285843  0.57529440  0.76527324
  H -0.71870825  1.14433096  1.56009764
  H  1.24937802 -1.14475938 -1.07118821
  H  3.03441496 -0.25711453  0.33811223
  H  1.91900910  1.06422503  0.93592164
