13
opt_min/./Product_6696_0_opt.xyz
  C  1.89566300 -0.70352200  0.05913400
  C  0.71597472  0.03158407  0.69554679
  H  0.84335886  0.01880601  1.78390514
  C  0.60416016  1.47237276  0.23647117
  O -0.58356109  1.57944717 -0.26267339
  C -1.25010110  0.32430687 -0.17751194
  N -2.50170512  0.28188761 -0.65276111
  H -3.00519807 -0.58397770 -0.64390381
  H -2.91001901  1.09940632 -1.06471030
  N -0.55856627 -0.58140806  0.36427676
  H  1.89202823 -1.73873688  0.38497887
  H  2.82426608 -0.22621710  0.35484120
  H  1.80994909 -0.67396750 -1.02449362
