15
opt_min/./Product_9073_0_opt.xyz
  C -2.09540600  0.79082100  0.10597200
  N -1.14115816 -0.32895539  0.02985732
  H -1.59604847 -1.17798323  0.36985309
  C -0.71088055 -0.63198758 -1.38653166
  C  0.64809464 -0.59427752 -1.26049615
  H  1.35980683 -0.75912644 -2.04737083
  C  1.03363232 -0.27881856  0.08513218
  C  2.43067316 -0.13747855  0.56853099
  H  3.12859691 -0.54329508 -0.16033167
  H  2.65677224  0.91625388  0.72652763
  H  2.55468362 -0.64879757  1.52077884
  N  0.01570221 -0.11231544  0.87256651
  H -2.31417083  1.12034363 -0.90771034
  H -3.01772077  0.50748411  0.60562812
  H -1.62123749  1.59889517  0.65892288
