14
opt_min/./Reactant_6188_0_opt.xyz
  O -1.15994400 -0.69861700  1.51076300
  C -0.47403207 -0.12656530  0.46053545
  C -1.07887101  0.08441792 -0.89635490
  H -2.01803412 -0.42180863 -1.06635761
  H -0.98292032  1.03325744 -1.40284418
  C  0.13105735 -0.79982676 -0.74689345
  H  0.14275346 -1.83871727 -1.01649755
  C  1.35375613  0.11077938 -0.64546335
  H  2.28910453 -0.41282718 -0.47039399
  H  1.47415189  0.78784177 -1.49053051
  C  0.75845312  0.76532416  0.62006792
  H  1.30825807  0.50794819  1.52338011
  H  0.60060654  1.84190057  0.58636715
  H -1.79704541 -0.06639195  1.86611794
