11
opt_min/./Product_10251_0_opt.xyz
  C  2.60186386 -0.72952020  0.55570427
  C  1.49866832 -0.70107588  0.09575640
  C  0.15135119 -0.61561237 -0.43223594
  H -0.03170753 -1.49941146 -1.05380045
  C -0.06833853  0.63867118 -1.24761356
  C -1.13983524  1.19502412 -0.56939340
  H -1.65827832  2.11136656 -0.77611035
  N -1.50458484  0.40512416  0.48394383
  H -2.26291273  0.60624597  1.13261081
  N -0.81963676 -0.65039121  0.65430378
  H  3.56414626 -0.73759017  0.96929496
