17
opt_min/./Product_9872_0_opt.xyz
  C -1.75037200  0.57520700  0.40294200
  C -0.65654142 -0.45076610  0.14807013
  H -1.10824577 -1.44586748  0.11464271
  C  0.55421706 -0.34677590  1.09508007
  H  0.82194404 -1.26392258  1.61625966
  H  0.48849672  0.45242332  1.83188247
  C  1.41882569 -0.03029049 -0.09628468
  C  2.69735934  0.24044522 -0.24674394
  H  3.36888093  0.27100593  0.59680285
  H  3.12900969  0.44378392 -1.21198517
  C  0.26258858 -0.13788438 -1.05252501
  H  0.34228270 -0.93542611 -1.78896544
  H  0.01755989  0.78372357 -1.57732444
  O -2.71232293  0.62430720 -0.62574765
  H -3.02924817 -0.27086989 -0.79340168
  H -2.23418729  0.35890289  1.37005807
  H -1.33703188  1.58543552  0.44575926
