14
opt_min/./Reactant_1178_0_opt.xyz
  C -1.88821900 -0.32525800  0.33699300
  C -1.01854609  0.16477319 -0.81202720
  O  0.34749806 -0.21529219 -0.63135737
  C  1.08899366  0.54740862  0.17959367
  O  0.67818195  1.52029774  0.75123049
  C  2.50242742  0.02808012  0.25201835
  H  2.97360743  0.37963288  1.16512210
  H  2.50417135 -1.05603550  0.20450096
  H  3.05577664  0.41382436 -0.60263554
  H -1.07166259  1.25624826 -0.88885166
  H -1.31737303 -0.29064323 -1.75854306
  H -2.93762835 -0.21293095  0.07602237
  H -1.68357056 -1.37557693  0.53660684
  H -1.68292710  0.25072825  1.23594160
