17
opt_min/./Product_11441_0_opt.xyz
  C  2.44897300  0.23940400  0.11041100
  C  1.28474162 -0.42144573  0.71283857
  C  0.31537247 -0.95459111 -0.26707365
  C -0.85235583  0.08565681 -0.34525480
  O -0.39073746  1.25255995 -0.95508757
  H -0.88360909  1.35071070 -1.77817370
  C -1.38725277  0.39638781  1.05413355
  H -1.69869951 -0.51452489  1.55625945
  H -2.23034174  1.07851675  0.97325420
  H -0.59357399  0.86209549  1.62914078
  O -1.86843926 -0.40652616 -1.18569117
  H -2.30835310 -1.15437215 -0.76949197
  H  0.69509487 -1.07876028 -1.29149405
  H -0.11338155 -1.89093641  0.09578408
  H  3.30023890 -0.39512283  0.37055173
  H  2.42957766  0.38680053 -0.97456726
  H  2.62292686  1.18480502  0.62452025
