10
opt_min/./Product_11276_0_opt.xyz
  O  1.37737423  0.20608825 -2.02931530
  C -6.18543448  21.51951749 -6.56051538
  C -61.44617503 -22.65514209 -64.36331907
  N  4.70238001  15.35113455 -4.07549559
  C  4.98122300  14.51195922 -6.62937851
  C -29.54187298 -72.14595217  45.80689523
  H  28.66747589 -26.54478871 -45.24178169
  H  19.51397676  12.74512398 -56.85319335
  O -45.86993649  76.44525798  116.34433440
  H -22.88849809  60.03793148 -16.59544087
