17
opt_min/./Product_11043_0_opt.xyz
  C  1.93477300  0.52532500  0.05715300
  C  1.33807207 -0.82215373 -0.36598972
  C -0.10271339 -0.99893814  0.11434367
  C -1.02135746  0.07573418 -0.43970509
  H -0.86371664  0.30036446 -1.48364748
  C -2.47546285  0.15641690  0.07028470
  H -3.25472060  0.42284984 -0.62544658
  H -2.78301651 -0.54861447  0.82326460
  C -1.47757863  1.16318960  0.42468364
  O -1.21293124  2.15532567  1.02994618
  H -0.47227994 -1.97936247 -0.19511217
  H -0.12316483 -0.96483957  1.20412478
  H  1.35709106 -0.91177963 -1.45222895
  H  1.93546773 -1.63959387  0.03239692
  H  2.96297770  0.41444597  0.38137986
  H  1.92217629  1.24066817 -0.75871164
  H  1.37332168  0.95716993  0.87950776
