11
opt_min/./Product_301_0_opt.xyz
  C  1.38103000 -0.15777800 -1.15889100
  C  0.51653820 -0.23175300 -0.15735336
  O  0.59520709 -1.20696723  0.82475049
  H  1.00237076 -0.84111394  1.61760259
  C -0.65512729  0.70062709 -0.07943069
  O -0.76408934  1.68136683 -0.78393317
  N -1.55606436  0.35730112  0.87155201
  H -1.50626051 -0.55672677  1.29428583
  H -2.42659149  0.86277133  0.91226979
  H  2.21466108 -0.83264028 -1.24534664
  H  1.24328508  0.58949357 -1.91869633
