14
opt_min/./Reactant_7955_0_opt.xyz
  C -1.89893600  0.63714400 -0.12809700
  C -1.08774195 -0.61178770  0.21446926
  C  0.35656050 -0.40258911 -0.06956610
  C  1.36267642  0.06670454  0.74516442
  H  1.39364628  0.37570122  1.77115388
  N  2.45584250  0.08688665 -0.05171199
  H  3.39901895  0.36913424  0.16283399
  N  2.14429845 -0.34891341 -1.26653628
  N  0.90382113 -0.63899904 -1.28772732
  H -1.44666642 -1.46011716 -0.36865032
  H -1.21084301 -0.84232626  1.27800429
  H -2.95788419  0.44015288  0.03222873
  H -1.75477369  0.91103977 -1.17090333
  H -1.59992807  1.47967513  0.49204829
