14
opt_min/./Product_2765_0_opt.xyz
  C -2.08684100 -0.89846900  0.25077700
  C -1.10299016 -0.25038661 -0.34036599
  C  0.02718501  0.43354741  0.38968928
  C  1.24770154 -0.43989365  0.26753789
  C  2.32161405 -0.11408337 -0.42457355
  H  2.38171149  0.83659086 -0.92793213
  H  3.17246820 -0.77026278 -0.50045142
  H  1.15463079 -1.38360176  0.78495077
  O  0.28462717  1.71352430 -0.14650840
  H -0.53085459  2.22741926 -0.10962753
  H -0.23067656  0.51787084  1.46420085
  H -1.03399049 -0.17238387 -1.41764815
  H -2.15068962 -0.97710008  1.32427522
  H -2.86725558 -1.38835434 -0.30612099
