15
opt_min/./Product_10087_0_opt.xyz
  C  2.55527000 -0.36840700  0.42592400
  C  1.14683465 -0.56270440 -0.01425648
  O  0.30164711  0.35311789  0.25995025
  C -0.99550717  0.43685643  0.03910732
  C -1.79735530 -0.65664101 -0.60087426
  H -2.71804853 -0.82546830 -0.04404232
  H -1.24184144 -1.59186555 -0.63077453
  H -2.07087835 -0.38744408 -1.62267651
  C -1.60305489  1.66515051  0.42935678
  O -1.03301019  2.61927156  0.93081316
  H -2.69358216  1.69070770  0.23019214
  H  0.86315923 -1.46773217 -0.53854966
  H  2.80670378  0.69038536  0.42201800
  H  3.23379677 -0.90956985 -0.22821911
  H  2.69970575 -0.73478647  1.44528743
