17
opt_min/./Product_6574_0_opt.xyz
  C  1.92096000 -0.69188700 -0.17304500
  C  0.53141092 -0.34259952 -0.71092869
  H  0.60745125 -0.09456850 -1.77938851
  O -0.32455068 -1.47100926 -0.57256256
  C -1.47639394 -1.15904052  0.19142167
  H -2.35139146 -1.52762219 -0.35429455
  H -1.41885560 -1.68888736  1.15071883
  C -1.51386874  0.35780660  0.39641681
  H -1.76215088  0.62216237  1.42367120
  H -2.24169130  0.83254164 -0.26675519
  C -0.12566391  0.79764845  0.02974300
  C  0.41228966  1.97365409  0.29454429
  H  1.41037787  2.22472257 -0.01899344
  H -0.13537893  2.72801930  0.83178887
  H  2.55927959  0.18742616 -0.18798888
  H  2.37079250 -1.47436107 -0.77799835
  H  1.83342934 -1.04878111  0.84998601
