14
opt_min/./Product_10222_0_opt.xyz
  C -1.99785100  0.02799785 -0.14849598
  C -0.78170699  0.95571032 -0.24803322
  N  0.35313704  0.25158732 -0.77708242
  C  1.23998273 -0.25231838 -0.01723729
  N  2.26632725 -0.98130285 -0.53789843
  H  3.03859840 -1.26059718  0.03840365
  H  2.37207260 -0.97945227 -1.53627636
  C  1.25963868 -0.14880714  1.42312328
  N  1.20779740 -0.07076898  2.56546657
  H -0.98412337  1.75790301 -0.96330374
  H -0.59115660  1.40614967  0.73661208
  H -2.43206718 -0.14299867 -1.12855805
  H -2.74817433  0.46552142  0.50213473
  H -1.70207915 -0.93283702  0.26433728
