9
opt_min/./Product_5690_0_opt.xyz
  O -0.01386592 -0.69617528  1.29704383
  C  0.10713233 -0.22556339 -0.03023050
  C -0.87899250  0.86667438 -0.35911202
  C -1.04418652  1.94470151 -1.03458832
  H -1.86065659  0.76928217  0.12926973
  C  1.46376865  0.28672241 -0.21390744
  N  2.52355890  0.67246608 -0.38069929
  H -0.02485208 -1.04460828 -0.75911113
  H -0.51526073 -1.51430628  1.33936712
