14
opt_min/./Product_10054_1_opt.xyz
  C -1.88353300  0.96163800  0.05593400
  C -1.00675984  0.25532343  0.91748625
  H -1.05788458  0.34174772  2.00653688
  C -0.58447063 -1.13369555  0.38844826
  H -1.03155333 -1.44235013 -0.54374059
  H -0.51476616 -1.91164551  1.13386257
  C  0.39868192 -0.05165728  0.35631283
  C  0.82870104  0.60034235 -0.93919949
  O  2.07733599  0.12853311 -1.38668857
  H  2.68985918  0.08635451 -0.64306479
  H  0.85626711  1.69326434 -0.81466609
  H  0.11374398  0.36830684 -1.73037228
  H  1.18024508 -0.06594221  1.11165207
  H -2.56628234  1.60221922  0.64326856
