11
opt_min/./Product_9452_0_opt.xyz
  O  2.52629700  0.83920800  0.24795300
  C  1.32738933  0.30051583  0.12409793
  N  1.11031901 -0.92949917 -0.17174577
  C -0.31831606 -1.08191826 -0.20264131
  H -0.65226447 -1.80701361  0.54253710
  H -0.65757779 -1.41736187 -1.18370020
  C -0.78538608  0.31376118  0.13213236
  O -2.05373129  0.64990798  0.21637095
  H -2.12345488  1.58877820  0.44755810
  N  0.20905564  1.10835325  0.32056729
  H  3.19166017  0.15833915  0.07943160
