17
opt_min/./Product_10114_0_opt.xyz
  C -2.54728100 -0.42075000  0.82275600
  C -1.96204042 -0.72257610 -0.52105110
  C -0.83666385 -0.24594219 -1.02907509
  C  0.12482436  0.69002398 -0.36002419
  O  1.38594059  0.04220541 -0.29467929
  C  2.34780634  0.67998796  0.41729239
  C  3.60376423  0.26749608  0.45337838
  H  4.33393403  0.77861719  1.05083325
  H  3.92635581 -0.59369416 -0.10194574
  H  2.01905729  1.55740833  0.97118526
  H  0.21665286  1.61400796 -0.95024082
  H -0.21065392  0.95449117  0.65233656
  H -0.51729857 -0.55993286 -2.01210482
  H -2.53634039 -1.41558246 -1.12126487
  H -3.62603603 -0.54488351  0.80739113
  H -2.13675474 -1.10818569  1.56345065
  H -2.31510115  0.59274487  1.14153226
