12
opt_min/./Product_201_0_opt.xyz
  O  2.55948500  0.32174100 -0.44746300
  C  1.47459758 -0.47595454 -0.17618224
  C  0.27125253  0.00959244  0.01297631
  C -0.64543944  1.16194267  0.00190861
  H -0.88567806  1.58206489 -0.96674398
  H -0.62160085  1.86469903  0.82429304
  C -1.15346575 -0.23349134  0.27364504
  O -1.95910580 -0.83336259 -0.70132019
  H -1.97758151 -1.78579335 -0.54898153
  H -1.46719541 -0.47081972  1.29409370
  H  1.67425725 -1.53932644 -0.10080558
  H  3.32996278 -0.22804238 -0.62556803
