14
opt_min/./Product_11403_0_opt.xyz
  O  0.02313300  1.40453600 -0.30098600
  C  1.09210978  0.60011122 -0.10191340
  N  2.26228236  0.92516212 -0.41704003
  H  2.35239450  1.84912897 -0.82872636
  C  0.82152814 -0.75549028  0.50604392
  H  0.64064841 -0.61288789  1.57733725
  H  1.70802628 -1.37526595  0.38253639
  C -0.40369904 -1.32236711 -0.13397314
  H -0.41471825 -2.36191813 -0.42845941
  C -1.43227986 -0.51342755 -0.33927830
  H -2.35028981 -0.82216777 -0.80892907
  C -1.26025392  0.91714541  0.06974189
  H -1.37513105  1.01444330  1.16131164
  H -1.97168956  1.58583389 -0.41650248
