12
opt_min/./Product_352_0_opt.xyz
  C -2.04847585  1.06527637 -0.08319982
  C -14.69936929 -21.69355934  10.93465715
  O  1.09059177  48.71302264 -52.00823758
  C -0.49915474  20.92951938 -11.81187265
  C  24.11689560  1.42332593  3.43160433
  C  10.50700903  4.69064070  10.57953453
  H  6.02057707 -11.34524559 -5.12969135
  H  4.43038659 -12.67351957 -0.30105264
  H  21.92566673 -39.39038671  11.79823523
  H  35.50737166  30.45644740  0.41379333
  H  6.41061573  6.65129529 -3.39245861
  H -7.79420175  3.36027075 -4.70778808
