11
opt_min/./Product_1836_0_opt.xyz
  N  1.90169800  0.02423300  0.61905400
  C  0.64498711  0.30128727  0.19566219
  C  0.22516467  1.45395439 -0.48105924
  O -1.12649292  1.28563687 -0.63382414
  C -1.61170423  0.19505158 -0.13143503
  H -2.65680154 -0.03723475 -0.21210549
  C -0.52261476 -0.61081875  0.47453988
  H -0.65892754 -0.76496924  1.54629561
  H -0.43362836 -1.58824340 -0.00168004
  H  2.64259357  0.61630343  0.28804848
  H  2.14029438 -0.89073160  0.96041125
