10
opt_min/./Reactant_5044_0_opt.xyz
  C -1.63357100 -0.14839600 -0.06859400
  C -0.17120532  0.04379593 -0.01926080
  N  0.74009471 -0.87669197  0.10522734
  C  1.89326135 -0.16033693  0.10087943
  H  2.85946241 -0.61240594  0.18819517
  N  1.71241567  1.11826525 -0.00308119
  O  0.36052362  1.27045504 -0.09085071
  H -2.10018178  0.66582547 -0.61606946
  H -1.85158854 -1.10190215 -0.53968580
  H -2.03470651 -0.16359519  0.94390676
