13
opt_min/./Product_4995_0_opt.xyz
  C  1.04792500  0.70315500 -0.48610600
  C  2.28349771  0.57137480 -0.03701500
  H  2.61607754 -0.34434642  0.42253063
  H  3.00489278  1.36353200 -0.12553793
  C  0.00453505 -0.36597549 -0.40532541
  N -1.16873948  0.10130381  0.31161746
  C -2.23527070 -0.69296700  0.48621519
  O -2.33342664 -1.82879469  0.09212191
  H -3.03745245 -0.20255393  1.06611345
  H -1.16734221  1.03500336  0.68412135
  H -0.30362812 -0.66618478 -1.41514316
  H  0.39999823 -1.25639369  0.09160702
  H  0.73194030  1.62884800 -0.94990326
