9
opt_min/./Product_1604_0_opt.xyz
  O  1.40666804 -0.14147394  1.09551495
  C  1.40707068  0.07516887 -0.07620015
  O  0.36429644  0.01330491 -0.90067585
  C -0.90093161 -0.27375076 -0.31251819
  N -1.40124266  0.81569237  0.40567482
  C -1.79617817  1.73173438  1.00205931
  H -1.57314844 -0.49998873 -1.14647018
  H -0.81505204 -1.13433057  0.36766435
  H  2.30108423  0.33624481 -0.66583151
