15
opt_min/./Reactant_8204_0_opt.xyz
  O -2.02345217  1.23537198  0.39111665
  C -1.85082637 -0.04617825 -0.16879124
  C -0.55069958 -0.71697272  0.26719010
  C  0.64037493  0.24898101  0.18217436
  O  0.64367017  1.01197713  1.38366673
  H  1.37073199  1.64153741  1.35780401
  C  1.89522184 -0.47769897  0.01751723
  C  2.96125371 -1.01796940 -0.04163524
  H  3.88070982 -1.51564448 -0.13005896
  H  0.51109033  0.92146558 -0.68420617
  H -0.37519228 -1.60272765 -0.34322667
  H -0.62877319 -1.02210573  1.31450345
  H -2.69249102 -0.69921559  0.11445805
  H -1.87275125  0.08451388 -1.25800149
  H -1.47619960  1.29230238  1.18489215
