11
opt_min/./Product_873_0_opt.xyz
  N  1.26719702 -2.26826898 -1.33565601
  C  1.03920591 -1.42349306 -0.60132608
  C  0.71660437 -0.32824830  0.31052634
  C -0.68462979  0.12996333 -0.02600925
  C -0.96454035  1.01260780 -0.96529175
  H -0.19389993  1.48354462 -1.55391953
  H -1.97863432  1.29472784 -1.18800135
  H -1.46094793 -0.35173020  0.55364016
  O  0.84874756 -0.80418412  1.63190597
  H  0.56383843 -0.11409243  2.24135447
  H  1.44052039  0.48293965  0.10457147
