11
opt_min/./Product_2417_0_opt.xyz
  C  1.90042500 -0.67640700 -0.30369200
  C  0.82217086 -0.22654374  0.51838631
  H  1.21627237  0.25897435  1.42007141
  C -0.08012828  0.72675914 -0.32324925
  H -0.12453268  1.74803006  0.04370302
  H  0.14470158  0.72151429 -1.38712169
  C -1.20650533 -0.20512104  0.12001292
  H -1.71476181 -0.74115009 -0.68721811
  H -1.94858274  0.25044330  0.78392286
  O -0.32403653 -1.05665103  0.83799935
  H  1.77804824 -1.73203709 -0.59279505
