12
opt_min/./Product_8280_1_opt.xyz
  C -1.29600800 -0.58208800 -0.18729500
  C -0.25936346  0.24503207  0.59361123
  C  1.02371666  0.25197432 -0.19158701
  N  1.84020463 -0.69187272 -0.09439807
  H  2.66748152 -0.62897358 -0.68415633
  H  1.13717303  1.12971611 -0.84908562
  O -0.72450180  1.54327167  0.86703335
  H -0.86461362  2.00953584  0.03293476
  H -0.08633048 -0.21707876  1.56972958
  H -2.22690727 -0.62549105  0.37361823
  H -1.49109910 -0.12281650 -1.15622068
  H -0.92038763 -1.58973906 -0.34152814
