12
opt_min/./Reactant_5556_0_opt.xyz
  C -1.94002700 -0.19577700 -0.07752300
  H -2.04181833 -0.71605522 -1.02185448
  H -2.78367681  0.42657117  0.19890529
  O -1.34835767 -0.91396817  0.95838768
  C -0.60132232  0.13286374  0.42100869
  C  0.62915696 -0.20100770 -0.38351721
  H  0.46647279 -0.35644030 -1.44784533
  C  1.95366072  0.27014589  0.03347450
  H  2.71405504  0.46529393 -0.71318728
  H  2.03639730  0.83780135  0.95267287
  O  1.57417535 -1.06225765  0.18061449
  H -0.49525359  1.00082190  1.06717260
