17
opt_min/./Product_10757_0_opt.xyz
  O  2.56399300 -0.24280400  0.50099800
  C  1.58986100  0.21302571  1.21175682
  C  0.28618382  0.70545780  0.68184733
  C -0.75506004 -0.42641804  0.52006363
  C -2.04748243  0.10654189 -0.00742616
  C -2.59494038 -0.25488026 -1.15440742
  H -3.52527863  0.16806363 -1.49140555
  H -2.13090339 -0.99072449 -1.78911936
  H -2.53265684  0.85162279  0.60967264
  H -0.36599062 -1.18540768 -0.15908468
  H -0.92657352 -0.88117948  1.49827880
  H -0.11706641  1.46299511  1.35711091
  H  0.43878202  1.17842411 -0.29292238
  H  1.73568021  0.10678857  2.27440922
  C  2.67317974 -0.36469154 -0.78200011
  H  1.89254458 -0.07712837 -1.46591012
  H  3.63283592 -0.67777469 -1.14070303
