18
opt_min/./Product_2705_0_opt.xyz
  C  2.00957200  0.11947500  0.48842700
  C  0.83591759  0.27029765 -0.48191636
  C -0.51836523 -0.05734463  0.15600970
  C -1.64297366  0.33719932 -0.81095475
  C -1.93962622  1.72426562 -1.10522648
  H -1.51406839  2.38318104 -0.32432138
  H -2.62556725  0.12616689 -0.34082197
  H -1.62010822 -0.27925135 -1.71640240
  C -0.61761968 -1.53893852  0.51051890
  H  0.15334481 -1.81120537  1.22821892
  H -1.59079351 -1.76524775  0.94811738
  H -0.48897033 -2.15420769 -0.38012933
  H -0.62550257  0.52748623  1.07774608
  H  0.98583511 -0.38917309 -1.34096604
  H  0.80200917  1.29336776 -0.86636910
  H  1.67738368  0.25822097  1.51759765
  H  2.77343324  0.87016364  0.28922943
  H  2.46594090 -0.86354020  0.40628817
