15
opt_min/./Product_10464_0_opt.xyz
  C -0.71316437 -1.45531760 -0.69277766
  C -0.23066532 -0.44147560  0.34749576
  C  0.97883833  0.32945500 -0.13500913
  C  2.05052123  0.55037505  0.61380560
  H  2.88745741  1.12210588  0.24665559
  H  2.12219393  0.17164539  1.61520408
  O  0.84224698  0.79175245 -1.40764012
  H  1.60874317  1.32901137 -1.64279379
  C -1.28601591  0.51833370  0.64144643
  C -2.13789346  1.33291127  0.84686975
  H -2.89363565  2.03761710  1.02661316
  H  0.03531892 -0.96150805  1.27489752
  H -1.58035094 -1.99270212 -0.31633040
  H -0.98856754 -0.94478911 -1.61207938
  H  0.07852398 -2.17006306 -0.91190291
