16
opt_min/./Product_10733_0_opt.xyz
  N -1.99493700 -1.20244700 -0.00406700
  C -0.90104901 -0.28353048  0.00863643
  O -1.05332399  0.83655715  0.83431490
  H -1.35547291  1.59294746  0.31889184
  C -0.13011978 -0.15304684 -1.27035534
  H  0.30204390  0.81259822 -1.48844234
  H -0.45923148 -0.74276289 -2.11132524
  C  0.47501487 -0.88360732 -0.09968490
  C  1.62847300 -0.27181844  0.67209553
  O  2.04215735  0.93293483  0.06463241
  H  2.69295186  1.35498583  0.63517858
  H  2.46223484 -0.99142263  0.69161455
  H  1.30893608 -0.08127595  1.70793448
  H  0.50670495 -1.96428619 -0.16783658
  H -2.83718262 -0.76114204 -0.36389518
  H -2.20113826 -1.54104922  0.93091796
