10
opt_min/./Product_3086_0_opt.xyz
  N -1.93289400 -0.50859500 -0.32535900
  C -0.70929408 -0.29279245 -0.17444227
  C -0.11824338  0.94739625  0.48184822
  H -0.43494403  1.05377187  1.52097120
  H -0.36993430  1.85681466 -0.06726420
  O  1.28192452  0.71578896  0.41757295
  C  1.42366624 -0.46222465 -0.18422579
  H  2.42322610 -0.83105720 -0.33706172
  N  0.38209578 -1.09213204 -0.54739208
  H -2.14323851 -1.38776360 -0.78460361
