12
opt_min/./Product_9752_0_opt.xyz
  O  3.19922700  1.25319300 -0.45304800
  C  2.35417209  0.48231171 -0.25346533
  C  1.46014975 -0.41710670  0.00635642
  C  0.27096528 -0.18410693  0.91119014
  N -0.97948353 -0.42596106  0.21677469
  C -1.50443978  0.49203187 -0.61872158
  O -1.04024458  1.57619000 -0.85014000
  H -2.45186157  0.13038113 -1.07207831
  H -1.44375023 -1.30747604  0.35438063
  H  0.32218703 -0.85783975  1.77163888
  H  0.27545690  0.84936416  1.26314652
  H  1.49469106 -1.35543818 -0.52099825
