11
opt_min/./Product_7330_0_opt.xyz
  N -1.82693600  0.94390500  0.51823500
  C -0.88868285  0.17608194  0.20465901
  C -0.80546844 -1.12211308 -0.20876098
  H -1.58714904 -1.82483695 -0.38205857
  O  0.49739947 -1.57009500 -0.44356270
  C  1.40145672 -0.69592593 -0.22696951
  O  2.59299652 -0.71777823 -0.32047931
  N  0.68247810  0.60531977  0.22618892
  H  0.90610364  1.37727736 -0.40553892
  H  0.97672941  0.87377893  1.16838008
  H -1.63605532  1.89485327  0.78279194
