14
opt_min/./Product_558_0_opt.xyz
  C  1.34119200  0.17092200 -0.55786700
  C  0.17891846  0.00265454  0.42614547
  H  0.54061545  0.08343334  1.45945991
  C -1.08804483  0.81100641  0.12315284
  H -1.03426728  1.44322561 -0.76160088
  H -1.48354091  1.38255878  0.96003345
  C -1.74141275 -0.55474001 -0.09394321
  H -2.06004632 -0.76583596 -1.11895598
  H -2.54254483 -0.81752919  0.60287525
  O -0.52759791 -1.23023480  0.22981508
  C  2.58438021 -0.55309025 -0.34861080
  H  2.63223825 -0.95930935  0.67714032
  H  0.99688369  0.03074723 -1.58855318
  H  1.69325913  1.21372838 -0.50004131
