10
opt_min/./Product_7533_1_opt.xyz
  C -0.60553708 -1.12605496 -0.56185501
  C  0.02475688  0.00646247 -0.24804392
  C  0.19573125  0.51547787  1.15417503
  H -0.77225088  0.71025566  1.60532947
  H  0.70994284 -0.22642468  1.75975927
  H  0.78073495  1.43159257  1.16759839
  C  0.57300241  0.79232695 -1.28778212
  N  1.02525908  1.43098706 -2.12607088
  H -1.03419229 -1.75045398  0.20297449
  H -0.71286449 -1.46470992 -1.57832370
