14
opt_min/./Product_2148_0_opt.xyz
  C -1.13401000 -0.42435700  0.89044200
  C -0.42570759 -0.18815163 -0.42845524
  H -0.93200220 -0.71938470 -1.24274223
  C -0.09083453  1.27179405 -0.74943772
  H -0.38869002  1.68045039 -1.71625005
  H -0.42500770  1.99750394  0.00288159
  C  1.37876803  1.05886757 -0.52141342
  C  1.10635494 -0.42273279 -0.40145820
  O  1.65683006 -1.18586372  0.62672738
  H  2.50903182 -0.80129711  0.86488726
  H  1.42009611 -0.82564533 -1.38633303
  H -0.67715376  0.17234448  1.68068201
  H -1.06189239 -1.47259895  1.17137290
  H -2.18344506 -0.14226599  0.81273957
