12
opt_min/./Product_4269_0_opt.xyz
  C -1.64100800 -0.24617700 -0.11030200
  C -0.36330134  0.00228039  0.65205528
  H -0.42600174 -0.21937153  1.71344283
  C  0.91573003 -0.02518485  0.01069261
  C  1.94616319 -0.61235675 -0.54040241
  H  1.98406567 -1.68728382 -0.61434136
  H  2.77990725 -0.05757180 -0.93497449
  C  0.40047546  1.31403387  0.33498691
  C  0.52622715  2.57003484  0.31990129
  H -1.85166283 -1.31492494 -0.11358968
  H -2.47633727  0.27300294  0.35375095
  H -1.54815257  0.09666661 -1.13852371
