9
opt_min/./Product_7361_1_opt.xyz
  C  0.82746100 -1.12244400  0.08747200
  C  1.22468687  0.31894806 -0.18587147
  H  1.87737681  0.74252414  0.56575830
  H  1.47947193  0.59832380 -1.20089693
  C -0.23500059  0.30767114  0.06853593
  H -0.74372067  0.65105770  0.95572421
  O -0.95461235 -0.01802669 -1.06326225
  C -0.45878872 -1.19437110 -0.46415510
  H -1.18650965 -1.95599014 -0.23177058
