10
opt_min/./Product_491_0_opt.xyz
  C -0.67567059  0.47726309  1.37399263
  C -0.45990499 -0.54380226  0.29093589
  H -1.35393318 -1.05512716 -0.05124687
  C  0.67876937 -0.46303432 -0.61477281
  N  1.24416762  0.11173439 -1.64971373
  C  1.72501137  0.63123243 -2.58548724
  N  0.80549872 -1.35349272  0.27252705
  H -1.19513004  0.02278718  2.21596636
  H  0.27199027  0.87900105  1.72508742
  H -1.29197124  1.29613488  1.00352438
