12
opt_min/./Product_789_0_opt.xyz
  N  2.12135300  0.43788800 -0.18267300
  C  1.06258537  0.07226369  0.59582795
  O  1.03580094  0.09627106  1.79683663
  N -0.03304427 -0.45691476 -0.18773526
  H  0.10289611 -1.24870160 -0.81942446
  C -0.73589017  0.84107536 -0.42858064
  H -1.10079786  0.91828543 -1.46135235
  C -1.36680332 -0.21929640  0.37167807
  H -1.40274636 -0.11082184  1.44917112
  H -2.10210131 -0.92023360 -0.02705743
  H  2.83441199  0.96756669  0.29198077
  H  1.94054101  0.67984057 -1.14274947
