11
opt_min/./Product_10199_0_opt.xyz
  C -1.34023115 -0.75617258 -0.06560358
  C  2.82135639  8.29828802 -5.42422795
  O  1.02631435  2.05110983  11.00852168
  C -3.81607444  3.63296464  3.39693462
  O -21.13435896  7.68862350  8.95001395
  H  6.95594937  3.62106468  15.79474193
  C  4.36241390  8.45937000 -18.85864801
  O  9.17836010  4.37537571 -14.50856610
  H  9.09715860  5.39255542 -2.89573137
  H -9.90795156  10.96098895  3.55359042
  H  6.96450685 -7.34412304 -12.88437859
