14
opt_min/./Product_660_0_opt.xyz
  O  0.51077400  0.57104400  1.62222900
  C  0.57085031  0.33715611  0.23428256
  C  1.51936314 -0.83424483  0.00049698
  H  1.12931685 -1.71598813  0.50288248
  H  2.50093225 -0.59987424  0.40399165
  H  1.60008795 -1.03710730 -1.06334423
  C -0.82253464  0.03595046 -0.33949226
  H -1.03504375  0.57310828 -1.25762648
  C -1.38827724 -1.33745574 -0.26953828
  C -1.96179415 -0.27221451  0.57543897
  H -2.95957019  0.10228398  0.40353428
  H -1.71745248 -0.36988214  1.63040905
  H  0.96011443  1.23526093 -0.27263875
  H -0.00190290  1.36920074  1.79360057
