15
opt_min/./Product_7737_0_opt.xyz
  C  1.91913300 -0.57017100  0.14942200
  C  0.45960188 -0.27854449  0.06532468
  C -0.15378345  0.90849520  0.25217554
  O  0.45112683  2.08873474  0.56598396
  H -0.21705898  2.77873226  0.63635087
  C -1.63577572  0.76881530  0.06821655
  H -2.02332200  1.40677229 -0.72819377
  H -2.16945641  1.02076713  0.98985837
  C -1.77277957 -0.68368760 -0.26383830
  H -2.72088129 -1.14153013 -0.47770817
  C -0.56372935 -1.25604978 -0.25794992
  H -0.34398748 -2.29161498 -0.44687300
  H  2.11626101 -1.33785248  0.89692916
  H  2.29548022 -0.93070914 -0.80710898
  H  2.45431178  0.33527022  0.42282898
