19
opt_min/./Product_8397_0_opt.xyz
  C  3.42478500  0.01333300  0.19077300
  O  2.16955350  0.29782957  0.05820621
  C  1.25902659 -0.34876109 -0.57315865
  C -0.15911475  0.14219183 -0.54980876
  C -1.06597309 -0.90352727  0.12680659
  C -2.55156590 -0.63766068 -0.08580497
  H -3.13496811 -1.49010170  0.25577932
  H -2.76534228 -0.47032477 -1.13915376
  H -2.87192398  0.23868534  0.47305230
  H -0.81552529 -1.88637556 -0.27985711
  H -0.84512110 -0.92089043  1.19608952
  C -0.24635503  1.49932587  0.13907736
  H -1.26251127  1.88162217  0.10213012
  H  0.05160746  1.41128068  1.18339871
  H  0.41716692  2.21404552 -0.34216762
  H -0.49929227  0.25241248 -1.59041755
  H  1.50112154 -1.28231365 -1.06940604
  H  3.86484512 -0.86479746 -0.25263192
  H  4.00381759  0.72801642  0.74025937
