15
opt_min/./Product_6552_0_opt.xyz
  C -1.60957500  0.58931700  0.23874200
  H -2.64668423  0.52137351 -0.11777385
  H -1.48117723  1.53842809  0.78278523
  N -0.67325070  0.41052116 -0.84719674
  H -0.10853630  1.24174038 -0.97886431
  C  0.19793365 -0.72735106 -0.48441913
  C  1.66307148 -0.31963081 -0.31725276
  O  1.74676839  0.74226108  0.61801082
  H  2.51125711  1.28732959  0.41266339
  H  2.22867895 -1.18724843  0.04695302
  H  2.07177212 -0.01089514 -1.28722432
  H  0.14584787 -1.49436247 -1.26921360
  C -0.35147217 -1.32685286  0.79050646
  N -1.31693433 -0.53751735  1.12943142
  H -1.94510840 -0.73029715  1.89632888
