12
opt_min/./Product_5640_0_opt.xyz
  C  1.18747200  0.07797100 -0.29904700
  H  1.08853498  0.18602323 -1.37094608
  H  2.20641372  0.11953033  0.06919989
  C  0.30841792 -0.97062651  0.40609292
  H  0.42538585 -2.04856053  0.41462098
  O  0.42848888 -0.18963031  1.64101857
  C  0.16615984  0.77792377  0.60643238
  H  0.05435608  1.83231143  0.84082904
  C -0.96397092 -0.16052564  0.03560246
  C -1.28917494  0.07988412 -1.34789649
  H -2.26272838  0.59435229 -1.40985005
  H -1.79043843 -0.27235052  0.74554379
