8
opt_min/./Product_4643_0_opt.xyz
  C -1.09389492  0.01696525 -0.49199968
  C  0.06069909 -0.11932996  0.16204772
  O  0.15939636 -0.80915045  1.33407122
  H  1.07190578 -0.81892114  1.65208540
  C  1.24848586  0.46390137 -0.35471198
  N  2.22837856  0.92012372 -0.73784844
  H -1.99695586 -0.41924140 -0.10959210
  H -1.14022306  0.56579642 -1.41568420
