14
opt_min/./Product_3798_0_opt.xyz
  C -1.86817400  0.38577300  0.54881900
  C -0.90245805 -0.28616764 -0.42546467
  C  0.48237914 -0.47085758  0.19891657
  H  0.37392606 -1.04420980  1.13014318
  C  1.52349832 -1.07693300 -0.70684295
  C  2.26134904  0.19581731 -0.40340782
  H  3.16358795 -0.03406098  0.17859106
  H  2.53588724  0.80905952 -1.26194568
  O  1.22713932  0.73363226  0.41123275
  H -0.79530922  0.30444121 -1.33540893
  H -1.25163706 -1.27974164 -0.71302276
  H -2.62394065  0.95227408  0.00902308
  H -1.33452063  1.07089238  1.19805672
  H -2.38994762 -0.35240364  1.15071243
