9
opt_min/./Product_7280_1_opt.xyz
  O  2.05363000  0.18465100  0.24215800
  C  0.70448691  0.40851428  0.32346540
  C -0.23275164 -0.44851000 -0.06450014
  N -1.60627777 -0.25531679  0.12400449
  H -2.17172705 -0.62856010 -0.62641885
  H -1.84739054  0.70343960  0.33558176
  H  0.03520522 -1.40867268 -0.48486256
  H  0.48139310  1.37227703  0.75174835
  H  2.21194140 -0.69538491 -0.11918464
