18
opt_min/./Reactant_1247_0_opt.xyz
  C -2.66140100  0.49923000 -0.39572000
  C -1.53156851 -0.51137477 -0.52461382
  C -0.22276532  0.03266458  0.03779932
  O  0.76690584 -0.96747174 -0.08773944
  C  1.97647453 -0.69270379  0.58286322
  C  2.80669373  0.41240587 -0.06308004
  H  2.93472964  0.21529593 -1.12588520
  H  2.33199841  1.38456311  0.05545466
  H  3.78673095  0.45646833  0.40796045
  H  1.77004398 -0.43073007  1.63359537
  H  2.52500224 -1.63731744  0.55313895
  H -0.34704000  0.30061930  1.09932739
  H  0.07439647  0.93714467 -0.51292554
  H -1.37142467 -0.77337003 -1.57174906
  H -1.78035614 -1.42881710  0.01139325
  H -2.40102769  1.42302638 -0.91041517
  H -2.85509316  0.73002615  0.64940984
  H -3.57200438  0.10474873 -0.84087319
