13
opt_min/./Product_3333_0_opt.xyz
  C  0.47669400  0.13600900 -1.13170100
  H  0.61484015 -0.76401105 -1.73726049
  H  0.58437342  1.00221038 -1.78926251
  C  1.45127556  0.16727076  0.02257110
  H  2.51437713  0.18799029 -0.13373041
  C  0.79879980  0.23260955  1.17482023
  H  1.18767303  0.23255093  2.17947475
  N -0.60783014  0.27117674  1.02718779
  C -0.85635084  0.15645534 -0.40070506
  H -1.66112570  0.77142105 -0.78178560
  C -1.16639612 -0.96792448  0.50416158
  H -2.18987118 -1.18394411  0.77698818
  H -0.50285054 -1.82502335  0.46556393
