12
opt_min/./Product_4691_0_opt.xyz
  C -1.56593900  0.70234600  0.46593600
  H -1.62208269  1.75606261  0.22998519
  H -1.99084019  0.45390893  1.42801560
  C -1.67976073 -0.29614567 -0.66040565
  H -2.18141436 -1.23407108 -0.46922706
  H -1.81022452  0.07763588 -1.66619769
  C -0.38875733 -0.05686176  0.00639007
  C  0.85094312 -0.34122863  0.13759064
  C  2.12311652 -0.57650728  0.30793352
  O  3.14966654  0.06670505 -0.33112564
  H  2.79848762  0.73815716 -0.92591689
  H  2.49507561 -1.34414402  0.97108505
