17
opt_min/./Product_8504_0_opt.xyz
  C -1.16736839  1.14736016  0.05741535
  C -0.33362435 -0.09284883 -0.25645444
  C -1.11339067 -1.36616549  0.06114731
  H -2.01385898 -1.41082867 -0.54709577
  H -1.40355719 -1.38287411  1.10896665
  H -0.51406981 -2.24796926 -0.14848289
  C  0.96737281 -0.05620256  0.54378592
  H  0.74972146 -0.04705355  1.61350466
  C  2.01477839  0.95131602  0.15155691
  H  2.18428122  1.99441237  0.03364854
  O  2.89577102 -0.01864036 -0.12008277
  C  2.06531578 -1.01638451  0.18190132
  H  2.30362885 -2.05276974  0.14047126
  H -0.08018391 -0.08968657 -1.32086946
  H -2.05253489  1.17495558 -0.57406950
  H -0.58972597  2.05148096 -0.11505585
  H -1.48783510  1.13857379  1.09700738
