12
opt_min/./Product_1077_0_opt.xyz
  N -1.88873500  0.05631600 -0.06865600
  C -0.40415526  0.24780556 -0.02751248
  C  0.21405911  1.45840409 -0.07581809
  C  1.59596568  1.01570290 -0.00059140
  H  2.44171680  1.68239958 -0.00930017
  C  1.69221565 -0.34068693  0.07861484
  H  2.54866512 -0.98974634  0.14407467
  N  0.42842905 -0.87574204  0.06552280
  H  0.20061285 -1.85541598  0.12274024
  H -2.26135816 -0.34346036  0.80065209
  H -2.19631683 -0.50633757 -0.86973394
  H -2.20165926  1.02788320 -0.17019741
