19
opt_min/./Product_7429_0_opt.xyz
  C  1.88865200  0.47145800 -0.29551300
  C  1.31756234 -0.92991607 -0.09701560
  C -0.20452472 -1.00271882  0.02035951
  H -0.48380120 -2.04985391  0.14477398
  C -1.02067261 -0.33282071 -1.10205798
  H -0.43718257  0.24801538 -1.80778466
  H -1.67834597 -0.99689969 -1.65512239
  C -1.72128642  0.55346912 -0.02689004
  C -1.70329796  1.96193690 -0.33745038
  H -1.32860199  2.56591126  0.50864367
  H -2.78676813  0.31430834  0.03390165
  C -0.88006812 -0.11463047  1.08725886
  H -0.20631427  0.56486040  1.60339374
  H -1.44611609 -0.66976874  1.83136126
  H  1.74791736 -1.36146373  0.80957120
  H  1.61986376 -1.55611893 -0.93922001
  H  1.56586774  0.90034915 -1.23977868
  H  2.97442372  0.42999287 -0.29475787
  H  1.57577580  1.13930340  0.50185717
