12
opt_min/./Product_9393_1_opt.xyz
  C  1.62063100 -0.07019000 -0.03648700
  N  0.51188728  0.83508120  0.01003561
  C -0.68973341  0.45821262  0.02832439
  O -1.65099729  1.39974549  0.07992771
  H -1.23096439  2.27274593  0.10184263
  C -1.25536628 -0.93620267  0.00270985
  H -1.03191747 -1.41119624 -0.95079158
  H -0.82668264 -1.53488017  0.80282714
  H -2.33296663 -0.89211754  0.12725084
  H  2.33896404  0.32960202 -0.75261741
  H  1.36307747 -1.09655690 -0.31557880
  H  2.10095992 -0.07914284  0.94393312
