12
opt_min/./Product_3457_0_opt.xyz
  N  1.91112700  0.18222700  0.30915600
  C  0.98218227 -0.11064443 -0.61597204
  O  1.21241826 -0.51172876 -1.72242211
  N -0.37180091  0.10540859 -0.14186562
  C -1.24825054 -0.80049412 -0.53686128
  H -0.91360584 -1.62284569 -1.13278098
  H -2.27158348 -0.70745600 -0.23506201
  C -0.58003978  1.11857274  0.69602345
  H -1.58722793  1.28831631  1.02737492
  H  0.11181626  1.93729706  0.71276460
  H  1.65479454  0.43487410  1.24848972
  H  2.87669431  0.02098749  0.07934358
