14
opt_min/./Product_11689_0_opt.xyz
  C -2.00727500 -0.46634300  0.15269100
  C -0.84589437  0.32576118 -0.45306435
  H -1.18189343  0.74884325 -1.40950838
  C -0.44066137  1.50510891  0.40578658
  O  0.82944431  1.40163490  0.61629089
  C  1.38536340  0.26043445  0.02052955
  N  2.74872384  0.13840791  0.15947882
  H  3.12346024 -0.77558511 -0.04665987
  H  3.11160034  0.55642376  1.00425562
  C  0.43736425 -0.43149456 -0.61469587
  H  0.55176745 -1.33697309 -1.17452280
  H -2.47488551 -1.10092819 -0.59797145
  H -1.64938094 -1.09365401  0.96607561
  H -2.75126942  0.22610368  0.54066073
