11
opt_min/./Product_4749_0_opt.xyz
  N  0.86873500 -1.07018200 -0.74861600
  C  0.88031355  0.02256761 -0.13784047
  O  2.05064691  0.54287485  0.29809298
  H  2.74796232 -0.08308547  0.05292860
  N -0.15657466  0.90340539  0.15781285
  C -1.48087736  0.57300651  0.26639704
  N -1.86910802 -0.62340374  0.31151144
  H -2.87478051 -0.75188781  0.33196838
  H -2.11291295  1.47647141  0.32442710
  H  0.13201459  1.82593409  0.45241511
  H -0.03490160 -1.37057192 -1.09312093
