13
opt_min/./Product_9773_0_opt.xyz
  O  2.11422803 -0.18853901 -1.05896293
  C  1.56110603  0.24727923  0.16029739
  C  0.07009781  0.19478873  0.15590764
  C -0.93434675  1.06023270  0.37307505
  H -0.96888032  2.09865729  0.64634497
  C -2.04749720  0.07218477  0.10649102
  H -2.68150817  0.27380705 -0.75497935
  H -2.67303862 -0.17962607  0.96185253
  C -0.87772891 -0.90923265 -0.15279688
  O -0.79835621 -2.06177429 -0.46253895
  H  1.93801236 -0.36662020  0.99512661
  H  1.91023893  1.27532725  0.29261632
  H  1.78456230 -1.07572172 -1.25139578
