17
opt_min/./Product_11013_0_opt.xyz
  C -1.02560600  1.08435900 -0.62069700
  C -0.20360862 -0.05588545 -0.00875666
  C -1.10261802 -1.27006095  0.25026889
  H -1.96470733 -0.98927816  0.84588679
  H -1.45003604 -1.67553276 -0.69293206
  H -0.55885319 -2.04702879  0.77915602
  C  0.55735361  0.40015799  1.26615334
  H  0.22119512  1.37048806  1.63558714
  H  0.45399515 -0.33267405  2.06974477
  O  1.94323622  0.50409932  0.93940000
  C  2.09391823 -0.01776521 -0.30183244
  H  3.10658279 -0.08408261 -0.65191336
  C  0.97036909 -0.39101405 -0.89953297
  H  0.87992955 -0.81086662 -1.87838123
  H -1.31505894  0.83221229 -1.63670543
  H -1.92816639  1.26306579 -0.04450372
  H -0.44319105  1.99918874 -0.65181451
