16
opt_min/./Product_7632_0_opt.xyz
  C  1.71095300  0.74966700 -0.96002000
  C  0.48919599  0.34911699 -0.16512180
  C  0.52040512 -0.88065081  0.70076594
  H  1.42667347 -1.47082098  0.66315907
  H  0.06280650 -0.84810516  1.68168222
  C -0.36743001 -0.87416814 -0.49759875
  H -0.15324928 -1.49340964 -1.35451434
  C -1.78989873 -0.45891596 -0.22374334
  H -2.43567070 -0.48191722 -1.10378029
  H -2.25997301 -1.05731409  0.56849115
  N -1.61595455  0.91934569  0.26742319
  H -2.42979375  1.45815817  0.52548838
  C -0.41676363  1.42916912  0.29983307
  H  1.97626708  1.77317778 -0.70363213
  H  1.50820315  0.70700043 -2.03045708
  H  2.56233546  0.10570338 -0.74533680
