19
opt_min/./Product_7432_0_opt.xyz
  C  1.87647100 -1.06740600 -0.05062100
  C  1.36966074  0.36322189 -0.25435402
  C -0.08851362  0.53027362  0.18933879
  C -0.56571884  1.97661260  0.03500830
  H  0.25825144  2.66700101  0.19860587
  H -0.96117727  2.15582568 -0.96193176
  H -1.34736546  2.20655716  0.75482339
  C -1.00060589 -0.42116450 -0.57084997
  H -1.25662931 -0.07162284 -1.56500854
  C -0.83587642 -1.89482119 -0.47445582
  C -2.01566161 -1.24970124  0.15381108
  H -2.01943495 -1.20806601  1.23424913
  H -2.98315219 -1.44508885 -0.28314794
  H -0.15010237  0.25461431  1.24983763
  H  1.45787341  0.64898233 -1.30306614
  H  1.97822935  1.05632177  0.32950921
  H  2.87267572 -1.07551297  0.38331301
  H  1.90520860 -1.61445783 -0.98685183
  H  1.20990884 -1.61332649  0.61849355
