12
opt_min/./Product_5639_0_opt.xyz
  C  0.63688900 -0.86174200  0.02704300
  H  1.03226571 -1.35326417 -0.86273802
  H  1.04965283 -1.36716686  0.90052045
  C  0.85238443  0.64961097  0.03416597
  H  1.40501877  1.01477148  0.89974661
  H  1.35734242  1.02270972 -0.85928040
  C -0.58399119  1.12189759  0.09156069
  H -0.81274147  2.16818695 -0.08186331
  O -1.38117733  0.20486482 -0.71648521
  C -0.87764239 -0.91638320  0.07123757
  H -1.38379053 -1.85234038 -0.13801447
  C -1.57271948  0.21640499  0.74072622
