10
opt_min/./Reactant_9237_0_opt.xyz
  C -1.63827500  0.03097600  0.50192100
  C -0.23608687 -0.03481709  0.05163293
  N  0.17028359 -0.36830647 -1.10821099
  O  1.54699366 -0.29366213 -1.07458531
  C  1.92593444  0.09777057  0.16665098
  O  3.03056434  0.26732004  0.54690909
  O  0.78135705  0.27042314  0.89948916
  H -1.82752465 -0.75648359  1.23008630
  H -1.82987650  0.98833821  0.98137108
  H -2.28908908 -0.10278393 -0.35635152
