15
opt_min/./Product_8210_0_opt.xyz
  C -0.99672500 -1.15971200 -0.27713900
  H -1.26436770 -0.97956486 -1.32288648
  H -1.76860061 -1.76665040  0.20610300
  O  0.28994180 -1.76556116 -0.15805489
  C  0.83095131 -0.64228307  0.52029084
  C  1.95163841  0.05777599 -0.21318317
  C  2.51813615 -0.11453570 -1.35768862
  H  2.34200127  0.88611483  0.37343174
  H  1.19362407 -0.92405566  1.51931742
  C -0.53599567  0.07935425  0.49937581
  C -0.62912941  1.40447213 -0.23212547
  H -1.67498906  1.66416438 -0.38738189
  H -0.16025673  2.19667513  0.34980752
  H -0.13777155  1.34377168 -1.20108669
  H -0.98111553  0.15521420  1.49494755
