16
opt_min/./Product_7725_1_opt.xyz
  C  1.05211000  0.99862500 -2.62560900
  C  0.18887581  0.88556195 -1.63294265
  C  0.54030619  1.05530822 -0.18820494
  C  0.24104190 -0.21244748  0.61259066
  O -1.14734051 -0.44839796  0.61472692
  C -1.50623844 -1.61146754  1.30826470
  H -1.04811066 -2.50115324  0.85902259
  H -1.20539927 -1.55886287  2.36407144
  H -2.58758285 -1.69255914  1.24819792
  H  0.60390617 -0.09602663  1.64766072
  H  0.77216658 -1.06927674  0.16656751
  H  1.59692383  1.29946533 -0.08412431
  H -0.05272314  1.86784244  0.23404492
  H -0.84275789  0.63934342 -1.82781330
  H  2.08823617  1.23899647 -2.44712879
  H  0.76203007  0.86712359 -3.65343433
