11
opt_min/./Product_4704_0_opt.xyz
  C -1.47214100 -0.40300600  0.02905400
  N -0.07422545 -0.10838911  0.06806715
  N  0.87942644 -0.97215664  0.27180065
  C  2.01635037 -0.32323216  0.13048229
  H  2.94652485 -0.83898722  0.26617725
  C  1.83736707  1.05857989 -0.19917572
  N  0.51456340  1.12451538 -0.22602962
  H -0.07246807  1.92085778 -0.41661334
  H -1.78468285 -0.71177188 -0.97344646
  H -1.68284345 -1.21187337  0.72648526
  H -2.03622413  0.48244278  0.32417090
