14
opt_min/./Reactant_3267_0_opt.xyz
  C  1.40380300  0.28962000  0.39323700
  H  2.46019924  0.19913815  0.20066033
  H  1.17397907  0.79113301  1.31701501
  C  0.52805657 -0.83234813 -0.07498534
  H  0.95896636 -1.71736504 -0.51228112
  C -0.80767700 -0.95827536  0.63105682
  H -1.46374379 -1.62816402  0.05036343
  H -0.75015624 -1.32436705  1.65639462
  O -1.33096921  0.35910813  0.68126613
  C -0.85446181  1.08743246 -0.43877009
  H -1.54407698  0.99629283 -1.29036746
  H -0.80419645  2.13573763 -0.13988384
  C  0.49586768  0.48890978 -0.78671019
  H  0.88863048  0.62834489 -1.77757437
