11
opt_min/./Product_1428_0_opt.xyz
  C  2.00295400  0.90105300 -0.03884600
  C  0.71669960  0.51285577 -0.06343956
  C -0.43274636  0.83944960 -0.75691934
  H -0.75449294  1.79662420 -1.13172032
  C -1.24891472 -0.30917001 -0.27010784
  H -1.54335661 -1.03397517 -1.02855076
  H -2.13266322 -0.03069305  0.30726080
  C -0.03151547 -0.68798122  0.58461163
  H  0.42602073 -1.65142768  0.37174490
  H -0.16175624 -0.56116116  1.65566224
  H  2.55765652  0.89271656  0.89269948
