12
opt_min/./Reactant_4463_0_opt.xyz
  C -1.83804500 -0.40410398  0.46136202
  C -0.31651744 -0.45494676  0.54354389
  C  0.34395632  0.62180668 -0.29481868
  O -0.24433046  1.43084178 -0.96728050
  C  1.78304521  0.60443949 -0.20160110
  C  2.98202630  0.61265930 -0.14643813
  H  4.03080895  0.61647720 -0.10331998
  H  0.06933217 -1.41751283  0.20007934
  H  0.03275864 -0.33591461  1.57034008
  H -2.24335571  0.29902336  1.18011718
  H -2.14146437 -0.07479907 -0.52734455
  H -2.27014919 -1.37883153  0.65192669
