14
opt_min/./Product_8586_0_opt.xyz
  C  2.50338400  0.71357900  0.20521200
  C  1.29096121  0.18605643  0.03768792
  C -0.02411874  0.71291150  0.34816041
  H -0.19313733  1.67023203  0.80517118
  C -0.93900806 -0.20424113 -0.02844286
  C -2.41519744 -0.12298367  0.08536524
  H -2.72780449  0.83507081  0.49515909
  H -2.86910695 -0.26414315 -0.89441176
  H -2.77910295 -0.92533661  0.72607514
  C -0.25264586 -1.39644100 -0.62107992
  N  1.03192058 -1.07328923 -0.52877288
  H  1.77757072 -1.67550321 -0.84284286
  H  2.63158165  1.68819701  0.64088820
  H  3.39614396  0.18566862 -0.08506299
