11
opt_min/./Product_7857_1_opt.xyz
  N  2.80569700  0.52189900 -1.12235800
  C  1.74737066  0.66903086 -0.51359481
  O  0.89089306  1.55694858  0.02052069
  C  0.56119992  0.15525423  0.10826898
  O -0.49298459 -0.25611510 -0.69218815
  C -1.61186639 -0.64245664 -0.06681362
  N -1.73509450 -0.67400455  1.17948015
  H -2.63171537 -0.99360354  1.52240515
  H -2.35664910 -0.92325796 -0.82249311
  H  0.54919206 -0.25041888  1.11420466
  H  3.30862373  1.37315627 -1.35818658
