7
opt_min/./Reactant_6039_0_opt.xyz
  O -1.54290594  0.89736813 -0.07901561
  C -0.93448462 -0.11251886  0.17086583
  C  0.49042416 -0.31757209  0.03587988
  N  1.26522516  0.59905797 -0.38026604
  N  1.91277658  1.43626980 -0.75133526
  H  0.93291064 -1.26490720  0.28816283
  H -1.44414084 -1.01902142  0.54590783
