8
opt_min/./Product_8187_0_opt.xyz
  C -0.66423597 -0.22551466  0.77317576
  C  13.21218859  17.02975697  35.07188116
  C -16.29724109  20.50502447 -13.25955636
  H  3.74069957  5.78969797  6.60185220
  C  4.31456881  0.56920564  27.67130330
  N -14.03749098 -11.24697945 -1.92633993
  H -4.88938303 -2.71095380 -6.04038332
  H  25.54563740  15.28607401  22.47653512
