12
opt_min/./Product_8987_0_opt.xyz
  N  2.22699400 -0.27203200  0.07529200
  C  0.86526463 -0.27377189  0.11378208
  C  0.13722895  0.81864538 -0.30267827
  H  0.57547141  1.72686276 -0.69642466
  N -1.22306704  0.74049901 -0.26100198
  H -1.78130946  1.50694862 -0.61471760
  C -1.80038419 -0.37423722  0.23222029
  H -2.88311918 -0.37316010  0.29258998
  N -1.14407383 -1.42853157  0.59104613
  C  0.20830043 -1.51652002  0.50378075
  H  2.69359209 -1.04953055  0.50674347
  H  2.73800072  0.58506147 -0.04601391
