11
opt_min/./Product_7611_0_opt.xyz
  C  1.39010200 -0.18283900 -0.06687600
  C  0.02717486  0.35628772  0.29121610
  H  0.04612505  1.07223753  1.11119035
  N -0.88240065  0.58126837 -0.80784222
  H -1.46284160  1.40620116 -0.71825012
  C -1.18639908 -0.47162197  0.13742791
  H -2.00843081 -0.35294278  0.83169764
  H -1.07723720 -1.46675699 -0.26940666
  H  1.84890672 -0.63549221  0.80817602
  H  2.02885662  0.61591193 -0.42832157
  H  1.30055728 -0.93434603 -0.84384533
