12
opt_min/./Product_11938_0_opt.xyz
  N  2.15560500  0.22631900  0.18191100
  C  0.72361974 -0.17506621  0.09257641
  C  0.22172915 -1.37224176 -0.36830671
  N -1.14089970 -1.08889312 -0.17315945
  H -1.89719332 -1.71929724 -0.37729291
  C -1.31549363  0.14998384  0.34251868
  O -2.55582743  0.62995049  0.60668444
  H -2.44623934  1.51693876  0.96427495
  N -0.18788629  0.77800620  0.52618542
  H  2.59828408 -0.16639438  1.01955550
  H  2.17196611  1.24844034  0.23668503
  H  2.64075207 -0.11414938 -0.65030665
