9
opt_min/./Product_407_0_opt.xyz
  O  2.25393600  0.34770800  0.08889500
  C  0.94725904  0.23313611  0.10835702
  N  0.26575286 -0.81624957 -0.19365428
  C -1.08719142 -0.41284277 -0.02137646
  H -1.66252872 -0.49243583 -0.94562825
  H -1.59639003 -1.00922098  0.73811840
  N -1.04127950  0.96805488  0.40075266
  N  0.13540479  1.33295563  0.46691938
  H  2.65449327 -0.50450932 -0.13177868
