14
opt_min/./Product_6559_0_opt.xyz
  O  2.87694870 -0.30598145  0.54307491
  C  1.58979190  0.14436341  0.42561626
  C  0.75639553 -0.37612068 -0.46153731
  C -0.65934862  0.04107605 -0.67133939
  H -0.75671145  0.58608675 -1.61595952
  C -1.46586074  0.67715299  0.49854397
  H -0.95206549  0.79645161  1.44754638
  H -2.00910873  1.58873672  0.25145341
  N -2.34972425 -0.50497554  0.46863814
  C -1.69187217 -1.03181036 -0.48756438
  H -1.86799356 -1.97388188 -0.97951082
  H  1.10392949 -1.17774259 -1.09798920
  H  1.31029277  0.95797429  1.08284193
  H  3.32420817  0.16091164  1.25495075
