9
opt_min/./Product_39_0_opt.xyz
  C -1.09739000 -0.00342900  0.30583300
  O  0.05009776 -0.80575910  0.48146301
  C  1.20252536 -0.38078280 -0.06815450
  N  1.47020370  0.63187228 -0.74825870
  H  0.69770030  1.26642892 -0.92739422
  H  1.99223098 -1.09063288  0.13971684
  H -1.89803985 -0.50142899  0.84566565
  H -1.37774050  0.07542991 -0.75169782
  H -0.95796466  1.00419860  0.71005564
