11
opt_min/./Product_7328_0_opt.xyz
  N -0.27299200 -2.02520000  0.14155000
  C -0.09285133 -0.79009091  0.05565267
  C  1.24540226 -0.11045975 -0.08479679
  H  1.88623722 -0.30432019  0.77910129
  H  1.76564481 -0.43324588 -0.98895728
  O  0.95623279  1.27535406 -0.15992068
  C -0.36574222  1.48943002 -0.07231925
  O -0.89548999  2.55569893 -0.10206602
  N -0.99550130  0.26176819  0.05942548
  H -1.99089657  0.15214165  0.14030566
  H -1.23796874 -2.32170404  0.23200344
