11
opt_min/./Reactant_7328_0_opt.xyz
  N  1.81791600 -0.25448000 -0.13503300
  C  0.49194515  0.05349315  0.07401590
  C -0.09290263  1.17691186  0.53482075
  H  0.29882912  2.08906000  0.92431291
  O -1.46889834  1.04338951  0.46246529
  C -1.75104334 -0.16362996 -0.05359636
  O -2.84206094 -0.61544606 -0.26144630
  N -0.53993159 -0.79704421 -0.28418269
  H -0.45605432 -1.69355059 -0.72761040
  H  2.46006592  0.26572144  0.44135290
  H  2.01774251 -1.24401186 -0.14970743
