15
opt_min/./Product_9099_0_opt.xyz
  C  2.73094600  0.24429100 -0.41881200
  C  2.20036538 -0.82788117  0.14418868
  O  0.89289602 -1.14597093  0.29628075
  C -0.05937633 -0.22007980 -0.17572043
  C -1.43613697 -0.75946533  0.20362998
  O -2.50337695  0.10390783 -0.19500279
  C -2.31955723  1.38357861 -0.09103828
  H -3.27551747  1.83483938 -0.44727565
  H -1.48203593 -0.90196317  1.28854264
  H -1.62240449 -1.71770228 -0.28920015
  H  0.00797001 -0.10612309 -1.26648754
  H  0.09002286  0.76489157  0.28719115
  H  2.81040620 -1.61646189  0.56372071
  H  2.14337395  1.03851755 -0.84387595
  H  3.79640425  0.36136486 -0.46790252
