17
opt_min/./Product_8618_0_opt.xyz
  C -0.08428600  1.42972000  0.62542800
  C -0.09510193  0.18711677 -0.25542651
  C  0.92939634 -0.84514064  0.25812894
  C  2.32276433 -0.30728796  0.25281199
  O  3.21453712 -1.09419831 -0.20542298
  H  2.92160651 -1.98813448 -0.53166029
  H  0.69507773 -1.06114320  1.30589100
  H  0.84414326 -1.78973953 -0.31463591
  C -1.43709298 -0.47916185 -0.36123432
  C -2.54284530 -0.13938374  0.27437491
  H -3.45771319 -0.68934181  0.13081755
  H -2.58832361  0.69408799  0.95245973
  H -1.45604401 -1.32963761 -1.03427589
  H  0.20968145  0.47583588 -1.27043822
  H -0.76829611  2.17824697  0.23340093
  H -0.37408176  1.18093567  1.64289090
  H  0.91992637  1.84286465  0.64733402
