16
opt_min/./Product_4107_0_opt.xyz
  C  2.69234900 -0.04422700 -0.80798200
  C  1.23617149  0.19731804 -1.03389267
  O  0.42123268 -0.20559607 -0.10541841
  C -0.86439213 -0.06761422  0.00212228
  C -1.49731448 -0.78247295  1.15616497
  H -0.97737443 -0.56377988  2.08951355
  H -1.48587659 -1.86775790  1.02106582
  H -2.53362202 -0.47016270  1.25721399
  C -1.67130716  0.63778432 -1.04061437
  H -1.14729985  1.54188595 -1.36065685
  H -2.63771549  0.92222956 -0.63510675
  H -1.83517671  0.02274718 -1.93156121
  H  0.89407330  0.73758078 -1.90240336
  H  3.11650498 -0.70363177 -1.56982757
  H  2.82355536 -0.51441340  0.16310915
  H  3.25747295  0.88930892 -0.83406484
