13
opt_min/./Product_3281_0_opt.xyz
  C -1.44358700 -0.44127100  0.58671700
  C -0.51660265  0.58871342  0.01365007
  C  0.67167493  0.03760807 -0.78085450
  C  1.61781159 -0.65148459  0.16173028
  O  2.52463862 -0.11109634  0.72942714
  H  1.39601196 -1.72385601  0.34077774
  H  1.19688694  0.86188410 -1.26449362
  H  0.29424628 -0.65972525 -1.52723544
  N -0.77954183  1.79732825  0.19206294
  H -0.13220117  2.47060583 -0.20478600
  H -1.01380144 -1.43807273  0.56183715
  H -1.69354346 -0.17466039  1.60795527
  H -2.36984422 -0.44201076  0.01875886
