12
opt_min/./Product_348_0_opt.xyz
  C -1.54801000  0.15958700  0.32212100
  C -0.23715161 -0.16915781 -0.37748334
  H -0.44757448 -0.63972878 -1.35046482
  O  0.54038509  1.00683942 -0.68001684
  C  1.79556182  0.69904668 -0.37290161
  H  2.51572010  1.43963862 -0.69112226
  C  1.97975427 -0.43521115  0.42379718
  C  0.70950258 -0.96044004  0.47189500
  H  0.37065383 -1.75730421  1.10903049
  H -2.06368903  0.94829123 -0.22112629
  H -2.17728717 -0.72620596  0.34792993
  H -1.35573889  0.49691229  1.33845309
