11
opt_min/./Product_1099_0_opt.xyz
  C  1.99626200 -0.30674800  0.00749800
  C  0.66878596 -0.17909646 -0.02186094
  C -0.16560580  0.98299154  0.20717619
  H  0.19972764  1.95553377  0.45071532
  C -1.44248220  0.57616385  0.06092035
  H -2.35860276  1.12232839  0.16946852
  N -1.47555252 -0.72990840 -0.31362966
  H -2.22093065 -1.39968898 -0.24625148
  O -0.17287536 -1.25263274 -0.28729683
  H  2.60700138  0.55085890  0.21099586
  H  2.48125212 -1.24425767 -0.17940873
