15
opt_min/./Product_11678_1_opt.xyz
  C  0.97511200 -0.52555200  0.30527300
  C  2.23637465 -0.46843952 -0.07265345
  H  2.99636975 -1.10371094  0.35026005
  H  2.57030949  0.22235189 -0.83107432
  C -0.13302157  0.32395162 -0.24485144
  C -0.74808869  1.16276228  0.87242424
  H -1.55392483  1.78777558  0.49060253
  H -1.15951885  0.52164464  1.65113427
  H -0.00057052  1.81315723  1.32297400
  C -1.18910561 -0.57865895 -0.88447407
  H -1.61672995 -1.24479098 -0.13873656
  H -0.73030460 -1.18176667 -1.66784164
  H -1.98623277  0.00727392 -1.33586297
  H  0.27356545  0.99597241 -1.00872525
  H  0.66224819 -1.22685881  1.06930428
