14
opt_min/./Reactant_2450_0_opt.xyz
  C -1.72280611  0.34876133  0.31021311
  C -0.86416981 -0.45870415 -0.68713764
  N  0.47469375 -0.78362996 -0.24055381
  C  1.35621284  0.36544848 -0.12396009
  C  2.63614619 -0.01633395  0.42366241
  N  3.63567716 -0.32397079  0.88444191
  H  0.95976874  1.18495093  0.50664448
  H  1.51448866  0.76852910 -1.13326879
  H  0.44393214 -1.29524751  0.63687440
  H -1.35339271 -1.40614532 -0.91568874
  H -0.75183582  0.09619849 -1.62283421
  H -2.64035159 -0.17939991  0.55007197
  H -1.98381678  1.32583351 -0.08555890
  H -1.17916892  0.50048042  1.24188208
