15
opt_min/./Product_9330_0_opt.xyz
  C -2.44113300  0.04877900 -0.31192300
  N -1.05804106  0.27547539 -0.05712268
  C -0.09896370 -0.77644214  0.23276944
  H -0.16130705 -1.57489078 -0.51660695
  H -0.28375173 -1.20760858  1.22070010
  C  1.21154978 -0.02266930  0.15291408
  C  2.44049431 -0.48234239  0.37491729
  H  2.61740832 -1.50792216  0.65260477
  H  3.30018289  0.15657815  0.29047579
  C  0.80909242  1.31412272 -0.22852371
  H  1.44768079  2.15952868 -0.39464699
  N -0.47143939  1.42802288 -0.35691220
  H -2.90534481 -0.49380770  0.51491947
  H -2.93493564  1.01530909 -0.41212069
  H -2.60796961 -0.51428714 -1.24090810
