18
opt_min/./Reactant_7531_0_opt.xyz
  C  1.92544503  0.37575492  0.49723493
  C  0.88124397 -0.65116894  0.03996955
  C -0.49859458 -0.03431427 -0.28133381
  C -1.45405211 -1.13186161 -0.79695176
  H -0.90740332 -2.03076229 -1.06420601
  H -2.01529711 -0.79229327 -1.66506245
  H -2.18203748 -1.40790430 -0.03717280
  C -1.06541863  0.71396089  0.94784791
  H -0.42320602  0.58876793  1.81210111
  H -2.05708534  0.35154045  1.21042211
  H -1.17568222  1.77870162  0.74536717
  C -0.30570969  0.93519450 -1.33938200
  N -0.15719570  1.69411333 -2.18062234
  H  0.75746953 -1.41314933  0.81134201
  H  1.23845439 -1.15486758 -0.86325906
  H  2.88548779  0.20873248  0.01751350
  H  2.09513155  0.32688690  1.57252640
  H  1.61619389  1.39243441  0.26702307
