9
opt_min/./Product_6707_0_opt.xyz
  O  2.16247001 -0.74107098  0.45140098
  C  1.74691794  0.09569850 -0.27687397
  O  0.48233390  0.29061170 -0.67746394
  N -0.44760817 -0.67081016 -0.25735082
  C -1.65784506 -0.31920179 -0.24967546
  N -2.16803181  0.88879218 -0.58403974
  C -2.57469909  1.94586134 -0.87377400
  H -2.37369786 -1.07669802  0.04499357
  H  2.32804452  0.90678905 -0.75586018
