14
opt_min/./Product_272_0_opt.xyz
  C -0.30377300  1.44925900 -0.02446600
  C -0.02238036 -0.04067516 -0.15324788
  C  1.38928329 -0.38711896  0.28562870
  H  2.09878839  0.12422647 -0.36119106
  H  1.56229605 -0.08365218  1.31616571
  H  1.56529491 -1.45876296  0.19847086
  C -0.43779871 -0.61350786 -1.52171010
  O -1.37573915 -1.35562915 -0.99411040
  C -1.14670306 -0.96919173  0.36056914
  H -2.02012824 -0.47693674  0.79483456
  H -0.83486360 -1.81666734  0.97451857
  H -0.10223626  1.78998706  0.99042038
  H -1.34081880  1.67206555 -0.27001223
  H  0.33480566  1.99682523 -0.71373559
