10
opt_min/./Reactant_1789_0_opt.xyz
  O  2.02872400 -0.22389600  0.23374600
  C  0.68574201 -0.07946227  0.12263283
  C -0.34982721 -0.96810250 -0.06521623
  H -0.29250252 -2.02923003 -0.18489274
  C -1.49377940 -0.15362130 -0.08415207
  H -2.51620002 -0.45275124 -0.21089968
  N -1.19099391  1.11335962  0.08708453
  N  0.14445162  1.15238495  0.19935714
  H  0.62722343  2.02090100  0.36426319
  H  2.24373026 -1.15803282  0.12253429
