13
opt_min/./Product_2903_0_opt.xyz
  C  1.74767500  0.20742500 -0.35980300
  N  0.60661483  0.16931611  0.56597596
  H  0.90447224  0.29068648  1.53459616
  C -0.53200838  0.99249720  0.08154299
  H -1.06133038  1.50658860  0.88314696
  H -0.19892219  1.71202717 -0.66657544
  C -1.23140271 -0.25701101 -0.45916398
  H -2.19374844 -0.47738919  0.00320865
  H -1.33633136 -0.33182695 -1.53999750
  C -0.10895464 -1.06428941  0.17189287
  O  0.22301192 -2.21837565  0.24554612
  H  1.40022790 -0.05681978 -1.35900640
  H  2.50121964 -0.50328915 -0.01899392
