12
opt_min/./Reactant_4780_0_opt.xyz
  C  1.88603500  0.12512500  0.14213500
  N  0.46303642  0.28106396  0.32487770
  C -0.43416013 -0.32231328 -0.48941979
  O -0.10566029 -1.01179534 -1.42973373
  C -1.87730249 -0.07694819 -0.09291465
  H -2.52190971 -0.40296315 -0.90090011
  H -2.10830630 -0.66608316  0.79141828
  H -2.05413245  0.97008736  0.12605925
  H  0.13775202  0.82313179  1.10521843
  H  2.26522208 -0.74196538  0.68711964
  H  2.40508407  1.01917980  0.47769984
  H  2.08053277 -0.03287581 -0.91767897
