10
opt_min/./Product_4059_0_opt.xyz
  N  0.02381000  1.43005800 -0.06853400
  C -0.06872927  0.01931073  0.06415509
  C  1.13242449 -0.66639364  0.57519218
  O  1.16548124 -1.80364986  0.96220028
  H  2.03214019 -0.02319345  0.54568429
  C -0.97529828 -0.75482156 -0.78184362
  H -1.15913275 -1.15503339 -1.75079110
  N -1.42240671 -0.64878087  0.37504209
  H  0.17710869  1.87310445  0.82983361
  H -0.79776606  1.83226549 -0.50113803
