11
opt_min/./Product_1839_0_opt.xyz
  N -0.11549500  2.02092200  0.00418100
  C -0.08729707  0.75825145  0.01340006
  C  1.18286594 -0.02289509 -0.25058705
  H  1.94661774  0.18693491  0.50208937
  H  1.60316403  0.18725532 -1.23596517
  O  0.82323293 -1.39913741 -0.18352470
  C -0.48367710 -1.45628469  0.10203655
  H -0.89820857 -2.44580329  0.18975690
  C -1.09367371 -0.26811320  0.23743827
  H -2.12461817 -0.08523117  0.45889717
  H -1.03110048  2.41763895  0.20110571
