14
opt_min/./Product_9805_0_opt.xyz
  C -0.86094400 -1.00678600  0.12930000
  H -1.24031836 -1.75112328 -0.59034324
  H -1.43390421 -1.10283469  1.05733622
  O  0.47175659 -1.32397010  0.46330812
  C  1.45228195 -0.52288920 -0.17673884
  H  2.40966701 -0.88082270  0.20330129
  H  1.41822748 -0.68661168 -1.26721248
  C  1.21598184  0.92219076  0.14994183
  H  2.02918953  1.52668102  0.51754463
  C -0.03308696  1.35360603  0.05440829
  H -0.33139621  2.35570947  0.32324918
  C -1.05760505  0.40225982 -0.47201365
  H -0.94042122  0.33497167 -1.55856410
  H -2.07276993  0.74200275 -0.26909332
