11
opt_min/./Product_9771_1_opt.xyz
  O  2.54241756  1.39567112  0.74213699
  C  2.12513862  0.19466171  0.31808881
  C  0.87826809 -0.13530059  0.02026743
  C -0.29712777 -0.47850913 -0.23364839
  C -1.56120623 -0.80072434 -0.45783309
  C -2.63100139  0.16196364 -0.29258346
  O -3.81062775 -0.10562321 -0.29383518
  H -2.28432371  1.19031348 -0.06318089
  H -1.83622975 -1.81669504 -0.70287650
  H  2.91907536 -0.54161006  0.31265201
  H  1.81202111  2.02866156  0.77305405
