13
opt_min/./Reactant_9771_0_opt.xyz
  O  3.17740104 -0.56773268 -0.13733390
  C  2.09509362 -0.85170594  0.72285562
  C  0.83273723 -0.28999232  0.26159305
  C -0.17604882  0.17721790 -0.18825785
  C -1.41516676  0.75769046 -0.67292261
  C -2.56294536  0.03486505 -0.00737147
  O -3.33850090  0.53712307  0.75182341
  H -2.62181334 -1.03675048 -0.27539605
  H -1.47954146  0.60978775 -1.75398181
  H -1.45490682  1.82445735 -0.44059274
  H  2.01982067 -1.94528170  0.74765851
  H  2.29105806 -0.48521990  1.74323879
  H  3.23566041  0.38687145 -0.25791292
