10
opt_min/./Product_4811_0_opt.xyz
  O  1.02925743  0.65438180  2.16166832
  C  0.67921724  0.14209417  1.16033818
  O  0.74979679 -1.11018933  0.73376780
  C  0.21884621 -0.83378433 -0.58268498
  H -0.68705301 -1.41248849 -0.76482772
  H  0.97172893 -1.04588350 -1.34116602
  C  0.03344941  0.65885940 -0.19284621
  C -1.19594978  1.27288456  0.16572643
  H -2.05851077  0.59236039  0.08417486
  H  0.72417165  1.36961605 -0.64935289
