10
opt_min/./Product_4486_0_opt.xyz
  N  2.21632900  0.03761500 -0.08926500
  C  0.96400322 -0.08484650 -0.04711761
  N  0.09191782  0.96714311  0.07540489
  H  0.38547986  1.92282428  0.14147021
  C -1.19891142  0.47059503  0.08850930
  H -2.05730032  1.10178860  0.17598800
  C -1.10464053 -0.85827692 -0.02428873
  H -1.83815516 -1.63611024 -0.05745136
  O  0.21127640 -1.23303750 -0.10982130
  H  2.71681180 -0.83688118 -0.18176255
