14
opt_min/./Product_11105_0_opt.xyz
  C  1.50952300 -0.43736900 -0.36670400
  H  2.45243253 -0.48064055  0.19524133
  H  1.73645352 -0.68692115 -1.40343254
  C  0.63491245 -1.42330348  0.32183002
  C -0.32434585 -0.59705752  1.03178595
  H -0.78376640 -0.98595614  1.93538701
  C -1.23910351 -0.39750239 -0.22211517
  H -1.08750403 -1.07512493 -1.06579424
  H -2.28394120 -0.37533061  0.06900556
  C -0.61358294  0.97806791 -0.29448000
  H -1.11840375  1.87165982 -0.62756985
  N  0.00860336  0.87425587  1.03911184
  C  0.85525614  0.91193020 -0.14178785
  H  1.43757739  1.81193133 -0.28424035
