11
opt_min/./Product_4452_0_opt.xyz
  N -1.28795200 -0.30325900  0.74300200
  H -2.29972407 -0.28462078  0.69382808
  C -0.63205531  0.67667176 -0.12935791
  H -1.20697461  1.44230892 -0.63010041
  C  0.77739485  0.87328740  0.26383241
  H  1.20976623  1.80911702  0.55122537
  C  1.38107697 -0.31556160  0.18434770
  H  2.39132354 -0.59536358  0.42295549
  O  0.59857732 -1.31789047 -0.30503969
  C -0.67106047 -0.78064212 -0.46632165
  H -1.24135469 -1.25928405 -1.25138128
