13
opt_min/./Reactant_8304_0_opt.xyz
  C  2.40498900 -0.39277400  0.27063300
  O  1.50332523  0.69250908  0.35938020
  C  0.21473058  0.36899208  0.12414071
  C -0.85503181  1.22929193  0.14426895
  H -0.91126948  2.27679322  0.33506784
  N -1.94591304  0.44531316 -0.14726011
  H -2.89988307  0.75795756 -0.21427447
  C -1.49385265 -0.81065146 -0.32595821
  H -2.11793911 -1.64694543 -0.56717649
  N -0.19789652 -0.89258369 -0.17019616
  H  2.11649972 -1.19758900  0.94883254
  H  3.37796787  0.00741010  0.55014614
  H  2.43850789 -0.79220233 -0.74557270
