13
opt_min/./Product_8803_0_opt.xyz
  N  1.93271900  0.48824900  0.00706000
  C  0.67196274 -0.06412817  0.02733435
  C -0.48739334  0.54626144  0.35609555
  O -0.79122957  1.80913404  0.81183252
  H -0.81124656  2.44791220  0.08646220
  N -1.58917946 -0.39700826  0.14680048
  H -2.27319023 -0.09203772 -0.54751733
  H -2.09202211 -0.60848436  1.00988957
  C -0.96191143 -1.72426143 -0.35823051
  C  0.35861589 -1.41802051 -0.39519542
  H  1.12552209 -2.10472739 -0.70394570
  H  2.68272506 -0.18057348  0.09418424
  H  2.04879956  1.30597690  0.58893295
