10
opt_min/./Product_7262_0_opt.xyz
  N -2.90993311  1.69256962  0.76135423
  C  8.71616148 -19.76109314  1.04699311
  C  6.88873212  4.41529018  4.98090227
  N -24.52355579  3.17302493 -0.56842301
  C -11.53476977 -21.89606750 -2.36827203
  C  12.98246758 -1.75304702  8.31277897
  H -23.49505220 -8.44973700 -9.99748978
  H  1.49498255 -2.98075170 -7.65712915
  N  1.25908398  0.32097723  8.97996383
  H -10.30777443 -4.36364972  7.70110161
