11
opt_min/./Product_4421_0_opt.xyz
  C  1.24742800 -0.41325000  0.13024100
  C -0.08861792  0.28704636 -0.04879451
  O  0.02279354  1.54592068 -0.67376738
  H  0.08840225  1.41463922 -1.62615918
  C -1.20962010  0.09387272  0.91456337
  H -1.58816503  0.34090030  1.87519045
  C -1.35307064 -0.49834234 -0.23973386
  H -1.97083979 -1.08877726 -0.87166074
  H  1.74874353 -0.06022584  1.02844647
  H  1.89335547 -0.18984121 -0.71709245
  H  1.11665986 -1.48951991  0.19319365
