9
opt_min/./Product_4623_0_opt.xyz
  O  1.70140600  1.07346100  0.78546000
  C  1.40094480  0.47119171 -0.20107939
  N  0.98414516 -0.80045872 -0.35640460
  N -0.03388669 -1.35412774 -0.72112203
  C -1.26800690 -0.69850067 -0.78104145
  N -1.58718288  0.12542905  0.10868359
  H -2.53477461  0.48950067  0.08720976
  H -1.86754480 -1.10303912 -1.60347213
  H  1.67801041  0.82638142 -1.23055436
