12
opt_min/./Product_2993_0_opt.xyz
  C -1.52178000 -0.39303400 -0.08200700
  C -0.25534997  0.31692095 -0.52481790
  H -0.32972242  0.83059431 -1.47306074
  C  0.64756932  0.96111080  0.53249468
  H  1.14013724  1.89350330  0.30247855
  H  0.35062952  0.87140964  1.56506129
  C  1.03817455 -0.26065959 -0.19374758
  N  1.83412196 -1.18513905 -0.41550921
  H  2.69346946 -1.18010184  0.13481765
  H -1.98908657  0.13042174  0.75020734
  H -2.23915229 -0.43807881 -0.89455367
  H -1.30793075 -1.41048521  0.23408848
