12
opt_min/./Product_5353_0_opt.xyz
  O  2.47790900  1.08558200  0.21367900
  C  1.25559583  0.90165565  0.53519160
  C  0.65812017 -0.39652769  0.06148171
  C -0.78005544 -0.59649464  0.52666937
  C -1.69492110  0.52751679  0.12987937
  O -2.85764220  0.58954939  0.41741716
  H -1.21919979  1.32212553 -0.47544436
  H -1.19110922 -1.51762219  0.10189266
  H -0.82183754 -0.70675012  1.61046373
  H  1.27870023 -1.23191981  0.41243116
  H  0.69973055 -0.40480150 -1.03586793
  H  2.93583909  0.37498211 -0.30248867
