14
opt_min/./Product_4407_0_opt.xyz
  C -1.03230700 -1.17267300  0.02815800
  C -0.32865604  0.07936941 -0.49291353
  H -0.30136850  0.08589156 -1.58183091
  C -0.73757824  1.43948557  0.10833998
  H -1.06081104  2.20878346 -0.59227183
  H -1.44246608  1.38269911  0.93973652
  O  0.59737629  1.66585310  0.57744199
  C  1.01358033  0.43564594  0.11292973
  C  2.18555639 -0.15765005  0.20600600
  H  2.30928322 -1.13371242 -0.22522937
  H  3.01446999  0.30879251  0.70483502
  H -0.45119852 -1.62710000  0.82296370
  H -1.16078869 -1.90225791 -0.76447034
  H -2.01541297 -0.91948425  0.41540479
