14
opt_min/./Product_9386_0_opt.xyz
  C  2.52754500  0.78904900  0.31095200
  O  2.24493967 -0.57941746  0.05091140
  C  0.97717972 -0.89870821 -0.07502865
  N  0.02410635 -0.08550774  0.09916439
  C -1.30252029 -0.39829026 -0.15634548
  O -1.66739340 -0.95648044 -1.16167548
  C -2.21827328  0.13707550  0.91437311
  H -2.15914920 -0.52362048  1.77967439
  H -3.24271053  0.15469538  0.55272808
  H -1.89111092  1.12734050  1.21704325
  H  0.85737547 -1.96751010 -0.28789103
  H  3.60791003  0.86213900  0.41995199
  H  2.17842727  1.41084769 -0.51473725
  H  2.02946343  1.10904288  1.22830328
