10
opt_min/./Reactant_4101_0_opt.xyz
  C -1.40341900 -0.05411800 -0.00276500
  C  0.07312783 -0.13243764 -0.02820102
  C  1.06220362  0.81541881  0.08694087
  H  0.99441902  1.87403024  0.21264911
  N  2.24014191  0.15627890 -0.00163052
  N  2.04212782 -1.06512637 -0.15070361
  O  0.68607221 -1.31103248 -0.16311258
  H -1.77552797 -0.32660387  0.98536250
  H -1.71912045  0.96056945 -0.23027716
  H -1.82748564 -0.74777305 -0.72623665
