11
opt_min/./Product_10845_0_opt.xyz
  C  2.21261216  0.83563698 -0.64555650
  C  1.28545737  0.10791590 -0.43659925
  C  0.17890614 -0.76024522 -0.18170134
  H  0.19802781 -1.69259594 -0.74404048
  N -0.35852879 -0.74176881  1.15949899
  H -0.65529866 -1.61825285  1.56422724
  C -1.17487818 -0.18000660  0.12070461
  N -1.35454872  1.18334819  0.15866976
  C -1.51381763  2.33645707  0.17809314
  H -2.05633774 -0.70708594 -0.24363083
  H  3.01330700  1.48298967 -0.82891411
