13
opt_min/./Product_8024_0_opt.xyz
  O  1.71281600 -0.29451100 -0.78785100
  C  1.43502068 -0.02207336  0.55289867
  C -0.05497216  0.21045488  0.83943045
  H -0.19396266  0.41073484  1.90266837
  C -0.74813746  1.17562521  0.00368508
  C -1.81979874  0.84431196 -0.75097770
  H -2.37939486  1.50696017 -1.38278986
  C -1.96098414 -0.55944867 -0.50709929
  H -2.66113004 -1.26577927 -0.91108567
  C -0.95407718 -0.84807175  0.35608459
  H  1.77463919 -0.84460600  1.20151007
  H  1.99442133  0.88264043  0.80271827
  H  1.18033294 -1.04918973 -1.06949971
