12
opt_min/./Reactant_1155_0_opt.xyz
  C -1.36455400 -0.37699300 -0.15364500
  C -0.19219133  0.56560207 -0.45903366
  C  0.96034632  0.37632825  0.53345024
  O  1.44422793 -0.94210750  0.57458575
  H  1.65203312 -1.21940487 -0.32762671
  H  0.61033285  0.57427849  1.55179933
  H  1.76874420  1.08281605  0.30012337
  H -0.50957216  1.60634146 -0.41768607
  H  0.18969746  0.37138212 -1.46597126
  H -1.34539741 -0.64162912  0.90108676
  H -2.30880237  0.10951399 -0.37967409
  H -1.28775467 -1.29269649 -0.73265085
