16
opt_min/./Product_8093_0_opt.xyz
  C  2.71891500  0.05836200  0.44403700
  C  1.38396572 -0.63814231  0.27197074
  N  0.50039145  0.04292666 -0.49680565
  C -0.85506439 -0.43658029 -0.70024949
  C -1.77839533  0.08008754  0.36627672
  C -2.88643944  0.75205340  0.13139425
  H -3.52996440  1.10407867  0.92283261
  H -3.22774272  0.98116219 -0.86690384
  H -1.44616242 -0.14713680  1.36974394
  H -0.81721375 -1.53063943 -0.62586617
  H -1.19391915 -0.13988274 -1.69525872
  H  0.71751256  0.96589995 -0.83743698
  O  1.12775812 -1.72325086  0.74755243
  H  2.99426522  0.61041829 -0.45351347
  H  2.65026013  0.75072580  1.28382609
  H  3.48590008 -0.68185290  0.66317317
