15
opt_min/./Reactant_8457_0_opt.xyz
  C -0.12734200 -0.85206800  1.02494900
  H -0.63304985 -1.79605761  1.22958177
  H  0.61249613 -0.64394548  1.80249537
  C -1.10401861  0.26357317  0.70725573
  H -2.03675503  0.44161349  1.21952652
  C -0.39799884  1.34862387 -0.06687076
  H -0.88567719  2.30482298 -0.19717248
  O  0.99271796  1.46510081  0.01345592
  C  1.53617777  0.24244844 -0.47501468
  H  1.90930878  0.39249421 -1.49949262
  H  2.37642601 -0.04724613  0.16202362
  C  0.38102806 -0.74888708 -0.42688000
  H  0.57052684 -1.67151118 -0.96911258
  C -0.84220009  0.12066066 -0.78079473
  H -1.51168060  0.02303457 -1.61520048
