16
opt_min/./Product_3954_0_opt.xyz
  C  2.53923500 -0.18819900 -0.27572000
  C  1.88957265 -0.42261579  0.91596462
  C  0.54795868 -0.44194506  0.74876367
  C -0.35075186  0.48439688  0.04971600
  C -0.89457340 -0.18988933 -1.21573991
  H -1.39104451  0.54618062 -1.84563608
  H -0.09051854 -0.64656447 -1.78972049
  H -1.60682443 -0.96954259 -0.95714124
  C -1.48528443  0.80067500  1.04974787
  H -1.78556184  1.84183749  0.96475785
  H -2.34952020  0.16981475  0.86258014
  H -1.15064903  0.62414341  2.07023859
  H  0.13426688  1.43485447 -0.23427388
  H  2.37831424 -0.95634711  1.71685586
  H  3.40521306 -0.76789709 -0.55539409
  H  2.06505932  0.36713195 -1.06596928
