12
opt_min/./Product_963_0_opt.xyz
  C -1.51662200  0.27488200 -0.17137000
  C -0.22848785 -0.45046549  0.19982263
  H -0.44486641 -1.14770539  1.02363840
  C  0.37094990 -1.32699620 -0.87756919
  O  1.61209952 -0.99194050 -0.98920418
  C  1.96857762  0.05601454 -0.13512516
  H  2.98718933  0.38498194 -0.18880724
  C  0.92309600  0.43416239  0.58925235
  H  0.87042681  1.21421795  1.32025949
  H -2.25834194 -0.44068964 -0.51357600
  H -1.32579880  0.98603786 -0.97165779
  H -1.91238954  0.81282957  0.68738750
