10
opt_min/./Product_11824_0_opt.xyz
  C -0.25472500  0.96320900  0.88808000
  C -0.01639023 -0.01255110  0.00160444
  C -0.97706190 -1.12269707 -0.18639951
  O -2.01107414 -1.24613103  0.40999301
  H -0.66265522 -1.86426334 -0.94923360
  C  1.21769350 -0.00337992 -0.81360727
  O  2.07399538  0.83594039 -0.75799889
  H  1.30179238 -0.86230985 -1.51016324
  H -1.15067829  0.96742387  1.48803523
  H  0.45177051  1.76726222  1.01713893
