13
opt_min/./Product_1302_0_opt.xyz
  C  0.23927600  1.31471400 -0.11309100
  H  0.73134382  1.62220599  0.82032711
  H  0.24844823  2.14484444 -0.81776670
  O -1.12945677  0.99284937  0.13775538
  C -1.16789127 -0.35036548  0.51593419
  H -2.15346235 -0.75358802  0.27956516
  H -0.95670690 -0.47311902  1.59210941
  N -0.09162321 -1.01029334 -0.23793073
  H -0.38677949 -1.71378670 -0.90575013
  C  1.33892086 -1.07245416  0.21883783
  H  1.35918862 -0.74414935  1.27166449
  C  0.86199601  0.02504879 -0.65897234
  H  1.12384478  0.05024811 -1.71044472
