14
opt_min/./Product_9747_0_opt.xyz
  C -0.56051699  1.42518299  0.56021707
  C -0.10098578  0.11351018 -0.09589067
  C  1.13171329 -0.48322723  0.63259435
  N  2.30117830  0.19065607  0.26501285
  C  3.25820694  0.77015067 -0.04912490
  H  1.24133663 -1.54322164  0.38399054
  H  1.00758983 -0.38604142  1.71700487
  C -1.15591623 -0.88353465 -0.10115647
  C -2.00920231 -1.72083700 -0.10522653
  H -2.75862072 -2.45358103 -0.10146151
  H  0.19840861  0.30394633 -1.13362084
  H -0.85681785  2.14534618 -0.20018866
  H -1.44033574  1.25068831  1.17813701
  H  0.22455319  1.86056601  1.16876448
