15
opt_min/./Product_7091_0_opt.xyz
  C -1.92898900 -0.61570800 -0.15491600
  C -0.39937598 -0.55704217 -0.12896499
  O  0.16121873 -0.93501531 -1.37377930
  H -0.07598203 -0.27474487 -2.03443774
  C  0.08028571  0.81554734  0.28156073
  C  1.33231444  1.14731091  0.60193766
  C  2.47103015  0.22724027  0.63705574
  O  3.59532362  0.56103368  0.92036685
  H  2.24566218 -0.82098234  0.36683788
  H  1.57391065  2.17092837  0.85673699
  H -0.67010569  1.59542500  0.26062331
  H -0.02048293 -1.30773130  0.57163435
  H -2.33298053 -0.26203627  0.78786756
  H -2.31455994  0.00605814 -0.95921933
  H -2.26162315 -1.63369078 -0.32008105
