12
opt_min/./Product_1264_0_opt.xyz
  C  2.09312500 -0.16997900 -0.02813600
  C  0.62044902 -0.00853097 -0.02879619
  C -0.06556574  1.30871569 -0.28267203
  N -1.31763925  0.95317601 -0.16771501
  H -2.09802880  1.58470603 -0.27389878
  C -1.51242903 -0.47201475  0.13329410
  H -2.03242220 -0.61160601  1.08620467
  H -2.08951000 -0.97089193 -0.65207120
  N -0.18855163 -0.97766892  0.19328798
  H  2.48265600  0.12756348  0.94579636
  H  2.35870821 -1.20893636 -0.20586811
  H  2.53987718  0.47413202 -0.78118282
