9
opt_min/./Product_1608_0_opt.xyz
  O -1.25113639  0.24276798 -0.95743390
  C -24.76329504  11.40877735  1.08629552
  O -31.76665643  28.11086933  6.01961097
  H -3.02614804  3.77247610 -19.25445689
  N -34.44526187  7.69802946 -1.63435437
  C -21.93116902  1.26852781 -9.38859303
  C  4.73547259  3.46642694 -7.87557193
  H -7.13732660 -11.62880161  2.25864483
  H -0.53136666  1.21813808 -5.15875467
