15
opt_min/./Product_9550_0_opt.xyz
  C  2.81857900  0.71722100  0.57037600
  O  1.85796352  0.71695996 -0.31025461
  C  0.78513013  0.03416114 -0.30679425
  C -0.06896481 -0.98612881  0.28150603
  H  0.20968579 -2.01710571  0.45296989
  C -1.30026755 -0.34375129  0.94823683
  H -1.09546463  0.30760781  1.79397435
  H -2.04147683 -1.08842183  1.22186405
  C -1.64165335  0.37730072 -0.37993787
  H -1.59467409  1.46379365 -0.33249745
  H -2.59148077  0.07738808 -0.81120005
  C -0.42768872 -0.28488766 -1.04698439
  H -0.42076827 -0.69773098 -2.04415255
  H  2.79619804  0.07945823  1.43747946
  H  3.67673889  1.30874312  0.32914623
