13
opt_min/./Product_2274_0_opt.xyz
  C -0.81527297  1.01887579 -0.12089664
  H -3.26500140 -3.62606745 -1.47522144
  H  0.44047736 -8.23994223 -14.05436126
  C  4.76527973 -6.88837096 -17.16107303
  H -3.92031901  14.34040651  2.35047320
  H  16.11757685 -14.78799772 -38.49895337
  C  11.57764695  7.42817722 -13.07793511
  H -4.14585807  9.70891875  4.25065403
  C  6.28733239 -14.55068684  5.08466994
  H  0.83325630 -29.01890060  7.16593621
  N  11.84053976  6.26210697 -28.78943237
  H  13.33350415  9.13515047 -3.08409430
  C  5.03428298 -11.06518317  0.77114994
