14
opt_min/./Reactant_5307_0_opt.xyz
  C  2.49485200  0.20066900  0.07899800
  N  1.21087767 -0.46122895  0.15725878
  C  0.06256476  0.24925471 -0.06006879
  O  0.06348814  1.43405472 -0.32091539
  N -1.07969108 -0.49607038  0.04167827
  C -2.37791430  0.11432016 -0.12688800
  H -2.30590283  0.86586659 -0.90861979
  H -2.70889840  0.60475026  0.79050652
  H -3.10367527 -0.64551534 -0.40444203
  H -1.01607280 -1.47311392  0.25438837
  H  1.16544406 -1.43874497  0.37133560
  H  3.28288749 -0.51914386  0.26843224
  H  2.54647478  1.00574086  0.81407155
  H  2.62238300  0.64792911 -0.90640341
