15
opt_min/./Product_10268_0_opt.xyz
  C  0.05092800 -0.40220600  0.63773600
  H  0.07666423  0.36471471  1.41803629
  H  0.25664166 -1.37974650  1.08773825
  C -1.19429621 -0.37021946 -0.27771246
  C -2.20862557  0.73652262  0.00645402
  H -3.18216081  0.48293654 -0.40672899
  H -2.31386903  0.88920137  1.08122714
  H -1.87969699  1.67264865 -0.44526655
  H -1.69749548 -1.33577149 -0.36626561
  C -0.31235690 -0.04674957 -1.49212585
  C  0.83748145 -0.10531159 -0.61008735
  C  2.14424314  0.09123150 -0.85875209
  O  3.12924302  0.04127751  0.03907790
  H  2.77515801 -0.15330392  0.92302217
  H  2.49513842  0.30453835 -1.86001829
