12
opt_min/./Product_10752_0_opt.xyz
  N -1.05232500  1.53902800  0.62553500
  C -0.77903970  0.38092352  0.19578422
  C -1.53486286 -0.83252382  0.02196666
  H -2.54506456 -1.07745396  0.28943847
  O -0.77669771 -1.75913409 -0.49191088
  N  0.44338488 -1.40731988 -0.73831103
  C  0.58983260 -0.02928845 -0.34027718
  N  1.63904311  0.11656323  0.64351657
  H  2.48597875 -0.32558872  0.30246584
  H  1.81176430  1.10005800  0.81730741
  H  0.78081290  0.54541470 -1.27129916
  H -2.01966850  1.66028614  0.91756329
