9
opt_min/./Product_858_0_opt.xyz
  C  0.50742800  0.69684400 -0.24550700
  H  1.06932908  1.60832276 -0.37554843
  C  1.12374443 -0.54790529 -0.16390466
  H  2.20039508 -0.66349445 -0.16783748
  N  0.41064781 -1.66162489 -0.08871598
  N -0.87851915 -1.60989136 -0.06560441
  N -1.52290398 -0.49412735 -0.05531854
  C -0.87722103  0.65926677 -0.13858583
  H -1.49145670  1.54861785 -0.10474202
