8
opt_min/./Reactant_5826_0_opt.xyz
  N -1.25248700 -0.04819800 -0.12130900
  C -0.04674138 -0.00623913  0.55051336
  O  0.03053337  0.12986820  1.74930934
  N  1.04682380 -0.10160771 -0.25637647
  H  1.94875920  0.06561795  0.14951024
  H  0.96294430 -0.11305312 -1.25576570
  H -2.04670227 -0.19317107  0.48066774
  H -1.29740960 -0.52128201 -1.00777213
