13
opt_min/./Reactant_10124_0_opt.xyz
  O -0.40983800  0.43379900  2.63505800
  C -0.25101060  0.54339856  1.45062393
  N  0.88645018  0.94975136  0.82252297
  H  1.74826653  1.07287151  1.33038371
  C  0.88016053  0.71887938 -0.60534257
  H  1.20449970  1.60215392 -1.16252589
  H  1.52900106 -0.12431214 -0.88474274
  C -0.59188598  0.40576488 -0.83053867
  H -1.11270394  0.91726733 -1.62792300
  C -1.10009554 -0.87446082 -0.30617648
  H -2.01960458 -1.29916025 -0.68344765
  H -0.37720706 -1.61194404  0.03223265
  N -1.25035262  0.34800688  0.45749297
