11
opt_min/./Product_1180_1_opt.xyz
  C  0.71731309 -0.10242285 -0.30006780
  O  1.92476141 -0.57362402 -0.67783353
  H  2.56831367  0.14532696 -0.68218335
  C  0.19349095  1.07386325  0.03986637
  H  0.58065178  2.06972365  0.15623076
  C -1.18635561  0.50294841  0.23278401
  H -1.93404595  0.86616952 -0.47203186
  H -1.58859852  0.55605945  1.24327864
  C -0.56907843 -0.86568680 -0.15464991
  H -0.95975375 -1.31417981 -1.06633742
  H -0.56995939 -1.61136519  0.64005581
