19
opt_min/./Reactant_10398_0_opt.xyz
  C  2.20119300  0.32426900 -0.11916300
  C  1.10320015 -0.72119069 -0.03231402
  H  1.54805540 -1.71588843  0.04093937
  C  0.02837014 -0.58097087 -1.12823583
  H  0.27117077  0.09575617 -1.94653093
  H -0.30250931 -1.53176908 -1.54435578
  C -0.92702953 -0.04197756 -0.07503452
  C -1.72508651  1.21909310 -0.15684947
  H -1.76152698  1.72879411 -1.10846562
  H -1.73757216  1.87702999  0.69854177
  C -2.42004392 -0.10809208 -0.05073541
  H -2.89364525 -0.36265564  0.88612884
  H -2.93506520 -0.49211339 -0.91807002
  C  0.03792628 -0.41530843  1.04039664
  H -0.28288363 -1.29562847  1.59524949
  H  0.29517248  0.37558910  1.74248822
  H  2.83973420  0.13274992 -0.97965252
  H  1.76585868  1.31503365 -0.22814601
  H  2.81857343  0.30874000  0.77602856
