9
opt_min/./Reactant_2670_0_opt.xyz
  C -0.45635300  1.53998400  1.44233800
  C -0.28050077  0.47451209  0.92822351
  C -0.06708227 -0.80882798  0.28735384
  C  0.32947574 -0.62785091 -1.09968833
  C  0.66279463 -0.46732305 -2.23700460
  H  0.94971454 -0.34090243 -3.23863610
  H -0.98617978 -1.40392229  0.32340827
  H  0.72525247 -1.34884989  0.82007571
  H -0.60891228  2.47434796  1.89509295
