11
opt_min/./Product_2684_0_opt.xyz
  C -1.56404602  0.34316993 -0.03652295
  C -0.08682101  0.38078752 -0.35782252
  H  0.16530908  0.48609411 -1.40939240
  C  0.89379889 -0.31785677  0.50104956
  C  2.08501737 -0.85120960 -0.08480365
  N  3.03384025 -1.27442084 -0.56265051
  H  0.54541198 -0.83231120  1.39089902
  O  0.75402047  1.07797243  0.51247036
  H -1.85997638  1.29019280  0.40525720
  H -2.13984578  0.18676835 -0.93957585
  H -1.79851479 -0.45018186  0.66557225
