13
opt_min/./Product_1830_0_opt.xyz
  C -1.73653500 -0.40667100 -0.11914000
  H -2.30302769 -1.32354264 -0.17581989
  H -2.05790654  0.33985443 -0.83077537
  C -0.23469892 -0.47710427  0.23630004
  C  0.72721634  0.45462075 -0.48659418
  N  2.08228199  0.20252270 -0.03548264
  H  2.39058322 -0.71824657 -0.33214895
  H  2.72544729  0.88405902 -0.42189512
  H  0.59576218  0.31800003 -1.57916057
  H  0.48233088  1.49335447 -0.25121136
  H  0.17574836 -1.46435189  0.40436817
  C -1.22711959  0.04136137  1.17599010
  O -1.44864487  0.52863158  2.23898411
