7
opt_min/./Product_10724_1_opt.xyz
  N -1.47030802  0.05521529 -0.05394147
  C  107.78880019  37.52647563  29.19665299
  O  12.71996064  6.11153529  4.45499289
  C -56.09714991  43.32494206 -47.76435604
  H  65.00941060 -46.44831898  51.14582324
  H -45.06697968 -77.80681103 -6.13876607
  H -14.05887941  69.06610889  7.52239253
