13
opt_min/./Product_10707_0_opt.xyz
  C  2.49797500  0.02517900  1.02964000
  O  1.48515001 -0.47801535  0.41205083
  C  0.44677966  0.13517595 -0.04313967
  C -0.58117040 -0.66702781 -0.78803461
  O -1.68641237  0.14161777 -1.18231713
  C -2.47165248  0.58576739 -0.21899969
  O -2.37362726  0.36942318  0.95006620
  H -3.26320514  1.21320982 -0.66334032
  H -0.94302281 -1.49973737 -0.16786300
  H -0.18125204 -1.07236098 -1.72561362
  H  0.35399489  1.20923984  0.03580425
  H  3.24773578 -0.66702312  1.35209709
  H  2.55938825  1.08039787  1.24120441
