15
opt_min/./Product_8902_0_opt.xyz
  C -0.61761100 -1.53070300  0.37008800
  N -0.36556397 -0.39299274 -0.52377678
  H -0.16439321 -0.72657423 -1.46740339
  C -1.65528255  0.48213506 -0.68076499
  C -1.21406967  1.69739222 -0.27724577
  H -1.83336005  2.57868531 -0.23722820
  C  0.18229734  1.72514533  0.09843269
  H  0.71858971  2.59433420  0.43877828
  C  0.69632938  0.49953184 -0.05586622
  N  1.93488989 -0.10120387  0.23014733
  H  2.59262305  0.57977611  0.59177949
  H  2.34407161 -0.57894314 -0.56965963
  H -1.41909714 -1.24857050  1.05211558
  H -0.93004105 -2.40587593 -0.19521757
  H  0.28517379 -1.75788788  0.93660295
