12
opt_min/./Product_4663_0_opt.xyz
  O -0.86122600  2.27968900 -0.26102000
  C -0.58494091  1.14083215 -0.09839011
  C -1.27236881 -0.17827362 -0.28251362
  H -2.18474763 -0.26635192  0.30835202
  H -1.52241305 -0.36615086 -1.32818893
  C -0.05199143 -0.92838883  0.25834957
  H -0.23329068 -1.48392134  1.17626055
  H  0.43805765 -1.57562302 -0.46755668
  C  0.69103317  0.41409500  0.47221794
  C  1.80652798  0.89354037 -0.27729120
  H  2.11501840  0.17905466 -1.06105361
  H  0.73958914  0.75640495  1.51156702
