14
opt_min/./Reactant_7371_0_opt.xyz
  C -1.21098800 -0.62238600  0.61117400
  H -2.25139938 -0.91182567  0.65110391
  H -0.74775948 -0.61696654  1.58801055
  C -0.76062803  0.42544706 -0.36505809
  H -1.47834733  0.87265032 -1.03313461
  C  0.32839847  1.38439586  0.08515205
  H  0.42729221  2.22191689 -0.60981316
  H  0.08902676  1.79007266  1.08049802
  O  1.63617380  0.81189284  0.19227342
  C  1.81495036 -0.49066293 -0.04390428
  H  2.85794719 -0.74945404  0.08223736
  N  0.99584712 -1.38425034 -0.38149202
  C -0.35646586 -1.00730997 -0.56537682
  H -0.82006981 -1.59687138 -1.34517176
