13
opt_min/./Product_5006_0_opt.xyz
  O  2.05094200  1.28712100  0.70696900
  C  2.25523182  0.08234332  0.20843751
  C  0.97012391 -0.66293821  0.04564990
  N -0.23029952 -0.01860568  0.51122532
  C -1.51658853 -0.50948803  0.09284305
  H -1.53634774 -1.31808378 -0.63090885
  H -2.27032032 -0.56604606  0.86322340
  C -1.00546510  0.80028148 -0.36659738
  H -1.39488118  1.70556398  0.07977323
  H -0.72176487  0.91475651 -1.41033362
  H  0.93974014 -0.95275411 -1.02327176
  H  1.10124735 -1.59958576  0.60048932
  H  2.89355389  1.75381765  0.82490656
