16
opt_min/./Product_7642_0_opt.xyz
  C -0.75519400 -0.28545400  1.42740700
  C -0.92369142  0.23238516  0.03658837
  C -1.82588623  1.14954842 -0.29435895
  H -2.49809472  1.57084961  0.43484960
  H -1.92858164  1.51409493 -1.30290422
  C -0.02797947 -0.30463225 -1.00967093
  H -0.36320335 -0.07520460 -2.02040518
  C  1.51914984 -0.20709506 -0.91836760
  C  2.06312423  0.16188250  0.33241334
  H  2.91489072  0.85264149  0.21123386
  H  1.98774622  0.02081290 -1.87683045
  N  0.74635093 -1.46983049 -0.91546935
  H  0.73834433 -1.88307361  0.01554814
  H -1.41748495  0.23673993  2.11372127
  H -0.97452111 -1.35292602  1.46577315
  H  0.28521047 -0.13005746  1.73206601
