15
opt_min/./Product_8038_0_opt.xyz
  C  1.75859196 -0.21063993 -0.57823714
  C  0.32067464 -0.71568314 -0.58711184
  C -0.41671894 -0.33349692  0.70137944
  N -0.61556193  1.14918368  0.84420936
  C -0.81133500  2.06926340 -0.02706693
  H -0.83053360  1.67647534 -1.05614784
  H -0.60598687  1.43191524  1.81924898
  C -1.70802153 -0.97820009  0.75196541
  N -2.74458992 -1.45975110  0.79205940
  H  0.16819304 -0.66535888  1.56858701
  H  0.30867390 -1.80480790 -0.67355239
  H -0.21571703 -0.31308107 -1.44838474
  H  2.35514778 -0.75308082  0.15255703
  H  2.20828029 -0.35289868 -1.55767692
  H  1.79240637  0.85050350 -0.33842079
