8
opt_min/./Reactant_3185_0_opt.xyz
  N -1.34159985 -0.57004125  0.39978954
  C -0.42275129 -0.37378283 -0.57998162
  O -0.53846871 -0.79165874 -1.70770919
  C  0.73322228  0.37665592 -0.12539565
  C  1.72552622  0.96296893  0.20707940
  H  2.60615764  1.46595352  0.48166556
  H -1.25512178 -0.14320135  1.30510584
  H -2.19317060 -1.05454256  0.16320443
