9
opt_min/./Product_5270_0_opt.xyz
  N -0.98242400 -0.08967800 -0.18934700
  H -1.97037392  0.03206710 -0.02830121
  C -0.22087279 -1.21598782 -0.19384095
  H -0.69914670 -2.15741624  0.00009885
  C  1.12639908 -0.95094465 -0.46354428
  C  1.09077709  0.43851449 -0.61826675
  H  1.89947957  1.10690970 -0.83917150
  N -0.15885966  0.94672355 -0.45542953
  H -0.48191755  1.90112712 -0.50863781
