11
opt_min/./Product_3740_0_opt.xyz
  C -0.72064496 -1.20167267  0.07121316
  C -0.05050718  0.13983652 -0.06871474
  N -0.86646020  1.19820588 -0.54703395
  H -0.39355628  2.09220814 -0.50250620
  H -1.74749490  1.25088916 -0.04721145
  C  1.21064895  0.30611843  0.22804998
  N  2.36754278  0.47599012  0.58724586
  H  3.11228867  0.39645754 -0.10404206
  H -1.01316152 -1.39035357  1.10476880
  H -1.60774763 -1.21375835 -0.55664391
  H -0.05699031 -2.00350350 -0.24365685
