15
opt_min/./Product_3101_0_opt.xyz
  C  2.13698200  0.31159900  0.23742400
  C  0.88176435 -0.21754197 -0.41422830
  H  0.82955087 -1.31302767 -0.37912752
  N -0.38936161  0.38420051  0.04455690
  C -1.49342432 -0.48912594  0.45279390
  O -2.56782487  0.25303307  0.91932059
  H -2.92388713  0.79003023  0.19825147
  H -1.76304639 -1.11823306 -0.41034585
  H -1.17983558 -1.13050018  1.28671019
  H -0.30463450  1.17361288  0.68387775
  C  0.12024353  0.63030062 -1.35294495
  H -0.49540755  0.01027134 -2.03113239
  H  2.04021486  1.37313438  0.45203499
  H  2.97054735  0.18953026 -0.45130791
  H  2.37017232 -0.22397805  1.15794272
