10
opt_min/./Product_4302_0_opt.xyz
  O -1.34487000 -0.56529100 -1.07143700
  C -0.37569361 -0.33967375 -0.16330230
  N  0.79174540 -1.21819961  0.13479812
  C  1.52533495 -0.18580142  0.30347393
  H  2.56180558 -0.21091427  0.58813839
  C  0.46106008  0.86501348  0.04194217
  H  0.54820436  1.77089569 -0.52660164
  N -0.56137417  0.48918851  1.02598986
  H -1.40110357  1.05939041  0.91330425
  H -1.88996121 -1.31747880 -0.79836123
