9
opt_min/./Product_2060_0_opt.xyz
  O -0.83791300 -1.26353800 -0.03770800
  C  0.39889427 -1.62123305 -0.14120469
  C  1.20160698 -0.38231913 -0.10548476
  H  2.27176134 -0.35846678 -0.17149451
  C  0.37865996  0.66718506  0.02013185
  H  0.61885497  1.71062216  0.07757555
  C -1.01526027  0.15332921  0.07329559
  H -1.64480487  0.49407537 -0.75192339
  H -1.52782198  0.36928135  1.01389843
