13
opt_min/./Product_10023_0_opt.xyz
  N  2.22544900 -0.33872400  0.23483500
  C  0.88866505 -0.09029564  0.11545158
  C -0.20190674 -0.82830536  0.34841074
  H -0.25458068 -1.84270890  0.68546177
  C -1.40909633  0.03707744  0.05223635
  O -2.33895068 -0.52944879 -0.84268768
  H -3.07241380 -0.90941082 -0.35267414
  H -1.89647849  0.30578694  1.00414448
  C -0.82938041  1.36272292 -0.45153532
  N  0.46824488  1.18170003 -0.34356377
  H  1.14046163  1.89510445 -0.59557433
  H  2.90325340  0.36032782  0.00007707
  H  2.54003103 -1.23013383  0.56438890
