15
opt_min/./Product_8141_0_opt.xyz
  C -1.46924600  1.19206500 -0.22878000
  H -1.81534367  2.14716712  0.17542602
  H -1.87097948  1.11207420 -1.25812084
  O -0.04802030  1.28637984 -0.23646124
  C  0.63412507  0.15984962 -0.70374916
  C  2.01672771  0.14406506 -0.04385500
  H  1.90647728  0.30617291  1.02630159
  H  2.48835813 -0.81745879 -0.22385415
  H  2.62999892  0.93844801 -0.45810693
  H  0.75065163  0.22804947 -1.80433196
  O -0.04472852 -1.05289453 -0.49088551
  C -1.05336953 -1.04623083  0.51139461
  H -0.61742052 -0.92227908  1.52324428
  H -1.49517626 -2.04545633  0.47968654
  C -2.04555294  0.03074808  0.45496604
