19
opt_min/./Product_10401_0_opt.xyz
  C  2.98842100 -0.09003600 -0.04594900
  C  1.61353819 -0.24106046 -0.55694131
  C  0.58654644 -0.29475204  0.50156730
  C -0.83870270 -0.18351981 -0.00552090
  C -1.17478647 -1.16654612 -1.11564686
  H -2.03601324 -1.77685578 -0.85765774
  H -1.39557017 -0.64342932 -2.04196999
  H -0.32761827 -1.81700365 -1.30266992
  C -1.47185699  1.17523933 -0.04266564
  H -0.90706074  2.03286416  0.28597511
  H -2.14320811  1.39502305 -0.85815704
  C -1.91393403  0.17350546  0.98315249
  H -2.88865279 -0.27404315  0.87845998
  H -1.62473202  0.34189352  2.00906763
  H  0.71803041 -1.26426900  0.99978148
  H  0.78813272  0.46078829  1.27288727
  H  3.56645448 -0.92148687 -0.44672174
  H  3.40126160  0.80830966 -0.50032385
  H  3.10801120 -0.04472290  1.04388631
