12
opt_min/./Product_3588_0_opt.xyz
  C  0.59922600 -0.94627000  0.10604500
  H  0.66206823 -1.65974241 -0.71364445
  H  1.13995849 -1.34489386  0.96105611
  C  0.94876688  0.50888090 -0.24061010
  H  1.69185155  0.96319546  0.40980973
  H  1.21907585  0.68915797 -1.27974624
  C -0.48722171  0.93284347  0.10067882
  H -0.67219681  1.83044265  0.68489947
  O -1.35165083  0.80525000 -1.03157522
  C -1.71418215 -0.43941995 -0.79603024
  C -0.84086453 -0.51665307  0.46228985
  H -1.27494304 -0.85995212  1.39370399
