17
opt_min/./Reactant_8496_0_opt.xyz
  C  1.59350900  0.08265400 -0.91599300
  C  0.84828861  0.02205811  0.40633120
  H  1.54380299 -0.25063339  1.20043396
  C -0.00664698  1.25457349  0.78886757
  H  0.27575508  1.73664294  1.71989998
  H -0.09376071  2.00175006  0.00482419
  C -1.24718959  0.35265419  0.90078358
  H -1.86003022  0.41175832  1.79721724
  O -2.01860228  0.29141642 -0.30067309
  C -1.32172652 -0.87346907 -0.75957795
  H -1.99113840 -1.73625652 -0.80951721
  H -0.85195591 -0.72723534 -1.73286900
  C -0.41592137 -0.86740123  0.47718295
  H -0.35397512 -1.79261669  1.04034904
  H  0.97527484  0.53881063 -1.68517842
  H  2.50187285  0.66917325 -0.81533013
  H  1.86121512 -0.92091796 -1.24004583
