11
opt_min/./Product_622_0_opt.xyz
  O  0.57489900  0.91628200 -0.61421000
  C -0.83120866  0.64648949 -0.61896830
  H -1.40328800  1.40499309 -0.07830258
  H -1.20565362  0.56066961 -1.64460009
  C -0.62392597 -0.69984094  0.08165817
  H -0.89184705 -1.56746537 -0.51283677
  H -1.01424258 -0.78829617  1.08921347
  C  0.87209940 -0.32152729  0.00959682
  O  1.53733050 -0.19084435  1.21458142
  H  1.28787282  0.65404058  1.60454852
  H  1.48967467 -0.97082201 -0.62451218
