11
opt_min/./Product_4089_0_opt.xyz
  C -0.74099700  0.71699600  0.02166400
  H -1.18186999  1.29994483 -0.78120896
  H -1.26920116  0.93837419  0.94928072
  C -0.54595690 -0.79251759 -0.24668581
  H -1.06426223 -1.45641291  0.43516329
  H -0.78004222 -1.06283875 -1.27344840
  C  0.96848577 -0.64028477  0.00917441
  H  1.63384361 -0.94443951 -0.79299243
  H  1.29995437 -1.09883986  0.94122656
  C  0.75728076  0.84575591  0.17853499
  O  1.48658538  1.77094128  0.37917730
