11
opt_min/./Reactant_3744_0_opt.xyz
  C -0.96051703 -0.68425597 -0.09605992
  C  0.14106527  0.29822761  0.31374615
  N  1.47401088 -0.11996760 -0.11740730
  H  2.10765915 -0.24243769  0.66235724
  H  1.43811416 -0.98982139 -0.63519588
  C -0.13304025  1.59195459 -0.30742195
  N -0.34143810  2.59949124 -0.80465038
  H  0.09758949  0.45229663  1.40211857
  H -1.93049055 -0.32247702  0.23654746
  H -0.76841803 -1.66397585  0.33960993
  H -0.98720977 -0.78973217 -1.18026806
