19
opt_min/./Reactant_6575_0_opt.xyz
  C  2.08200600  0.14349700 -0.29367400
  C  0.85233516 -0.73164105 -0.15096970
  H  0.79784806 -1.43975672 -0.99245504
  O  0.80633289 -1.45310562  1.09161579
  C -0.52532179 -1.02370416  1.36357331
  H -0.61378798 -0.54797676  2.34511669
  H -1.23982317 -1.85177556  1.29410093
  C -0.52122252 -0.08622949  0.14333019
  C -0.49705311  1.39290851  0.50243422
  H  0.22045054  1.59719107  1.29115605
  H -1.48360055  1.70141076  0.84723621
  H -0.24533933  1.99141413 -0.37088204
  C -1.59106247 -0.36210711 -0.90788578
  H -2.55617060  0.00413659 -0.56156012
  H -1.67694531 -1.42891214 -1.10249918
  H -1.34039179  0.14260030 -1.83859278
  H  2.27712657  0.67832398  0.63174455
  H  1.94801200  0.85458019 -1.10542193
  H  2.94948263 -0.47567537 -0.51369461
