10
opt_min/./Product_832_0_opt.xyz
  O  1.50319300  1.69471100 -0.13633100
  C  0.78876974  0.73145821 -0.04643187
  C -0.72354262  0.64430467 -0.16992814
  H -1.02204516  0.94797232 -1.17830522
  H -1.23997210  1.27662010  0.55255510
  N -0.93467706 -0.76986284  0.05735589
  H -1.84797851 -1.18825163  0.06511594
  C  0.16425964 -1.47714215  0.26069516
  N  1.18587720 -0.56183236  0.18794199
  H  2.15217090 -0.81365216  0.31111167
