11
opt_min/./Product_3967_0_opt.xyz
  C -1.07198200 -0.48013000  0.41776300
  C -0.15817580  0.63646466 -0.09032238
  C  1.07161407  0.02729629 -0.69956744
  N  2.16362195 -0.23836000 -0.14578743
  H  2.22030001  0.03451462  0.83837848
  H  0.97652714 -0.25251817 -1.75023641
  H -0.68785294  1.23109657 -0.83466708
  H  0.12744047  1.27959854  0.75095183
  H -0.57936153 -1.03449676  1.21673558
  H -1.28672609 -1.18516236 -0.38804187
  H -2.00385002 -0.06202257  0.79331854
