15
opt_min/./Reactant_4379_0_opt.xyz
  C  0.37182400 -1.15945500  0.42433000
  H  0.73161543 -2.11014942  0.03696733
  H  0.31023421 -1.23816787  1.50781253
  C  1.28731734  0.01991676  0.04140223
  H  1.93886841 -0.23943637 -0.78975391
  H  1.92723963  0.29534580  0.87765522
  C  0.34214747  1.17416225 -0.34965295
  H  0.35371650  1.30117184 -1.42994901
  H  0.63292910  2.12092271  0.10294986
  C -1.05022887  0.72443531  0.09183806
  H -1.18993305  0.93043797  1.15328087
  H -1.84341446  1.21245505 -0.47155037
  C -1.00430784 -0.78355064 -0.12456049
  H -1.81406283 -1.31706221  0.37198077
  H -1.04278590 -0.99884511 -1.19156894
