8
opt_min/./Product_4183_1_opt.xyz
  O -0.88993500  0.83688500 -0.52513200
  C -0.60368294 -0.16198375  0.42165455
  C  0.83943088 -0.39897374  0.72382422
  O  1.62570153  0.24451391 -0.11021799
  H  2.55957954  0.05347776  0.07527488
  H -1.09807019  0.03479999  1.38504072
  H -0.92814811 -1.16949559  0.08927237
  H -1.83719759  0.87673470 -0.67334512
