13
opt_min/./Product_2745_0_opt.xyz
  C  2.14892900 -0.43052200  0.41571300
  N  0.72603558 -0.35595189  0.37120441
  C  0.15252746  0.53693968 -0.29556738
  C -1.32238913  0.65080589 -0.34960258
  H -1.69564717  1.38857929 -1.05665320
  C -2.18330246 -0.50035168 -0.02012158
  H -3.13872169 -0.60078359 -0.52486377
  H -1.70282213 -1.41891620  0.29633680
  O -2.04747534  0.57537879  0.84652361
  H  0.68536533  1.29274650 -0.89913203
  H  2.46536650 -0.26835789  1.44627294
  H  2.44281019 -1.44023187  0.12730082
  H  2.64740275  0.30307800 -0.23405076
