10
opt_min/./Product_4489_0_opt.xyz
  N  1.85245300  0.22789600  0.72242600
  C  0.83775457 -0.35486483  0.11698193
  N  0.42317432 -1.10070837 -0.80062193
  C -0.62090479 -0.57865500  0.17328466
  C -1.49364591  0.52224587 -0.23936524
  O -1.17346999  1.45506632 -0.93131278
  H -2.50257942  0.47393166  0.23005236
  H -1.03925341 -1.29508206  0.87159409
  H  1.68919166  0.89169136  1.45971780
  H  2.74888924  0.22514025  0.26574214
