13
opt_min/./Product_512_0_opt.xyz
  C  1.74179600 -0.16187400 -0.09575600
  C  0.36105153 -0.07091324  0.55530379
  H  0.49357982  0.00908017  1.64084290
  N -0.40876821 -1.26892816  0.31147518
  C -1.50965558 -0.91325889 -0.22688535
  H -2.25814229 -1.64079876 -0.49551240
  C -1.63233242  0.51905169 -0.42055684
  H -2.47636649  1.01625514 -0.85689538
  C -0.49488499  1.05270078  0.04916055
  H -0.20072909  2.08361152  0.07764656
  H  2.36002070  0.68331001  0.18955298
  H  2.21854264 -1.08857032  0.20759911
  H  1.63077412 -0.17337099 -1.17813972
