15
opt_min/./Product_8847_0_opt.xyz
  C  0.02508900  1.01431700 -0.82701400
  H -0.08719856  1.07115098 -1.91052988
  H -0.21042332  1.98566743 -0.39690653
  C -0.61267874 -0.23342795 -0.21802279
  C  0.68987710 -1.00795381 -0.34910632
  H  0.98105941 -1.66977764  0.46006747
  H  0.77029735 -1.52839657 -1.30507053
  C  1.32826250  0.38210061 -0.41103020
  N  2.40206693  0.90991405 -0.06613916
  H  3.12105972  0.27533281  0.27483569
  C -1.31305462 -0.14878638  1.09051353
  H -1.63828826  0.82097596  1.45450296
  H -1.08700951 -0.86427259  1.87183908
  N -1.94812557 -0.72262014 -0.07295698
  H -2.65387217 -0.13664968 -0.51145395
