15
opt_min/./Product_11084_0_opt.xyz
  C  2.11867200 -0.78376500 -0.10222000
  C  0.73895464 -0.23020570 -0.07363654
  C -0.44776549 -0.69512773  0.35051232
  H -0.61244282 -1.64750241  0.82506457
  C -1.48449920  0.27615773  0.08886756
  N -2.83493939 -0.00477221  0.36610079
  H -2.95956664 -0.58503303  1.18664353
  H -3.38851116  0.84048300  0.42239655
  C -1.01689502  1.41622200 -0.50983586
  N  0.48794248  1.08912535 -0.65781524
  H  0.70256394  1.11647144 -1.65698539
  H  1.02409456  1.83353224 -0.20866079
  H  2.33357892 -1.27750546 -1.05487363
  H  2.85876437  0.00554307  0.04034178
  H  2.24089030 -1.51957083  0.69004578
