9
opt_min/./Product_5342_1_opt.xyz
  C -1.49644241 -0.00236710 -0.55227974
  N  5.11526352 -2.65974359 -2.40808174
  C  3.21787080 -4.80148606  15.47072066
  C  2.80446144 -8.80842069  11.90969870
  H  1.75920662  9.49123997 -1.19036848
  H  11.08774664 -0.02559071  8.84230561
  H  8.71244548  5.52338090 -14.40840195
  H -14.48560517  3.84824677 -23.01843855
  H -8.58916641  7.15498914 -0.13068301
