16
opt_min/./Product_6362_0_opt.xyz
  C  1.99131500 -0.40083300 -0.59861100
  H  1.96407526 -1.45877978 -0.79458658
  H  2.86300887  0.08535761 -1.00376689
  C  1.40974295  0.09317016  0.69675136
  H  1.91890831  0.90053586  1.19257764
  H  0.99312515 -0.63146475  1.37874698
  C  0.69002249  0.34914661 -0.58337913
  C -0.58813823 -0.37854160 -0.93388643
  C -1.83817935  0.47351420 -0.69265148
  O -1.96888314  0.89960991  0.64391794
  H -2.19981547  0.14595410  1.19639223
  H -2.72002479 -0.09824720 -1.01282673
  H -1.79629378  1.38978064 -1.28071145
  H -0.65520889 -1.29822356 -0.34403881
  H -0.56160016 -0.65046143 -1.98933669
  H  0.70236557  1.36900773 -0.93877962
