14
opt_min/./Product_4083_0_opt.xyz
  O  2.57638300  0.49363100  0.60777700
  C  1.44011768  0.04239898 -0.08879638
  C  0.24760416 -0.23641543  0.83664198
  C -0.92333776 -0.75857409  0.06904171
  C -2.11310234 -0.17790945  0.02963673
  O -2.41308905  0.97773583  0.70405714
  H -3.31948589  1.23148362  0.50979371
  H -2.92328422 -0.60904675 -0.54720861
  H -0.77270188 -1.66693316 -0.49267236
  H  0.56304201 -0.96645408  1.58608433
  H -0.04446350  0.68156782  1.35016720
  H  1.75092141 -0.87868186 -0.58733381
  H  1.14224193  0.76676154 -0.86068189
  H  2.35223291  1.31840950  1.05367795
