12
opt_min/./Product_3044_1_opt.xyz
  O -1.73028500  0.34586900 -0.82073300
  C -0.76572240  0.20239809  0.18057170
  H -1.21043820  0.28495512  1.18196464
  C  0.43712676  1.14724441  0.04577927
  O  0.55655208  2.33280017  0.02331615
  C  1.41177008 -0.01194765 -0.02056619
  H  1.97473647 -0.03674508 -0.94886913
  H  2.09995857 -0.05242056  0.81919874
  C  0.22278384 -0.99105615  0.05390378
  H  0.06696497 -1.57881035 -0.84554159
  H  0.23394514 -1.65532116  0.91445721
  H -2.48535209 -0.21754116 -0.62443115
