19
opt_min/./Product_7433_0_opt.xyz
  C -2.34019100  0.29344100 -0.65921900
  C -1.66205213 -0.45944897  0.47973270
  C -0.22758544 -0.86720394  0.15307134
  C  0.70762309  0.32637065 -0.01593929
  C  2.14757077 -0.12403652 -0.18988750
  H  2.26797164 -0.96623649 -0.85967614
  C  3.27860811  0.85201276 -0.12062163
  H  3.06589989  1.88645408  0.11072707
  H  4.13950619  0.72552088 -0.75774887
  C  3.04445640 -0.09954868  0.99142169
  H  0.41949017  0.92612082 -0.88248781
  H  0.64230947  0.96679381  0.86761546
  H -0.21514217 -1.46759077 -0.75901985
  H  0.15338207 -1.48804409  0.96728237
  H -1.66406950  0.15983111  1.37764257
  H -2.23801635 -1.36080694  0.69954114
  H -1.87899505  1.26661933 -0.80915813
  H -2.27009456 -0.26938777 -1.58644372
  H -3.39204517  0.45413715 -0.44169009
