12
opt_min/./Product_4516_0_opt.xyz
  O -1.95717900 -0.64820600 -0.45334100
  C -0.79996986 -0.29748744  0.24055645
  H -0.98315216 -0.30527465  1.33845796
  C  0.29294425 -1.30400184  0.17983347
  C  1.50220147 -0.50397703  0.06872092
  H  2.17604000 -0.68306508  0.91598011
  H  2.05336211 -0.84794452 -0.82001858
  O  1.22619458  0.89488117 -0.04348942
  C -0.17154454  1.06820832 -0.15237265
  H -0.44966495  1.32614122 -1.18323584
  H -0.46358245  1.88102434  0.51976140
  H -2.67812427 -0.06269784 -0.20012380
