13
opt_min/./Product_458_0_opt.xyz
  O -1.94390400  1.25594300  0.80174600
  C -1.21218553  0.14997560  0.41611038
  H -1.34375309 -0.63029804  1.15915456
  C -1.03699071 -0.24606704 -1.00715310
  H -1.05526402 -1.29698373 -1.25865503
  H -1.43807998  0.39069775 -1.78395908
  C  0.15043746  0.28915060 -0.22450883
  C  1.23476974 -0.61422493  0.16072444
  N  2.41943138 -0.19604040  0.20990884
  H  3.11665427 -0.87993214  0.49860917
  H  0.90684694 -1.63597898  0.39845224
  H  0.49387752  1.28990674 -0.46470382
  H -1.83639861  1.95930039  0.15040805
