12
opt_min/./Product_3723_0_opt.xyz
  C -1.62569352 -1.03373289 -0.29471300
  C -0.40108851 -0.19749982 -0.11263157
  C  0.79932128 -0.70076349 -0.35273068
  C  2.02060681 -0.99290079 -0.46681442
  O  3.11581203 -1.40287413 -0.56604221
  C -0.63355297  1.19941454  0.36834542
  H -1.47671495  1.64593356 -0.15667203
  H  0.24823315  1.82106722  0.24117070
  H -0.88537454  1.17190047  1.42974882
  H -2.19456778 -0.66668866 -1.15019413
  H -2.26911952 -0.96108791  0.58109171
  H -1.36856183 -2.07425766 -0.47195630
