10
opt_min/./Product_4555_0_opt.xyz
  C -1.31296300 -0.11258300 -0.01291000
  C  0.09118547  0.30621007  0.47543186
  C -0.36726866  1.08552711  1.39713141
  C  1.29315825 -0.24221287 -0.19420123
  H  1.29291775 -0.00455393 -1.25999793
  H  1.29572742 -1.33065871 -0.10356136
  H  2.18932566  0.17294201  0.26164717
  H -2.09826625  0.41333836  0.54246396
  H -1.43800190 -1.18411643  0.13872786
  H -1.39927460  0.14735939 -1.06738941
