12
opt_min/./Product_1416_0_opt.xyz
  C  2.02971600  0.52787699  0.24585401
  C  0.75565733  0.20687780  0.20062731
  O -0.34645316  0.87601656  0.71663734
  C -1.23789170 -0.11158330  0.19514780
  O -2.06318020  0.38073705 -0.80151600
  H -2.39271068  1.24329027 -0.52691906
  H -1.84141023 -0.56994608  0.99149128
  C -0.05909845 -0.94052505 -0.34525355
  H -0.05327279 -1.06562114 -1.42045743
  H  0.10234647 -1.88885233  0.15494422
  H  2.75450993 -0.11797988 -0.20800023
  H  2.35320842  1.43407065  0.72387361
