13
opt_min/./Product_8559_0_opt.xyz
  N -0.73819200  0.41646099  0.48240700
  C -1.92451151  0.13678962  1.04724399
  O -2.55784122 -0.87168208  0.86084022
  H -2.29568318  0.96327799  1.67794577
  C -0.08671913 -0.55681658 -0.37482442
  C  1.16094832  0.03609753 -1.03185489
  C  2.14224644  0.40670665 -0.04235307
  N  2.91180739  0.69936595  0.74970641
  H  1.60482093 -0.69702650 -1.70573792
  H  0.90136078  0.92297684 -1.61629528
  H  0.17375156 -1.44234211  0.21466176
  H -0.79685088 -0.87133232 -1.14604044
  H -0.26338909  1.27915965  0.68326958
