11
opt_min/./Product_1580_0_opt.xyz
  C  2.18981752  0.26638090  0.00852225
  N  20.01031648  16.65397289  17.58483810
  C  1.13231112 -4.51009595 -0.38138406
  N -6.26570296 -6.75480720 -4.48397783
  C -2.47804151  0.48391130  7.77972091
  N -6.15482896  3.24059766  0.60938544
  H -5.50998388 -2.20096249 -5.17430423
  H  1.75132530  1.48246117  6.30530674
  H  3.75102646  2.87310868  2.60167473
  H -0.70415432  2.33184108 -1.06047853
  H -1.18896317  4.61529955 -1.58658846
