14
opt_min/./Product_8293_0_opt.xyz
  C  2.17446900  0.32239400 -0.05093200
  C  1.08320562 -0.61494175  0.35848592
  C -0.17591711 -0.45260778  0.03174740
  C -1.57386788 -0.90656999  0.13539882
  H -1.89051645 -1.77189191 -0.43100228
  H -2.07131493 -0.81633059  1.09290483
  C -1.20981106  0.35765301 -0.62143612
  O -1.57299354  1.62385407 -0.16178911
  H -1.44324887  1.66033052  0.79239162
  H -1.29101460  0.34782529 -1.70328004
  H  1.39135388 -1.46635386  0.95512497
  H  2.67275506  0.72490140  0.83150631
  H  1.77702288  1.14491558 -0.64078378
  H  2.92150747 -0.21009973 -0.63990526
