13
opt_min/./Product_8303_0_opt.xyz
  C  1.85904800  0.18832800  0.06080600
  N  0.43635520  0.01747246  0.01175358
  C -0.48247080  1.09879985  0.23259012
  O -0.09866102  2.22698586  0.49395162
  C -1.73254271  0.47934485  0.07789349
  H -2.70588319  0.90997051  0.15769950
  N -1.53523894 -0.84045340 -0.20579368
  H -2.27263239 -1.51129747 -0.36018714
  C -0.23621934 -1.11325820 -0.24502277
  H  0.19945371 -2.07134953 -0.44478577
  H  2.24328480  0.51057385 -0.91147430
  H  2.06996799  0.98256925  0.77905635
  H  2.34607693 -0.73897593  0.35620208
