13
opt_min/./Product_3715_0_opt.xyz
  C -0.77039800  1.10929100 -0.28375000
  C -0.21240208 -0.21563099  0.19732361
  N  1.08385835 -0.19373617  0.82775623
  O  2.03111475  0.41493636 -0.05953955
  H  2.88037133  0.03399398  0.20118728
  H  1.04623845  0.39356764  1.66573555
  C -0.58182413 -1.49726081 -0.41389554
  H -1.30166624 -1.50958771 -1.22457085
  H  0.12244075 -2.31909059 -0.38788220
  O -1.08452231 -1.09455022  0.83273396
  H -1.42364193  1.52974993  0.47875985
  H  0.05345586  1.79242754 -0.47545131
  H -1.33868676  0.97881090 -1.20070103
