10
opt_min/./Product_5184_0_opt.xyz
  N  1.97988200 -0.11999200 -0.18830900
  C  0.65380532  0.00470025 -0.07155747
  N -0.20572060 -0.93530545  0.14666136
  C -1.45879281 -0.25393417  0.18054885
  H -2.13609214 -0.61600746 -0.59757136
  H -1.96786945 -0.37847224  1.13946874
  N -1.17120378  1.14244310 -0.03863651
  N  0.04665322  1.28326027 -0.18568840
  H  2.40041711 -1.02854683 -0.13970697
  H  2.53970159  0.69428188 -0.35542967
