13
opt_min/./Product_4535_0_opt.xyz
  C  1.69508800 -0.40141300 -0.14111300
  N  0.36595768  0.08813800  0.01929532
  C -0.79603623 -0.78479930  0.03996512
  H -0.85973965 -1.41588070 -0.87318021
  H -0.74845859 -1.49077165  0.89772385
  C -1.86021177  0.27246556  0.14807230
  H -2.91736295  0.16869515  0.21083786
  O -1.31297400  1.49298830  0.12758913
  C -0.02788594  1.40985433  0.03060244
  H  0.61941986  2.25586184  0.01549712
  H  1.86734662 -1.23068100  0.54760941
  H  1.88033524 -0.75578428 -1.16499310
  H  2.39995966  0.39975761  0.07704164
