13
opt_min/./Reactant_4535_0_opt.xyz
  C -1.64385300 -0.33424900  0.24638800
  C -0.31876348 -0.22400796 -0.49065925
  H -0.44565102 -0.41505290 -1.56547638
  C  0.43614688  1.11235822 -0.24522844
  H  0.46336491  1.75578165 -1.12287761
  H  0.00684465  1.67940664  0.58787423
  N  1.77048960  0.70466303  0.15378155
  C  1.74067477 -0.54691241  0.28545336
  H  2.57936556 -1.14279707  0.60932867
  O  0.61168218 -1.21008675  0.00132675
  H -2.23014451  0.56789991  0.08610719
  H -2.21193902 -1.19343338 -0.10298181
  H -1.45843025 -0.45184456  1.31179876
