12
opt_min/./Product_5668_0_opt.xyz
  N  1.68987400 -0.91438700 -0.94566000
  C  1.07672874 -0.04599204 -0.13019852
  C  0.94145316  0.64198988  0.96564617
  H  1.27902330  0.95175480  1.91889764
  C -0.15414913  0.82714132 -0.07973427
  C -1.46971337  0.20942639  0.12506782
  N -1.59016569 -0.96498257  0.56519848
  H -2.55197751 -1.27965132  0.67712340
  H -2.31214347  0.87000416 -0.14606932
  H -0.19179828  1.75235171 -0.65315498
  H  1.34774992 -1.03980816 -1.88112901
  H  2.60963158 -1.24563467 -0.71368787
