14
opt_min/./Product_7121_0_opt.xyz
  N -1.31702200  0.04490100 -1.32360200
  H -1.89666575  0.80092750 -1.68403273
  C -0.12336628  0.51139750 -0.72901490
  O  0.80099513  1.55142194 -0.65637940
  C  1.65920466  0.68194038  0.12562304
  H  1.71919619  1.01632803  1.16453769
  H  2.65463535  0.62470794 -0.31204249
  C  0.78154365 -0.55805585 -0.15794002
  H  1.24615257 -1.34079023 -0.75204060
  C -0.37626615 -0.97378402  0.78228673
  H -0.17490795 -0.79273944  1.83847576
  H -0.71000563 -1.99416811  0.62301207
  C -1.23754591  0.13534154  0.16648360
  H -1.93532200  0.75233867  0.70559822
