9
opt_min/./Product_3572_0_opt.xyz
  C -0.11667100  1.30944500 -0.42078600
  O -1.18493461  0.62237890 -0.73587459
  C -0.85952731 -0.56646412 -0.01730260
  H -0.71072161 -1.43680932 -0.65423288
  H -1.60322082 -0.79322376  0.74914215
  C  0.42655497  0.16251796  0.47490473
  O  1.65983554 -0.40116922  0.16665893
  H  1.94067204 -0.09764138 -0.70361223
  H  0.40256449  0.40241594  1.53919041
