11
opt_min/./Product_6190_0_opt.xyz
  C  0.51255900 -0.67547000  0.29077300
  C  0.53287210  0.55960257 -0.30186672
  C  1.83886233 -0.10284184 -0.08440716
  H  2.37272456 -0.52520671 -0.93519106
  H  2.49239539  0.26200685  0.70720622
  C -0.97315398  0.70261847 -0.28591311
  H -1.33749531  1.53159129  0.31863997
  H -1.42193092  0.73994312 -1.27743885
  C -0.99979082 -0.68869594  0.39872091
  H -1.36405026 -0.69657610  1.42441133
  H -1.47460718 -1.48864874 -0.16785845
