12
opt_min/./Product_2113_0_opt.xyz
  O  1.93018000  0.16658800 -0.75892700
  C  0.75957847  0.32234839 -0.09982937
  N  0.23897609 -0.69401433  0.83093558
  H  0.58202583 -1.63172557  0.66172424
  C -1.12812300 -0.46246029  0.30933182
  H -1.50052956 -1.29371627 -0.29053782
  H -1.85368082 -0.20596208  1.08525372
  C -0.60105816  0.68291837 -0.55409728
  H -1.01732683  1.08021752 -1.46272512
  N  0.20740277  1.58649898  0.25750560
  H -0.07928842  1.68911865  1.22684753
  H  2.66038071  0.18019914 -0.12578361
