17
opt_min/./Product_9665_0_opt.xyz
  C  3.17190300  0.26713500  0.43557700
  C  1.82357391  0.54713824  0.95637372
  C  0.74093867  0.17153457  0.02373456
  C -0.65440209  0.22397778  0.65438809
  C -1.73647424 -0.13418477 -0.33968563
  H -1.61215809  0.32007588 -1.32089993
  C -3.09527899 -0.46342001  0.09088266
  H -3.31794416 -0.48451871  1.14915617
  H -3.94187993 -0.25903196 -0.55340012
  O -2.21319174 -1.44767240 -0.36882593
  H -0.84076480  1.22595848  1.04213163
  H -0.68785121 -0.47402981  1.49011510
  H  0.79414138  0.88437500 -0.80720442
  H  0.92182990 -0.82078101 -0.40822707
  H  3.24640964 -0.04290180 -0.61458658
  H  3.80905261  1.12568955  0.63120529
  H  3.55005979 -0.53480062  1.06905825
