12
opt_min/./Product_11935_0_opt.xyz
  N -2.12906800  1.14893100 -0.08303100
  C -1.00752326  0.58166091 -0.03840058
  C -0.85310010 -0.93243386  0.10376854
  H -1.29531370 -1.27592385  1.04293991
  H -1.32116955 -1.46573714 -0.72593168
  N  0.58292920 -1.05345291  0.09994250
  H  1.11278052 -1.90395154  0.14461144
  C  1.10642619  0.18258738 -0.02358545
  O  2.42624174  0.32303876 -0.05423245
  H  2.63599365  1.26240882 -0.15125022
  N  0.25642977  1.15170502 -0.10365143
  H -2.07170764  2.15845896 -0.17490588
