13
opt_min/./Reactant_10029_0_opt.xyz
  N  2.29445300 -0.27388600  0.15262500
  C  0.95203393  0.08428424  0.01921416
  C  0.33434808  1.29249501  0.20489425
  H  0.81095881  2.21908447  0.46096923
  C -1.05305207  1.09182116  0.01486838
  H -1.81150172  1.84710276  0.09286712
  C -1.23672745 -0.22351624 -0.28328640
  O -2.36058294 -0.94289519 -0.57874961
  H -2.69821309 -1.39798159  0.20442072
  N -0.00553114 -0.84146561 -0.26584931
  H  0.16170725 -1.79897904 -0.53767014
  H  2.52530564 -1.14203238 -0.30985478
  H  2.92325825  0.46920704 -0.12046839
