9
opt_min/./Product_315_0_opt.xyz
  O  1.80775700 -0.52728700 -0.27662300
  C  0.67549162  0.13223573 -0.13970396
  N  0.56064799  1.39945351 -0.05608865
  O -0.87642247  1.62891740  0.08446302
  C -1.57510127  0.58814850  0.07991117
  C -0.65532556 -0.58516338 -0.06440169
  H -0.72376777 -1.25070417  0.79782102
  H -0.87533525 -1.17756114 -0.95223771
  H  2.55019858  0.09407750 -0.30133923
