19
opt_min/./Product_11039_0_opt.xyz
  C -2.52973400 -0.33276800 -0.26011400
  C -1.17618936  0.14600722  0.28392212
  C -0.00976938 -0.39285466 -0.54318379
  C  1.35880082  0.11928883 -0.05722098
  C  1.69298092 -0.35940181  1.35458034
  H  1.11444253  0.18461846  2.09653703
  H  2.74976818 -0.20168792  1.55945065
  H  1.48572039 -1.42152754  1.44732511
  C  2.35347187 -0.43228231 -1.03674240
  O  2.82351729  0.40700707 -1.87106338
  H  2.52521455  1.35378798 -1.79257680
  H  1.34201705  1.23036615 -0.08150998
  H -0.00338565 -1.48325529 -0.51057759
  H -0.14943123 -0.09276825 -1.58666924
  H -1.13932864  1.23782484  0.28001153
  H -1.05942714 -0.17985024  1.31710637
  H -3.06185626 -0.92669900  0.47778310
  H -2.39280582 -0.94933312 -1.14527002
  H -3.16399195  0.50607767 -0.53426492
