17
opt_min/./Product_8405_0_opt.xyz
  C  2.60776103 -1.01376192  0.14651665
  O  1.23472488 -1.26386223  0.33944200
  C  0.46736128 -0.15415270  0.43322600
  C  0.64088820  1.16640361  0.40267858
  H  1.48335873  1.81940977  0.30094385
  C -0.83169876  1.44484645  0.59271058
  H -1.09505702  1.95760104  1.51894203
  H -1.32489148  1.94410666 -0.24162650
  C -1.02628779 -0.09919508  0.62146815
  C -1.87870106 -0.66976731 -0.49684318
  H -2.82672526 -0.13357113 -0.54982618
  H -2.09059963 -1.72320888 -0.31975806
  H -1.36812929 -0.57841260 -1.45543177
  H -1.36611613 -0.47554289  1.58559257
  H  3.09402235 -1.98751957  0.07537961
  H  3.02682630 -0.44509474  0.98130812
  H  2.77575146 -0.45207720 -0.77964071
