12
opt_min/./Product_3468_0_opt.xyz
  N -1.87247000  0.26232300  0.05302000
  C -0.65758029 -0.41548932 -0.34199289
  C  0.59217950  0.40825763 -0.18817133
  O  1.77960947 -0.26388248 -0.57665534
  C  2.31224814 -1.21687639  0.07372724
  H  1.73088533 -1.48417078  0.99672797
  N  0.57337004  1.59012509  0.20464554
  H  1.46978921  2.06781180  0.25014415
  H -0.53521079 -1.34744121  0.22222806
  H -0.72770732 -0.69714524 -1.40172160
  H -1.77204462  1.25426477 -0.14671479
  H -2.02006451  0.17596350  1.05472229
