14
opt_min/./Product_3508_0_opt.xyz
  C  1.15648400  0.45238700  0.09295600
  H  1.85614310  0.47361603 -0.74433232
  H  1.53243757  1.12846219  0.86447836
  C -0.24350615  0.91899910 -0.38620751
  H -0.41022535  1.94356866 -0.04891563
  H -0.26586032  0.92985009 -1.47808285
  C -1.42487333  0.03015924  0.09361257
  H -1.51524903  0.10429370  1.17734093
  H -2.35184313  0.35906594 -0.37504116
  C -1.01444460 -1.35873096 -0.33402935
  H -1.53196959 -1.90013484 -1.10507616
  C  0.12180534 -1.66626122  0.25379424
  C  1.07123408 -0.91233995  0.75591966
  H  1.72603959 -1.14945794  1.57441133
