9
opt_min/./Product_2648_1_opt.xyz
  C  1.33378700 -0.65839400  0.03148100
  H  1.69982166 -1.64418783 -0.08429065
  C  1.30134749  0.61278322 -0.16801605
  H  1.55964833  1.54422409 -0.59968350
  N  0.24635411  0.07681068  0.71119401
  C -1.07020672 -0.05403944  0.09206597
  H -1.63791693 -0.80496626  0.64363367
  H -1.03247487 -0.34674527 -0.96504256
  H -1.59616637  0.89868214  0.17684409
