17
opt_min/./Reactant_2648_0_opt.xyz
  C -2.31417500 -0.22353200  0.21759400
  C -0.95804781 -0.82058403 -0.15187887
  C  0.15276845  0.20195737 -0.05394798
  H  0.14811547  0.92898709 -0.86604442
  C  0.63985753  0.65851003  1.26921077
  H  0.98742648  1.68133227  1.36539312
  H  0.21456552  0.22819915  2.16017467
  N  1.41680213 -0.24911091  0.46007543
  C  2.62760199  0.24173099 -0.14406607
  H  2.51556199  1.23402221 -0.60225112
  H  2.94537159 -0.45991500 -0.91435004
  H  3.40548335  0.29811174  0.61552127
  H -1.00147352 -1.20247862 -1.17291755
  H -0.71389130 -1.65002564  0.50911787
  H -3.10675766 -0.94155996  0.03419698
  H -2.34258541  0.05405352  1.26600058
  H -2.50765123  0.66605370 -0.37547066
