16
opt_min/./Product_7625_0_opt.xyz
  C  2.21497900 -0.00663000  0.03953100
  C  0.74116644  0.10279682 -0.14671554
  C  0.01602908  1.20912412 -0.31200237
  H  0.39089696  2.21450494 -0.38137564
  C -1.42816803  0.89911353 -0.39323754
  H -2.08030070  1.51488681 -0.99874093
  C -1.54597420 -0.58376773 -0.27097336
  H -2.27329807 -1.16538819 -0.81803770
  C -0.13601462 -1.12804854 -0.09077381
  H -0.03106920 -1.59501085  0.89583372
  H  0.12695970 -1.87852756 -0.83514231
  N -2.06245537  0.28067026  0.75191136
  H -1.53683733  0.30089109  1.62109284
  H  2.70828425  0.89878705 -0.30650386
  H  2.60870426 -0.86151968 -0.50846040
  H  2.45898811 -0.14631343  1.09451503
