16
opt_min/./Product_6606_0_opt.xyz
  C  2.54098000 -0.31318800 -0.41684800
  C  1.18797673 -0.08710530  0.21217382
  O  0.93800064 -0.34823542  1.35979347
  C  0.16301469  0.57336095 -0.70819747
  N -1.15959535  0.71408913 -0.13531959
  C -1.94166779 -0.50760672 -0.09530462
  O -3.25786266 -0.20860458  0.26191307
  H -3.49073363  0.61087372 -0.19229920
  H -1.90312146 -0.95931526 -1.10167942
  H -1.57963678 -1.24590022  0.63557445
  H -1.07121949  1.07493807  0.81434140
  H  0.54203388  1.56970122 -0.96027729
  H  0.08071568  0.00242096 -1.63751405
  H  2.48030684 -0.40622305 -1.49578379
  H  3.17476477  0.53802651 -0.17105068
  H  3.00010449 -1.19930836  0.01578142
