16
opt_min/./Product_11573_0_opt.xyz
  C -2.16380200  0.32001600 -0.10949600
  C -0.97892046  0.62081767  0.80689946
  C  0.29532688  0.03911446  0.27026106
  C  0.45003446 -1.45085267  0.24861276
  H -0.50018583 -1.95672364  0.39207089
  H  0.90615460 -1.77063318 -0.68898335
  H  1.12813449 -1.73955795  1.05389571
  N  1.20329100  0.81746907 -0.11899382
  C  2.39215537  0.70441224 -0.73170950
  O  3.48261421  0.71286136 -0.22786171
  H  2.25102002  0.75176011 -1.83786989
  H -1.16620682  0.20164863  1.79900423
  H -0.85524658  1.70162088  0.89905476
  H -3.05900521  0.80312508  0.27797535
  H -2.35546731 -0.74958664 -0.17383971
  H -1.97162088  0.70006531 -1.11143473
