13
opt_min/./Product_9699_0_opt.xyz
  C  1.68763700  0.05159100 -0.12018400
  C  0.30761832  0.27829262  0.46110197
  H  0.35013588  0.48743157  1.53721254
  O -0.42970060  1.29952230 -0.23054421
  C -1.47308402  0.39729501 -0.58825017
  H -1.80739224  0.47857538 -1.62028332
  C -0.75632902 -0.77174699  0.08950686
  H -0.46405981 -1.74088609 -0.30367082
  O -1.81541562 -0.80246772  1.04839124
  C -2.50495708  0.19769675  0.55448676
  H  1.61864361 -0.13287800 -1.18979229
  H  2.28999993  0.94307570  0.03588148
  H  2.16175488 -0.79595688  0.36813035
