13
opt_min/./Reactant_9699_0_opt.xyz
  C -1.59088039 -0.24712298 -0.29040592
  C -0.09727876 -0.21535577 -0.17399415
  O  0.82874620 -1.09003659 -0.84799233
  C  1.71597946 -0.24839854 -0.09449437
  H  2.78659288 -0.36582566 -0.19081470
  C  0.83854113  1.02041200 -0.26210834
  H  0.93964041  1.82146352 -0.98273388
  O  0.78691122  1.29399124  1.15092725
  C  0.77771118 -0.13692073  1.12570481
  H  0.67036164 -0.75433967  2.00772071
  H -1.92277500  0.48175129 -1.02607119
  H -1.91129875 -1.23812084 -0.60439372
  H -2.01723203 -0.01127257  0.68018256
