12
opt_min/./Product_1656_0_opt.xyz
  O  3.77357939  0.34283202 -1.66463006
  N  2.75339262  0.35373144 -1.05522328
  C  1.75973568  0.37930784 -0.46817143
  C  0.50269025  0.39550463  0.24263545
  N -0.38322905 -0.66585334 -0.21606342
  C -1.71210817 -0.55048145  0.34595040
  H -1.64802066 -0.71439225  1.42467314
  H -2.17029435  0.43916104  0.18289109
  H -2.35087880 -1.31509696 -0.09169614
  H -0.42876051 -0.66590697 -1.23264708
  H  0.68511830  0.23483637  1.31442757
  H  0.04791240  1.40284255  0.12711118
