17
opt_min/./Product_11068_0_opt.xyz
  C -1.54718000  0.35627700  1.27034800
  C -1.51049178 -0.74241105  0.24046499
  C -0.06286835 -0.99253652 -0.21633442
  O -0.01205083 -1.83228730 -1.34092394
  H -0.41720886 -1.37240426 -2.08644468
  C  0.62226446  0.35691726 -0.45962745
  H  1.06075215  0.44411858 -1.44517049
  C  0.03018777  1.59650138  0.14188354
  C  1.29749691  1.03120553  0.69439329
  H  2.18044620  1.62663728  0.50193031
  H  1.33681226  0.50553605  1.63759427
  H  0.47830965 -1.54618130  0.56317591
  H -2.10968636 -0.45470212 -0.62604997
  H -1.91788511 -1.67183373  0.64468622
  H -2.54763863  0.73219768  1.46550163
  H -1.03811006  0.10077206  2.19377848
  H -0.98976156  1.30492961  0.80412201
