12
opt_min/./Product_5359_0_opt.xyz
  O  2.13611600 -0.40616400  0.39500700
  C  0.84410630 -0.69775024  0.22537844
  C -0.20045377  0.12857996  0.03126486
  C -1.58618571 -0.42479011 -0.14644099
  H -1.77525922 -1.24635711  0.54019003
  H -1.73069058 -0.78345362 -1.16542805
  H -2.30492297  0.37193915  0.03470040
  C -0.05199069  1.57180444 -0.03868077
  O -0.94919133  2.36562877 -0.18707040
  H  0.99506422  1.93786855  0.05811447
  H  0.68812202 -1.76987160  0.27214084
  H  2.30574659  0.54519011  0.34134412
