8
opt_min/./Product_2698_1_opt.xyz
  O -1.46671500 -0.74122800  0.08804200
  C -0.72681542  0.39599555  0.02656652
  C  0.59989441  0.43891297  0.08326171
  O  1.34294143 -0.71885737  0.23924366
  H  2.26280619 -0.54173914  0.02672527
  H  1.12797001  1.37782111  0.03924093
  H -1.32474617  1.28653606 -0.06017344
  H -0.85314317 -1.48335544  0.18098795
