14
opt_min/./Product_3299_0_opt.xyz
  O  0.54668500  1.54018100 -0.00893800
  C  1.45250315  0.54626134 -0.16598971
  H  2.43513474  0.94273576 -0.37571554
  C  1.22145491 -0.75979551 -0.08717152
  H  2.02945160 -1.45462737 -0.23555197
  C -0.16638855 -1.28776720  0.15643440
  H -0.33994126 -2.20686879 -0.40301135
  H -0.29363998 -1.52765057  1.21537234
  C -1.15960871 -0.19998077 -0.25518495
  H -2.17729024 -0.45486480  0.02410449
  H -1.11970558 -0.06791965 -1.33589136
  C -0.73807311  1.11104876  0.40750984
  H -1.41130433  1.92731216  0.13977750
  H -0.74215570  1.00183150  1.49926687
