17
opt_min/./Product_8606_0_opt.xyz
  C  1.72339200  0.02321900  0.68657300
  H  2.71580542  0.42287657  0.83511573
  H  1.28716649 -0.41704153  1.57013722
  C  1.41768733 -0.55618856 -0.65557508
  H  2.16870788 -0.77734973 -1.39120415
  C  0.02762951 -1.18298211 -0.59302367
  H -0.09916650 -1.93778105  0.17944330
  H -0.34239602 -1.55386082 -1.54403498
  C -0.57480008  0.20449557 -0.25541450
  O -1.32897535  0.63876543 -1.36568444
  H -1.47370310  1.58868811 -1.29314545
  C -1.36952840  0.34604289  1.05218292
  H -1.66484774 -0.62863124  1.42967342
  H -2.27173172  0.92441217  0.86800205
  H -0.77660277  0.85325910  1.80869301
  C  0.84815149  0.78789075 -0.26083521
  H  1.09577562  1.76951288 -0.62907342
