12
opt_min/./Product_6033_0_opt.xyz
  C  0.01859100 -1.20688700 -0.04633600
  H -0.23353657 -1.54251806  0.98176886
  H  0.22705107 -2.09739703 -0.64458474
  C  1.20232275 -0.30209594 -0.03563505
  H  2.17638862 -0.74444388  0.10991823
  C  1.02551959  1.05079411 -0.12292128
  H  1.86820469  1.72368413 -0.19086854
  C -0.21639912  1.50187299  0.30662172
  C -1.36741368  0.62577728  0.05999134
  H -2.12839527  1.15713269 -0.51676730
  H -1.81186746  0.39416864  1.05033340
  O -1.08702524 -0.57814397 -0.63995993
