13
opt_min/./Product_9886_0_opt.xyz
  C -0.95825500 -0.74648400  0.73953900
  H -0.82149236 -1.80149429  0.55506722
  H -1.54483885 -0.50179545  1.61069609
  C  0.21352880  0.15601269  0.39711766
  O  1.40584709 -0.43753991 -0.08730918
  C  2.54751831  0.05029402  0.34748704
  O  2.71713298  0.95921935  1.10537825
  H  3.37149748 -0.51615377 -0.12146511
  H  0.39920366  1.02336736  1.02267870
  C -0.98672550  0.12749615 -0.44219858
  C -1.64637691  0.53704912 -1.49375028
  H -2.63879799  0.17884853 -1.71207495
  H -1.22692883  1.24658339 -2.18832334
