16
opt_min/./Reactant_11234_0_opt.xyz
  C -1.84965498  0.40279510 -0.31629772
  C -0.60663270 -0.47147169 -0.48679959
  O -0.22098270 -0.58628179 -1.84075574
  H -1.00776860 -0.56725748 -2.39114470
  C  0.59339305  0.10790102  0.29820570
  C  1.84082916 -0.77052964  0.15522420
  H  1.62212262 -1.77665708  0.49847257
  H  2.65849912 -0.36612736  0.74281350
  H  2.14086751 -0.81472127 -0.88743315
  C  0.88078819  1.43583713 -0.19045446
  N  1.10513169  2.48603127 -0.58147550
  H  0.31430785  0.18547443  1.35459370
  H -0.81157245 -1.48098992 -0.08843087
  H -1.69616648  1.35944729 -0.80673986
  H -2.05009159  0.58348937  0.73342042
  H -2.71948738 -0.08191933 -0.74951693
