11
opt_min/./Product_3275_0_opt.xyz
  C  1.23637616 -0.32462704 -0.18338065
  C -0.17434078  0.16373974  0.02549187
  C -0.52869785  1.47691679 -0.19431798
  O -0.99767623  2.47455211 -0.54863263
  C -1.41213883 -0.60434867 -0.32847938
  H -2.30718913 -0.03811513 -0.59475925
  N -1.08209014 -0.36070752  1.08082078
  H -0.62511996 -1.16471916  1.51282026
  H  1.85836829 -0.07543096  0.67564974
  H  1.66156256  0.12923107 -1.07374899
  H  1.20745451 -1.40411509 -0.31151975
