16
opt_min/./Product_8580_0_opt.xyz
  C  2.67616100 -0.32391900  0.07392900
  C  1.25240970  0.07185758 -0.09645051
  N  0.88590398  1.10702882 -0.76010745
  C -0.55059933  1.15500759 -0.73569333
  H -0.87926830  2.10338242 -0.31194234
  H -0.91990255  1.10418808 -1.76142627
  C -0.99078266 -0.03374160  0.07528098
  C -2.40794023 -0.35267426  0.37684769
  H -3.03168660 -0.20036588 -0.49971722
  H -2.50667187 -1.38350532  0.70287227
  H -2.78097859  0.29247676  1.16999742
  C  0.13151678 -0.67675615  0.44855427
  H  0.20120146 -1.57202735  1.03444807
  H  3.32044408  0.54610410  0.01834537
  H  2.81924765 -0.83302125  1.02332060
  H  2.95775157 -1.00959026 -0.72207977
