10
opt_min/./Product_848_1_opt.xyz
  C -1.31582600  0.07915800  0.51729400
  H -1.88766166  0.18297222  1.40671442
  C -1.13281125  0.38611277 -0.73241127
  H -1.41478372  0.90470759 -1.61547386
  C -0.10210830 -0.52468318 -0.12893857
  C  1.28459688 -0.00103553  0.20692300
  H  1.29684069  0.47176828  1.18826169
  H  2.00784871 -0.81169709  0.20852319
  H  1.60709229  0.74450900 -0.51975809
  H -0.12588631 -1.57895896 -0.38879894
