16
opt_min/./Product_5312_0_opt.xyz
  C  2.14511300  0.01073400  0.74458300
  C  1.03102926  0.23746309 -0.24365044
  H  1.07537105  1.20564516 -0.73079241
  C -0.34963051 -0.29799756  0.04314987
  C -1.53433798  0.49147357 -0.31513504
  C -2.69387395  0.44416537  0.31719854
  H -2.85093063 -0.19690812  1.16935724
  H -3.53317760  1.04561869  0.01446605
  H -1.40544170  1.14445002 -1.17043289
  H -0.46824297 -0.88645859  0.94712101
  C  0.49781299 -0.90410143 -1.04877264
  H  0.19892036 -0.72400547 -2.07115218
  H  0.92445270 -1.88231472 -0.88452295
  H  3.11437495  0.01607549  0.24546813
  H  2.02403469 -0.94873811  1.24408344
  H  2.14583004  0.79869240  1.49685293
