15
opt_min/./Product_10279_0_opt.xyz
  C  1.94889853 -0.51910681 -0.47696562
  C  0.55033001 -0.13896179 -0.05009858
  C -0.44449771 -1.06626640 -0.01362940
  C -1.85430383 -0.77828692  0.32743258
  H -2.01442727 -0.87453899  1.40274925
  H -2.10998886  0.24636300  0.04708997
  H -2.52430616 -1.47147183 -0.17686313
  H -0.21634797 -2.06271772 -0.36963941
  C  0.33591350  1.18943213  0.25412266
  C -0.33868110  2.31414930  0.38707546
  O -1.31973890  2.11802106 -0.40855698
  H -0.13313247  3.20904469  0.95776276
  H  2.40208155  0.28230708 -1.05500821
  H  1.93381394 -1.42644153 -1.07378537
  H  2.56890923 -0.69474663  0.40235957
