12
opt_min/./Product_1942_0_opt.xyz
  C -1.78342140  1.26746603 -0.83544644
  N -0.85562507  0.74143288  0.11044717
  C  0.39017974  0.88614988 -0.07956863
  C  1.33632278  0.38140630  0.86056389
  N  2.59556909  0.45971710  0.67474297
  C  3.73833805  0.80023215  0.64209228
  H  4.56531310  0.31358111  0.23204600
  H  0.97697203 -0.12829350  1.74099259
  H  0.80754301  1.40425537 -0.95871064
  H -2.40457138  0.44829616 -1.20323224
  H -2.43953593  1.97126681 -0.31950446
  H -1.30753900  1.77374147 -1.68848057
