12
opt_min/./Product_8192_0_opt.xyz
  O  1.17433720 -1.45154003 -0.45063904
  C  1.07993906 -0.05928572 -0.87444763
  C -0.38613357  0.31491387 -0.62944896
  C -0.82762772 -0.76293133  0.37416388
  C -0.00408913 -1.78736527  0.52515807
  H -1.77678737 -0.67588237  0.86732893
  C -0.51517175  1.63722699 -0.07984877
  N -0.62517787  2.67948551  0.37925545
  H -0.99246725  0.24782871 -1.54073796
  H  1.37923250 -0.00520539 -1.92221206
  H  1.73967477  0.56300501 -0.26231944
  H  1.99194050 -1.64675208  0.03269284
