13
opt_min/./Product_8826_0_opt.xyz
  C -1.48590800 -0.81809200 -0.30679900
  C -0.56307899  0.28362616  0.19953981
  H -1.15616934  1.19014094  0.38040709
  C  0.62021218  0.60980523 -0.65527602
  H  0.58759653  0.87770931 -1.68871468
  C  1.68684771  0.48020598  0.16688477
  O  2.98615604  0.67231434 -0.08405309
  H  3.48446062  0.49703955  0.72141034
  N  1.26099938  0.09328120  1.43957131
  N  0.02803007 -0.03704581  1.48123052
  H -0.91006855 -1.70356931 -0.56327734
  H -2.03121009 -0.48646084 -1.18560875
  H -2.19465334 -1.08805602  0.47122416
