13
opt_min/./Product_6240_0_opt.xyz
  O  1.17197500 -1.22996700  0.64847800
  C  1.25562552 -0.02828417  0.56917173
  N  0.47310877  0.75989848 -0.33812617
  H  0.95948760  1.54293933 -0.77743231
  C -0.52567568  0.00396364 -1.12538815
  H -0.20659472 -1.04158433 -1.17092053
  H -0.67052571  0.40432084 -2.12481327
  C -1.62107012  0.25499436 -0.09493882
  H -1.96150937 -0.64862988  0.41712156
  H -2.48994238  0.78654344 -0.48569183
  C -0.65324825  1.18693687  0.63351323
  H -0.38049636  0.89573408  1.65584860
  H  1.89658532  0.61397338  1.18837361
