11
opt_min/./Reactant_4751_0_opt.xyz
  N -0.95885489  1.82554809 -0.31423576
  C -0.48888071  0.74238242  0.35519416
  O -0.77721801  0.51884534  1.50367798
  C  0.45832603 -0.11295827 -0.49003522
  C  0.66957362 -1.42022358  0.09822759
  C  0.83442775 -2.49643936  0.59232994
  H  0.97816930 -3.43953258  1.02838411
  H  1.41470141  0.41786219 -0.55064281
  H  0.05060036 -0.22493781 -1.49895048
  H -0.75334300  2.00382272 -1.28053358
  H -1.58633491  2.44773505  0.16778910
