10
opt_min/./Product_326_0_opt.xyz
  O -1.43953300  1.12443500 -0.67691300
  C -1.43219783  0.04172336 -0.17350051
  C -0.20893126 -0.76402805  0.20519921
  N  0.98630852 -0.21740776 -0.35735954
  C  1.72426538  0.52630654  0.32486925
  H  1.54150267  0.78615993  1.37759946
  H  2.59746993  0.94825354 -0.14846216
  H -0.20317829 -0.80997551  1.30977506
  H -0.33271110 -1.77868638 -0.18199132
  H -2.37832435 -0.46680711  0.10504866
