17
opt_min/./Product_7739_0_opt.xyz
  C  1.93179000 -0.51790400 -0.00736700
  C  0.67536129  0.16207458  0.52361945
  H  0.81297100  0.41149262  1.57858180
  C  0.30228506  1.41967689 -0.21993189
  H  1.04351402  2.15490409 -0.47958785
  C -0.99089177  1.48824328 -0.46679792
  H -1.50659704  2.29133099 -0.97193026
  C -1.73516485  0.29742325  0.05092051
  H -2.29888303  0.55893268  0.95073590
  H -2.43585316 -0.11395775 -0.67422653
  C -0.60380534 -0.70730859  0.37879770
  O -0.40662523 -1.62757252 -0.66775130
  H -1.23084038 -2.09515871 -0.83733004
  H -0.82291546 -1.25537922  1.30997702
  H  2.81641470  0.03608344  0.28826989
  H  1.98986806 -1.52952493  0.38762219
  H  1.88722844 -0.58231405 -1.08879561
