9
opt_min/./Product_10340_0_opt.xyz
  C -1.07386900  0.19914500  0.00670800
  C  0.26015583 -0.31615029  0.50730753
  O  0.38219038 -1.02140213  1.48071682
  N  1.33252257  0.11379623 -0.21165249
  H  2.23896590 -0.25062134  0.02724263
  H  1.20784359  0.60883733 -1.07552959
  H -1.59600651 -0.60292211 -0.51091930
  H -1.68115319  0.48765116  0.85975725
  H -0.95900068  1.04195683 -0.66733752
