16
opt_min/./Product_1483_0_opt.xyz
  C  2.05084211 -0.34412823 -0.28117772
  C  0.87605836 -0.06076027  0.64558085
  C -0.31409296  0.50850383 -0.11465231
  H -0.02948380  1.44546743 -0.59667271
  C -1.05224670 -0.44180805 -1.02686613
  H -0.74350087 -0.97662880 -1.90813493
  C -2.19804174 -0.36580274 -0.36004715
  H -3.17435895 -0.79729460 -0.47190225
  C -1.66135809  0.59428585  0.66688223
  H -2.12347396  1.58082632  0.67396793
  H -1.61081937  0.21802084  1.68768210
  H  0.57002225 -0.98302545  1.14461587
  H  1.18004403  0.65201340  1.41633260
  H  2.87229522 -0.79540920  0.27008841
  H  1.74985757 -1.02749595 -1.07215842
  H  2.41025257  0.57167029 -0.74657385
