14
opt_min/./Reactant_9165_0_opt.xyz
  C -1.84383200 -0.46280900 -0.11023100
  N -0.42610169 -0.28602179  0.00122232
  C  0.51636926 -1.27217514  0.09459601
  H  0.21324914 -2.30088401  0.13850362
  C  1.75304220 -0.69681491  0.13588000
  H  2.69865538 -1.19600483  0.21805936
  C  1.56654735  0.69865856  0.04680820
  H  2.32543829  1.45786478  0.05125472
  C  0.21616544  0.90645277 -0.03608438
  O -0.52472993  2.04942776 -0.13427862
  H  0.07137728  2.80463163 -0.12550083
  H -2.35557164  0.24170746  0.55018409
  H -2.18076505 -0.27877697 -1.13371080
  H -2.10999778 -1.48086078  0.17242258
