13
opt_min/./Product_77_0_opt.xyz
  C -1.70986200  0.13443400  0.37072700
  C -0.46595727 -0.33131490 -0.39207863
  C  0.67410173  0.62760386 -0.21554359
  C  1.93201380  0.32742072  0.08071439
  O  2.45060684 -0.91441319  0.28444511
  H  1.80056835 -1.58028471  0.03208459
  H  2.70307264  1.07243057  0.20371605
  H  0.43274962  1.66977468 -0.35865324
  H -0.70993743 -0.40903885 -1.45849706
  H -0.19548187 -1.33203795 -0.04385065
  H -1.61125367 -0.09712540  1.42844517
  H -2.59996525 -0.35569578 -0.01522444
  H -1.83538653  1.20970369  0.26625598
