10
opt_min/./Product_488_0_opt.xyz
  C -1.10129850 -0.66341606  0.40473634
  C -0.01805935  0.25457016 -0.11090990
  C -0.39473358  1.50912642 -0.62248560
  N -0.71867998  2.51167343 -1.07773781
  C  1.26351035 -0.02360581 -0.05515722
  N  2.44446303 -0.19445644  0.11977573
  H  3.05904311 -0.64734555 -0.54309904
  H -0.90313501 -1.68383308  0.08591848
  H -1.16515673 -0.63366484  1.48837797
  H -2.05559193 -0.34319121 -0.01079116
