15
opt_min/./Product_6073_0_opt.xyz
  C  2.43529800  0.11779800 -0.37699400
  C  1.00039259  0.60189553 -0.23031751
  O  0.21640757 -0.50989750  0.14652880
  C -1.14363586 -0.39584537  0.19814690
  C -1.85945979 -1.49410104  0.43290803
  H -2.93039095 -1.44986368  0.49339339
  H -1.37851306 -2.44329061  0.54635707
  N -1.71553888  0.84744637 -0.05580857
  H -2.69275206  0.89089148  0.19479809
  H -1.19001302  1.65186917  0.25820904
  H  0.64415328  1.01564820 -1.18385662
  H  0.95274943  1.38932420  0.53988874
  H  3.07023586  0.92591316 -0.73681621
  H  2.80769042 -0.23155597  0.58388634
  H  2.46556100 -0.70877119 -1.08363688
