14
opt_min/./Product_9744_0_opt.xyz
  C -2.45232176  0.29198846  0.32779628
  C -1.28157441 -1.77222699 -6.77389130
  H -23.21801940  9.38046187 -2.37247035
  C -2.30196383 -0.97538793  7.84886591
  N  7.76522998  15.83453505 -4.43812196
  C -6.34047236  32.82467702 -5.43076747
  C -2.01961169 -8.28459759  11.38470353
  H  2.93200462 -2.55749429  16.41031895
  H  7.17182829  1.56089876  22.48257034
  C  4.66287199 -4.96863347  8.91050761
  H  34.47919491 -14.94204684  11.23790118
  H  11.23789251 -2.46496741  16.02388309
  H -29.24918430  4.93787487 -8.77207475
  H -21.90125539  9.92079248 -0.64188430
