14
opt_min/./Reactant_9744_0_opt.xyz
  C -0.33621067  1.39414565  0.03718064
  C  0.06806883 -0.07080974 -0.12754671
  C  0.90446834 -0.55417903  1.07540321
  C  2.25922366 -0.08427805  0.97189330
  N  3.33138750  0.29511429  0.86227839
  H  0.91552905 -1.64854643  1.10583901
  H  0.47277889 -0.18225125  2.00868890
  C -1.10447717 -0.91383823 -0.26428926
  C -2.07822790 -1.60294060 -0.35434432
  H -2.93106006 -2.21065082 -0.43150523
  H  0.67418685 -0.17042828 -1.03827711
  H -0.89400146  1.72807178 -0.83464409
  H -0.96709476  1.52092189  0.91756565
  H  0.55035118  2.01613783  0.14598665
