18
opt_min/./Product_11569_0_opt.xyz
  C  1.94697600 -0.85419600  0.22143600
  C  1.08495588  0.38603453  0.41992193
  C -0.01472380  0.47915760 -0.65264768
  N -0.88079640 -0.67951124 -0.64455837
  C -1.63512214 -0.89927401  0.58392196
  H -2.65771351 -1.19572072  0.36148298
  H -1.16449672 -1.70257979  1.15647870
  H -1.68385284 -0.01279378  1.21870040
  H -1.51020744 -0.62858264 -1.43613998
  C -0.75015933  1.80614382 -0.55990194
  O -1.93891323  1.94109000 -0.64474995
  H -0.07842048  2.68617407 -0.44942631
  H  0.48468282  0.50202887 -1.63299505
  H  1.70595827  1.28102748  0.36332728
  H  0.62975455  0.36026193  1.41032109
  H  2.50719426 -0.78606386 -0.70713951
  H  1.32041340 -1.73808954  0.17701691
  H  2.64819547 -0.95792878  1.04373732
