12
opt_min/./Product_5557_0_opt.xyz
  C  2.17931900  0.35515700 -0.08339200
  H  2.90272057 -0.19520337 -0.67787350
  H  2.08528619  1.41485227 -0.29632019
  O  2.00950928 -0.02492018  1.22195860
  C  0.96139318 -0.39428454  0.34888623
  C -0.23512074  0.40488001  0.37628657
  C -1.42693038 -0.25656158 -0.14702702
  O -2.53597590  0.57323780 -0.34858339
  H -2.36970610  1.39796699  0.12685588
  H -1.68658758 -1.04175221  0.59136921
  H -1.24138612 -0.80054171 -1.08881851
  H  0.94468649 -1.46604613  0.11660895
