15
opt_min/./Product_10484_0_opt.xyz
  C -1.37242000 -1.31209500  0.00172100
  C -0.68836831 -0.08000426  0.57908150
  H -0.60941012 -0.18299099  1.66990460
  C -1.43480322  1.23370476  0.34179154
  C -0.49514626  2.03757057 -0.18239391
  H -0.55386575  3.06307180 -0.49845341
  N  0.77787856  1.38681540 -0.35185677
  H  1.61140191  1.82331250 -0.72616789
  C  0.70314001  0.14988469  0.05360447
  N  1.73172706 -0.73163506  0.06864769
  H  2.54516227 -0.55230697 -0.49870755
  H  1.48992563 -1.70109133  0.18705985
  H -2.35888741 -1.40626287  0.44548520
  H -0.81036191 -2.22607958  0.20208931
  H -1.49513313 -1.20159403 -1.07350554
