11
opt_min/./Product_4045_0_opt.xyz
  O -0.50825100  1.09976500 -1.29534700
  C -0.28407000  0.18187285 -0.25150779
  C  1.16104253  0.14843692  0.13893317
  N  1.88423309 -0.81854000 -0.18862463
  H  2.86044314 -0.76331107  0.09906671
  H  1.49146223  1.03582479  0.70465354
  C -1.34496278 -0.10300120  0.75237359
  H -1.86581551  0.28514588  1.59504976
  C -1.15282276 -1.03463580 -0.14275947
  H -1.42418658 -1.97759375 -0.54875727
  H -0.94420682  1.89415362 -0.96286937
