11
opt_min/./Product_1681_0_opt.xyz
  O  2.34463500  1.25014200  0.22863500
  C  1.49531265  0.56546208  0.92920972
  C  0.33204774  0.04872292  0.18899902
  O -0.83182136  0.63439881  0.58725983
  C -2.04272920  0.05151335  0.14944578
  H -2.83553554  0.63381989  0.61464579
  H -2.13968290  0.10732453 -0.94134847
  H -2.11335083 -0.99293059  0.46935141
  N  0.51111084 -0.95885627 -0.54423657
  H -0.32262038 -1.42829503 -0.88641569
  H  3.12617324  1.51027776  0.75769004
