13
opt_min/./Product_10859_0_opt.xyz
  C  2.18198200  0.13425800 -0.10542300
  C  0.86615727 -0.00143826 -0.09200334
  C -0.12943994  0.86713127  0.63556659
  H  0.05442235  0.91545502  1.70739391
  H -0.11699319  1.89081753  0.25956243
  C -1.45916116  0.22199783  0.33185836
  O -2.54335753  0.55676412  0.71623528
  C -1.16066423 -0.94842111 -0.58674514
  H -1.66895722 -0.82825553 -1.54975488
  H -1.50255573 -1.88950296 -0.14095295
  O  0.23296160 -0.99868511 -0.78570418
  H  2.78588579 -0.55145802 -0.67157042
  H  2.66657240  0.92174297  0.43585906
