10
opt_min/./Product_4803_0_opt.xyz
  O  1.42939500 -0.71018500  1.65603900
  C  1.29779656 -0.33877274  0.52271517
  N  0.81637752  0.85055992  0.09020320
  C -0.34299064  1.17007832 -0.27046131
  C -1.45738890  0.20519098 -0.27432889
  N -1.15953338 -1.00181563 -0.09059248
  H -1.92203325 -1.67466741 -0.09582358
  H -2.45545419  0.61904974 -0.45344025
  H -0.52780391  2.18249788 -0.61541368
  H  1.75285692 -0.88065504 -0.33852512
