17
opt_min/./Product_10176_0_opt.xyz
  C  2.23989100  0.20624300  0.21697700
  C  1.03073510  0.08913601  1.15364874
  C -0.22734517 -0.22965768  0.44209342
  C -0.56580922 -1.38722351 -0.44436763
  H  0.20263311 -1.68080313 -1.16095535
  H -0.90844212 -2.27690790  0.08403747
  C -1.68511149 -0.50131161 -1.02835321
  H -1.55111208 -0.23304924 -2.07285132
  H -2.70033376 -0.85572096 -0.86369007
  C -1.24251460  0.60001589 -0.07012752
  C -1.32123262  1.93586581 -0.14473738
  H -1.15374686  2.53605792  0.74627085
  H  1.21573854 -0.71865926  1.87051683
  H  0.90963640  1.02112064  1.70927696
  H  2.09022169  1.03079165 -0.47652028
  H  3.14160964  0.39955499  0.79275258
  H  2.37669887 -0.71014966 -0.34909733
