14
opt_min/./Product_11717_0_opt.xyz
  C -1.05953500  1.26898300  0.98514900
  C -0.00388024  0.34973220  0.44345227
  C  1.27469700  0.27189442  0.96036661
  C  2.08402717 -0.62984686  0.24582240
  O  3.17695872 -1.10693471  0.42436692
  H  1.46410662 -0.89007742 -0.71141433
  H  1.64409141  0.84892282  1.78890715
  C -0.25648860 -0.32251800 -0.73556518
  N -1.13705619 -1.20806003 -1.09053212
  H -1.61203259 -1.83483547 -0.43922625
  H -1.25908021 -1.43414019 -2.06755153
  H -1.67181847  0.72008347  1.70224429
  H -1.71091460  1.62784493  0.19370243
  H -0.60605640  2.11129215  1.49733071
