13
opt_min/./Product_3596_0_opt.xyz
  C -1.10053200  0.81727900 -0.28457600
  H -1.32106783  1.69317684  0.30621000
  H -1.37669290  0.90981054 -1.32576823
  C  0.08552985 -0.00359131  0.04384313
  C -1.25591012 -0.54924059  0.34804863
  H -1.56232635 -0.60115418  1.38331712
  H -1.64863678 -1.35002000 -0.26112225
  C  1.33030686 -0.45030841 -0.60771845
  H  1.53293205 -1.50695163 -0.69816508
  H  1.71274983  0.14029630 -1.42838622
  C  1.35870437  0.17540855  0.77320490
  H  1.77780971  1.16467660  0.88073776
  H  1.55772389 -0.47019114  1.61744683
