9
opt_min/./Product_11624_1_opt.xyz
  C  1.11071100 -0.60116500 -0.32271300
  H  2.11201503 -0.98069657 -0.30641345
  N  0.07368116 -1.38480451 -0.12295123
  N -0.98969249 -0.59451438 -0.21155091
  H -1.91586837 -0.97004985 -0.09285681
  C -0.66325729  0.68949191 -0.46541922
  H -1.38657897  1.46928377 -0.57028508
  C  0.71024712  0.72794641 -0.54599046
  H  1.32008785  1.58499044 -0.73641288
