15
opt_min/./Product_3447_0_opt.xyz
  C  1.90875100  0.26197300  0.20385500
  C  0.74229056  0.57657230  1.03959944
  C -0.55095784 -0.02507240  0.65171207
  C -0.61249532 -1.23679108 -0.27679534
  H -0.19332519 -1.01550542 -1.25751771
  H -0.06116362 -2.07159723  0.15475588
  H -1.64814886 -1.54250563 -0.41728490
  C -1.20635095  1.21045535 -0.00919555
  H -0.72787070  1.42033940 -0.96402526
  H -2.26230490  1.01067691 -0.17818008
  H -1.10857313  2.08530859  0.63050421
  H -1.11720005 -0.24891288  1.56589502
  H  2.61364213  1.09482134  0.18701904
  H  1.74139879 -0.12089349 -0.80803383
  H  2.39000764 -0.53603900  0.78473145
