17
opt_min/./Product_10655_0_opt.xyz
  C  2.39262300  0.53363100  0.33769600
  O  1.09943323  0.11727876  0.70003343
  C  0.21689503 -0.11826348 -0.36174893
  H  0.73944612 -0.00662360 -1.31385283
  C -0.57917216 -1.43148858 -0.22538144
  H -0.33598218 -1.96066601  0.68779023
  H -0.47010570 -2.09673312 -1.07470440
  C -1.91184428 -0.66055606 -0.17736191
  H -2.58991724 -0.88627099 -0.99425754
  H -2.44546458 -0.75979274  0.76319184
  C -1.14898250  0.67860890 -0.31773787
  C -1.10752208  1.70192079  0.70175290
  H -1.75319906  1.43581502  1.55391851
  H -1.31363728  1.19281794 -1.26678814
  H  2.37027471  1.48866030 -0.19628309
  H  2.93520727  0.65666245  1.26878170
  H  2.89646505 -0.21601922 -0.28165253
