14
opt_min/./Reactant_10163_0_opt.xyz
  N  2.38356900  0.57526100 -0.03216200
  C  1.93809509 -0.62824463 -0.45108453
  O  2.59763948 -1.39239696 -1.11433001
  C  0.52701545 -0.94954499  0.04701236
  C -0.45854289  0.10988338 -0.39260953
  H -0.57959960  0.19776024 -1.47003626
  C -1.57182382  0.52288519  0.46375725
  H -1.69150371  0.07738433  1.44422365
  H -2.48340359  0.89941129  0.01343250
  O -0.44142224  1.33162121  0.29487114
  H  0.23134703 -1.91978845 -0.35294843
  H  0.54847321 -0.99957978  1.13691582
  H  1.74839538  1.23862463  0.38183958
  H  3.27057068  0.90324243 -0.37851872
