18
opt_min/./Product_6814_0_opt.xyz
  C -2.27203500  0.13689700 -0.11814600
  C -1.00422257 -0.56550848  0.35767716
  H -1.26757333 -1.30699388  1.12132853
  C  0.09694588  0.38777879  0.83074394
  H -0.28267354  1.38451154  1.04682177
  H  0.57307577 -0.00499759  1.73029006
  C  1.10859291  0.40603938 -0.33992729
  C  2.56302544  0.55097934  0.09553891
  H  2.63227851  1.15309312  0.99931255
  H  2.99544185 -0.42746031  0.29680855
  H  3.15360365  1.02652750 -0.68286426
  H  0.85567828  1.22707757 -1.02585164
  C  0.82744804 -0.83857076 -1.15545906
  N -0.33617542 -1.25310069 -0.75798605
  H -0.74846084 -2.09933124 -1.12595386
  H -2.82174753  0.53533046  0.73120898
  H -2.91439487 -0.56400886 -0.64937856
  H -2.02268072  0.95436609 -0.79117242
