18
opt_min/./Reactant_6814_0_opt.xyz
  C  1.13256562  1.04917163  1.46277561
  C  0.40953222 -0.28989920  1.41758198
  C -0.68329373 -0.36376172  0.35243639
  C -0.15552320 -0.33147097 -1.09273298
  C -1.18053457 -0.91925364 -2.06845377
  H -2.13646260 -0.40392137 -1.96993324
  H -0.84424912 -0.80980362 -3.09936890
  H -1.32912839 -1.97643109 -1.85565325
  C  0.14657959  1.01870536 -1.51470502
  N  0.36622715  2.06907008 -1.90947529
  H  0.77675677 -0.91050715 -1.15246220
  H -1.23467242 -1.30002877  0.48286840
  H -1.38603227  0.46348476  0.49572269
  H  1.13540475 -1.09163906  1.24134926
  H -0.05269174 -0.47449657  2.39257258
  H  1.90629182  1.03525514  2.22937615
  H  0.43319164  1.85101172  1.68927768
  H  1.60696280  1.27270727  0.50897683
