15
opt_min/./Product_11799_0_opt.xyz
  C -1.65599400 -0.05797600  1.01869700
  N -1.73470387 -0.55789202 -0.34531572
  C -0.83161663 -0.90242907 -1.22396920
  N  0.50571186 -0.65965002 -0.90313115
  C  1.09964407  0.44567785 -0.35114201
  O  0.49820841  1.40624338  0.07643813
  C  2.61736412  0.36953908 -0.33559584
  H  2.92775997 -0.09521611  0.59872290
  H  3.01182527 -0.21182327 -1.16410644
  H  3.02337257  1.37609197 -0.36679490
  H  1.11843991 -1.24761114 -1.45193203
  H -2.68643515 -0.66908762 -0.66905711
  H -1.78613330  1.02402895  1.04389687
  H -2.43917571 -0.53431050  1.60955574
  H -0.68744118 -0.29811962  1.44667965
