15
opt_min/./Product_11520_0_opt.xyz
  C  1.13874200  2.12196300  0.15795400
  C  1.09172332  0.81629549  0.04255096
  N  1.44135788 -0.38270130  0.53662084
  H  1.90352943 -0.89602218  1.25067694
  C  0.66619153 -0.41038300 -0.67008699
  C -0.76058389 -0.88728400 -0.63657401
  H -1.01109581 -1.53895839 -1.47188122
  C -1.46090896 -1.13116968  0.64908252
  H -2.16390454 -1.95502272  0.71263026
  H -0.93764921 -0.91114620  1.57033771
  N -1.76431066  0.03123992 -0.14756347
  H -2.65092091 -0.01332574 -0.64116628
  H  1.18849890 -0.70068390 -1.58214824
  H  0.65470945  2.75580368 -0.56002972
  H  1.64503372  2.59294382  0.98148171
