17
opt_min/./Product_10884_0_opt.xyz
  C -1.71707000 -0.84555700  0.12247600
  C -0.77393857  0.15225062 -0.55029546
  O -1.27401229  1.47301993 -0.44073849
  H -1.24511076  1.72193938  0.49087674
  C  0.64999800  0.06265630  0.00428119
  C  1.60742420  1.04417994 -0.65548736
  H  1.05933810  1.91386043 -1.00937614
  H  2.10514672  0.58388072 -1.50721915
  H  2.36912491  1.37198056  0.04835754
  C  1.17630055 -1.24468641  0.52325788
  H  1.54976132 -2.19702253  0.23923862
  C  0.87836862 -0.35781586  1.42871231
  H  0.85369436 -0.11091928  2.46261505
  H -0.75097629 -0.03703773 -1.62961488
  H -1.37373313 -1.86184712 -0.04326519
  H -1.75680306 -0.65998365  1.19435413
  H -2.71605872 -0.73622697 -0.29074760
