16
opt_min/./Reactant_10738_0_opt.xyz
  N  2.79264500 -0.26248400 -0.67998400
  C  1.76641376 -0.44985974  0.19266925
  O  1.90520530 -1.08737417  1.21154229
  C  0.47421621  0.21464816 -0.23513752
  C -0.64879498 -0.04781237  0.76016388
  C -1.97288193  0.52668553  0.26102070
  O -2.32571344 -0.06293826 -0.97967909
  H -3.18319620 -0.48781595 -0.90848267
  H -2.74658663  0.35422623  1.01596552
  H -1.87878419  1.60951764  0.10522913
  H -0.74823520 -1.12546923  0.89800030
  H -0.40123317  0.39260681  1.72780136
  H  0.64210654  1.28961355 -0.34194216
  H  0.18699246 -0.18491168 -1.21084627
  H  3.71359747 -0.58258291 -0.43072629
  H  2.72904606  0.40080635 -1.43259656
