13
opt_min/./Product_3538_0_opt.xyz
  C -1.31577800  0.62199500  0.05457800
  C -0.70468395 -0.76482168  0.20638584
  C  0.81473580 -0.75027247  0.15871002
  H  1.25013005 -1.73977758  0.28562862
  C  1.55855999  0.25622598 -0.66976282
  H  1.82639693  0.56176062 -1.65106854
  C  1.60152403  0.44289102  0.61576120
  H  1.93349828  0.98966072  1.46362209
  H -1.07538140 -1.41428576 -0.59162773
  H -1.02116864 -1.20303531  1.15649903
  H -0.97295030  1.28390565  0.84621071
  H -2.40075623  0.56497471  0.09405157
  H -1.02938502  1.06209264 -0.89834070
