14
opt_min/./Product_2107_0_opt.xyz
  C  2.08422200  0.27630500  0.21187300
  O  0.92608955  1.01980821 -0.09876627
  C -0.28022774  0.45749937  0.00396155
  C -0.43265974 -0.94916345  0.46010991
  H -0.02438039 -1.63835259 -0.28015336
  H -1.49989415 -1.13476438  0.56757299
  H  0.08264433 -1.11708640  1.40533637
  C -1.36733593  1.21274857 -0.37010293
  C -2.64563021  0.65607356 -0.24744023
  H -3.40116995  1.33141432 -0.68949181
  H -1.13501174  2.22239061 -0.71834989
  H  2.92675595  0.92753858 -0.01573068
  H  2.11571479  0.00180420  1.26963795
  H  2.14871984 -0.62956472 -0.39789093
