18
opt_min/./Product_10242_0_opt.xyz
  C  2.06026900 -0.72135600 -0.18277900
  C  0.75347503 -0.16504422  0.34838260
  H  0.50844180 -0.62297822  1.31580685
  C  0.60343080  1.36452613  0.35855948
  H  1.36274626  1.91727717 -0.18316016
  H  0.45859051  1.78922377  1.35098452
  C -0.72008639  1.14560676 -0.40350001
  O -1.86703470  1.28436284  0.39933203
  H -2.21112865  2.17957232  0.33269791
  H -0.83390770  1.69630641 -1.35061719
  N -0.33710060 -0.23195952 -0.62509369
  C -1.30948236 -1.29116533 -0.59443773
  H -1.91210744 -1.29311724  0.32613558
  H -1.99480380 -1.16102638 -1.43507751
  H -0.78108628 -2.23548156 -0.69736491
  H  2.00039306 -1.80161471 -0.31477946
  H  2.86972868 -0.53059973  0.52205839
  H  2.29755067 -0.27194693 -1.14225254
