12
opt_min/./Product_7052_1_opt.xyz
  C  1.75519000 -0.20135200  0.02567700
  O  2.59252198  0.63456418 -0.16875861
  C  0.39413353  0.08731606  0.59204495
  H  0.49556618  0.65858039  1.52230052
  C -0.60380613  0.70014776 -0.41803913
  H -0.21986113  0.75940044 -1.43169009
  H -1.04070241  1.64679322 -0.12180866
  C -1.43944283 -0.55006143 -0.11914311
  H -2.37129532 -0.36130922  0.41823631
  H -1.62228036 -1.21575827 -0.96348996
  O -0.43146601 -1.06531773  0.75759968
  H  1.92122545 -1.26254153 -0.23537964
