8
opt_min/./Reactant_4650_0_opt.xyz
  O -0.46691693 -1.91509803 -0.85643798
  C -0.70456661 -1.49844040  0.23859533
  C -0.28355153 -0.11926591  0.75815256
  O -0.49342734  0.20652974  1.90119111
  C  0.36805314  0.69225059 -0.22166717
  C  0.92811746  1.37538527 -1.03762290
  H  1.40965644  1.97978638 -1.75195860
  H -1.28172712 -2.06002742  0.99615893
