17
opt_min/./Product_9547_0_opt.xyz
  C  2.67887100 -0.40628600  0.43878000
  O  1.64446466 -1.14913083  1.13522877
  C  0.38861604 -1.03908785  0.97403821
  C -0.17032501 -0.05185565  0.00272739
  H  0.54973271  0.43710126 -0.66219455
  C -1.08960274  0.96532485  0.73206631
  H -1.16156205  0.78207084  1.80032653
  H -0.81685321  2.00354628  0.55826074
  C -2.29709783  0.47048001 -0.07559903
  H -2.70176328  1.20599569 -0.76647452
  H -3.10622044  0.06959541  0.52821942
  C -1.41420327 -0.59641333 -0.73862269
  H -1.34666227 -0.53888824 -1.82262619
  H -1.66401752 -1.61350195 -0.44915781
  H  2.60946815 -0.56204730 -0.63736241
  H  2.60414587  0.65535617  0.67116561
  H  3.62083980 -0.80147011  0.80933109
