11
opt_min/./Product_11760_0_opt.xyz
  C  3.42117700 -0.02260700 -0.00440100
  C  2.17252377  0.01720564  0.00501947
  C  0.80607612  0.06419831  0.00469238
  C -0.09637974  1.17499110  0.01083027
  H  0.20288397  2.20221364  0.01977313
  C -1.36077017  0.67959811  0.00266936
  H -2.29707746  1.20221691  0.00363597
  N -1.31790057 -0.67386165 -0.00699700
  H -2.07494572 -1.33441764 -0.01512631
  N  0.00495470 -1.04334125 -0.00527070
  H  0.30375213 -2.00476587 -0.01254612
