13
opt_min/./Product_5209_0_opt.xyz
  C  1.69195800  0.66200900 -0.48358900
  C  0.31275066  0.17557175 -0.22220758
  C -0.82365282  0.11763675 -0.91955621
  H -1.10308590  0.41677906 -1.91198862
  C -1.60747318 -0.52850943  0.19146282
  H -1.96532934 -1.53533642 -0.01490593
  H -2.42543329  0.06339476  0.59758545
  C -0.28896277 -0.46212916  1.00792992
  H  0.12584973 -1.42961985  1.28400979
  H -0.32480672  0.17420283  1.88975816
  H  2.14671139  0.09691290 -1.29681884
  H  1.67722308  1.71118545 -0.77918139
  H  2.31211055  0.55886847  0.40324018
