9
opt_min/./Product_2106_0_opt.xyz
  C -1.55261998  0.32671885 -1.43978007
  O -0.32885397  0.26073472 -1.04054378
  C  0.09037619 -0.14408775  0.11959986
  C  1.45473692 -0.15616672  0.39616765
  C  2.63719300 -0.17210130  0.62885147
  H  3.66947687 -0.18780078  0.82745907
  H -0.63008120 -0.48680025  0.85928772
  H -1.70972609  0.71202286 -2.42825304
  H -2.37039654  0.00127807 -0.81191934
