12
opt_min/./Product_6141_1_opt.xyz
  O  2.22582800  0.23601200 -0.37195900
  C  0.98258976 -0.00581575  0.19411432
  H  1.00639961 -0.50660727  1.16052674
  C -0.11742351 -0.35608255 -0.77379509
  H  0.04591576 -0.60756659 -1.80306472
  C -1.36382619 -0.63843028  0.05214043
  H -1.31325175 -1.46141733  0.76755974
  H -2.27791668 -0.70562625 -0.53927411
  O -1.27218310  0.64641221  0.69310569
  C -0.12790515  0.97877298 -0.07236793
  H  0.02262632  1.98226892 -0.43096917
  H  2.66768874  0.95143563  0.10067481
