11
opt_min/./Product_1771_0_opt.xyz
  N -1.09692346  0.71352823  0.26995899
  C -140.18132713 -34.27525378  74.51901330
  C  108.71827500  44.24584447 -74.20197798
  N -146.82788145 -78.14635508  83.83431083
  H  107.79668764  46.16155977 -73.81169373
  H  9.70218904 -10.68878940 -55.98147779
  C  11.98348932 -119.10939530  32.10804827
  N -45.94212897  78.51517556 -21.63635620
  H -19.49891986  32.56437599 -15.96748667
  H -9.58879039 -68.52526988  75.82228787
  H -97.38081150 -68.92411856  20.58196768
