15
opt_min/./Product_8908_0_opt.xyz
  C  1.78971000 -0.52125400 -0.00786400
  N  0.36088076 -0.37277026 -0.01200769
  C -0.51440900 -1.34907719  0.08222932
  H -0.23278007 -2.37816632  0.19803200
  C -1.86186725 -0.74045887  0.04084180
  H -2.44985804 -0.98240826  0.92841763
  H -2.43833362 -1.09971253 -0.81346447
  C -1.65422733  0.75856554 -0.07345665
  C -0.28372846  0.86558471 -0.09613490
  N  0.53719606  1.99599041 -0.28644873
  H -0.04140920  2.81799782 -0.41775309
  H  1.19228410  2.15448408  0.47536897
  H  2.21225562  0.08109021 -0.81478517
  H  2.20838496 -0.17657103  0.94163761
  H  2.05777922 -1.56861178 -0.15017462
