10
opt_min/./Product_7843_0_opt.xyz
  C -1.24032100 -0.36181100  0.38245000
  C -0.13534358  0.64370620  0.40449696
  C  1.10179116  0.39130266  0.00289506
  O  1.49379610 -0.83491941 -0.47130994
  H  2.44709489 -0.83857734 -0.59830314
  H  1.86680045  1.15876995  0.03221355
  H -0.36872392  1.63735572  0.75218654
  H -1.89048583 -0.23906698  1.24529486
  H -0.82530363 -1.36670859  0.37775531
  H -1.84405939 -0.24376539 -0.51803228
