10
opt_min/./Product_6096_0_opt.xyz
  C  1.08964900 -0.06226700 -0.04604400
  C -0.41574631 -0.14793675  0.47608022
  C -0.66961049  0.57797866 -0.73463422
  H -0.51962393  1.65738748 -0.57785134
  O -0.86080206 -1.46450319  0.54148889
  H -1.18079386 -1.72035803 -0.33172981
  H -0.47878641  0.26938071  1.48885473
  H  1.58637872 -0.88671811  0.45498056
  H  1.16209104 -0.22652008 -1.12449206
  H  1.56758599  0.87422682  0.22323725
