12
opt_min/./Product_3844_0_opt.xyz
  N  2.31014601 -1.65163000 -1.79305299
  C  1.48022837 -1.01876608 -1.32636813
  C  0.44355656 -0.23080309 -0.71875208
  C  0.17591960 -0.67771912  0.71262991
  N -0.51276820 -0.10071287  1.57943501
  C -1.18671793  1.14140641  1.36755369
  H -2.17083600  1.06280092  1.82872089
  H -0.63584810  1.91693701  1.90199847
  H -1.29817887  1.44190444  0.31943526
  H  0.63542178 -1.61505177  1.00535015
  H -0.47057263 -0.33434480 -1.31280991
  H  0.74622722  0.82119366 -0.73237204
