16
opt_min/./Product_4477_0_opt.xyz
  C  2.92607400  0.51112400 -0.16551300
  C  1.66960724  0.08141500 -0.10174714
  C  0.70100640  0.31478284 -1.14720720
  C -0.57222425 -0.08474570 -1.16787320
  C -1.31049056 -0.84697960 -0.11506902
  C -2.48541891 -0.03467339  0.42613866
  H -3.20766775  0.17154778 -0.35937393
  H -2.98503970 -0.57659862  1.22437553
  H -2.13322609  0.91691997  0.81941461
  H -0.64270137 -1.11870573  0.70369111
  H -1.68855655 -1.77247986 -0.55729673
  H -1.18093664  0.17438322 -2.02474497
  H  1.07988059  0.87202130 -1.99416272
  H  1.33880751 -0.46883707  0.76953221
  H  3.63293031  0.32915786  0.62551783
  H  3.29214823  1.06250540 -1.01668150
