12
opt_min/./Product_10540_0_opt.xyz
  O  2.65565000  1.44388800  0.03352800
  C  2.00298461  0.41068735  0.12323775
  C  0.61611246  0.27545423  0.01451945
  C -0.24192655 -0.97531823  0.12100570
  H -0.01798711 -1.72692145 -0.65183072
  H -0.17752419 -1.46979096  1.10278197
  N -1.55175905 -0.37291010 -0.08513012
  H -2.41605072 -0.88112710 -0.08672735
  C -1.42392681  0.95901503 -0.26794492
  H -2.23147834  1.64282182 -0.44075043
  O -0.20894832  1.33969061 -0.21460098
  H  2.50304297 -0.56453390  0.31055192
