11
opt_min/./Product_6664_1_opt.xyz
  C -0.07806700 -0.41182400 -0.51508400
  H -0.16615867 -0.87798229 -1.47669413
  C -1.22272131 -0.09183866  0.43853805
  H -2.18805971  0.05278631 -0.05120314
  H -1.33716945 -0.73654378  1.31205342
  O -0.64543013  1.18101459  0.76468286
  C  0.43737390  0.94548828 -0.11930816
  H  0.85209088  1.76231734 -0.68438938
  C  1.19243371 -0.28409797  0.28190969
  H  1.18843371 -0.58880228  1.31683349
  H  2.11249330 -0.46934837 -0.25001916
