10
opt_min/./Product_2217_0_opt.xyz
  C  2.30777609  0.10607867  0.03657580
  C  1.01349798  0.01067224 -0.03440728
  C -0.26553983 -0.05661647 -0.08399677
  C -1.61069450  0.34310271  0.40572071
  H -1.94046892 -0.02708646  1.37536092
  H -2.00880774  1.31939611  0.13687612
  N -1.37588077 -0.59884806 -0.63182133
  H -1.77010305 -1.25793894 -1.25621607
  H  2.87181295  0.80666278 -0.56560074
  H  2.90312375 -0.53518390  0.67244199
