13
opt_min/./Product_27_0_opt.xyz
  C  0.52803900  0.76239800 -0.03149400
  H  1.08323130  1.60568380 -0.40608292
  C  1.16970734 -0.33224452  0.76057204
  H  0.71994710 -0.65393093  1.68929714
  H  2.24993060 -0.36383220  0.76116722
  C  0.48961816 -0.66162486 -0.53173034
  H  0.99721182 -1.11131681 -1.36793155
  C -1.01456707 -0.72164859 -0.29140660
  H -1.59771808 -0.84868115 -1.20026861
  H -1.33265273 -1.46173972  0.44305854
  C -0.97502463  0.73730599  0.21106908
  H -1.28822241  0.89052921  1.24337704
  H -1.52437026  1.42214479 -0.43211851
