11
opt_min/./Reactant_1466_0_opt.xyz
  C -1.10706599  0.70714901  0.03093415
  C -0.46778470 -0.65783850  0.04514049
  H -1.03038631 -1.42041634  0.57651688
  O  0.19289385 -1.10778633 -1.09682547
  C  1.00461202 -0.81800153  0.01487315
  C  1.84448136  0.33670953 -0.06900490
  N  2.51579779  1.25889346 -0.14296226
  H  1.45486107 -1.67910084  0.49852953
  H -0.65342378  1.33398414 -0.73206823
  H -2.16907652  0.62281397 -0.17234743
  H -0.97724987  1.18295033  0.99885265
