7
opt_min/./Product_7908_1_opt.xyz
  C  0.89229943 -0.27803620  0.57042981
  N  14.12714261 -6.80055392 -2.87369790
  H  4.32159042 -7.40954622 -3.94231942
  N  3.14312591 -15.83948085 -12.61124761
  C  15.75782561  5.73272800 -14.55863221
  O  10.59995275 -5.12702889  10.17895713
  H  15.63173979  22.57217334 -12.58160845
