15
opt_min/./Product_11153_0_opt.xyz
  C -2.22643000  0.62642900 -0.18992900
  C -1.41973814 -0.30592210  0.71863424
  C -0.00101253 -0.38836123  0.28084005
  C  0.68205929 -1.55127327 -0.16803921
  C  1.92181248 -1.02317509 -0.43677971
  H  2.78012341 -1.54297696 -0.82698220
  C  1.99333693  0.44745523 -0.16580278
  H  2.21024245  1.00670199 -1.08268167
  H  2.70888423  0.75928951  0.59969419
  O  0.68953480  0.75350620  0.28485896
  H -1.44281069  0.07797037  1.74330817
  H -1.84345055 -1.31047008  0.71346840
  H -2.04158682  1.66930381  0.06296032
  H -3.28958301  0.42186923 -0.08481670
  H -1.94879047  0.47590800 -1.23178350
