12
opt_min/./Product_10588_0_opt.xyz
  O -1.39056778 -0.39256290 -1.42744324
  C -1.31030864 -0.63232293 -0.05463044
  H -1.90398709 -1.39584950  0.41590589
  C -0.14911057 -0.78381994 -0.93645941
  H  0.34272784 -1.65735934 -1.33115386
  C  0.55483543  0.43632657 -0.28986464
  C  1.68160987  0.00754113  0.48740013
  N  2.55879661 -0.35741379  1.12410879
  H  0.80790841  1.25702899 -0.96002307
  C -0.72104999  0.63196946  0.58508248
  H -0.55952361  0.59895353  1.65693566
  H -1.28239986  1.52566536  0.31144762
