8
opt_min/./Product_1035_0_opt.xyz
  C -1.33347700  0.41659303 -0.03079155
  H -2.04684985  1.20975869 -0.08427367
  N -1.43405326 -0.88471737  0.05370711
  N -0.03071105 -0.92360485  0.05983616
  N  1.35975573 -1.10808234  0.07537418
  C  1.46894291  0.19297182 -0.00907808
  H  2.31109494  0.84744453 -0.04957216
  N  0.07753204  0.41557393 -0.02710801
