10
opt_min/./Product_3197_0_opt.xyz
  O  1.64555600  0.19092900 -0.11863300
  C  0.39342101  0.10156520  0.45607714
  H  0.44100800  0.09428706  1.54902542
  C -0.77376879  0.91659196 -0.15691390
  H -0.96218309  1.97948566 -0.24333357
  O -0.74812383  0.06248480 -1.31915711
  C -0.71837398 -0.78140317 -0.15976436
  H -0.85924295 -1.85673374 -0.21743246
  O -1.69833323  0.03447383  0.50117067
  H  1.86190898 -0.62416705 -0.58329838
