8
opt_min/./Product_11396_1_opt.xyz
  N -0.80419400  0.71097000  0.19758500
  C  0.18764073 -0.19024898 -0.02503402
  N  1.44818838  0.23002921  0.46888588
  O  2.46083380 -0.02999779 -0.13205775
  N  0.11280669 -1.38073030 -0.46037344
  H -0.82548960 -1.74665911 -0.60144604
  H -1.76194436  0.39964059  0.19447765
  H -0.59489424  1.55148643  0.70820466
