17
opt_min/./Product_11927_0_opt.xyz
  C  1.15689200 -1.04741800 -0.97490600
  C  0.79331000  0.07075880 -0.02142350
  H  1.70776026  0.57594620  0.29992079
  C -0.31678048  1.09427675 -0.38053794
  H -0.15199824  1.90577957 -1.08718476
  C -0.43250500  1.33371837  1.14159325
  H  0.36705613  1.93961317  1.56084811
  H -1.39922116  1.67032379  1.50849908
  C -0.15966683 -0.18659322  1.17735090
  H  0.16960669 -0.69772152  2.07950573
  C -1.39605250 -0.67941653  0.44382885
  H -2.00966094 -1.51487191  0.71815702
  C -1.49889593  0.16221118 -0.57685763
  H -2.22241276  0.20215203 -1.36728542
  H  1.68867778 -0.64778483 -1.83437729
  H  0.26882387 -1.56740308 -1.32534667
  H  1.80173162 -1.76623244 -0.47366091
