19
opt_min/./Product_11041_0_opt.xyz
  C  2.96114300  0.13815100 -0.30073700
  C  1.58428935  0.24138079  0.33910047
  C  0.53275954 -0.55543737 -0.46866071
  C -0.71034254 -0.57024922  0.31649587
  C -1.90402208 -0.10890045 -0.41188802
  C -3.05996806  0.31290406  0.49072311
  O -4.24820179  0.56074378 -0.22116725
  H -4.07230330  1.24375834 -0.88172862
  H -3.29427151 -0.48278518  1.19910374
  H -2.76247032  1.20319317  1.06846519
  H -2.21663571 -0.99407563 -0.99122196
  H -1.68897960  0.66103920 -1.17487630
  H  0.48804140 -0.15562341 -1.49548152
  H  0.89685354 -1.58738345 -0.50043598
  H  1.28260308  1.29132253  0.36738436
  H  1.60191213 -0.13592466  1.36109244
  H  2.93291562  0.52384554 -1.32101925
  H  3.69234878  0.71331776  0.26298776
  H  3.28992815 -0.90078594 -0.34680607
