16
opt_min/./Product_2077_0_opt.xyz
  C -1.07998000  0.43900400 -1.22377900
  C -0.27113035 -0.26901551 -0.13580350
  C -1.18867243 -0.69766638  1.01028583
  H -2.01563253 -1.29743861  0.63084971
  H -1.59994318  0.17586942  1.51541545
  H -0.63631255 -1.28842884  1.74011434
  C  0.80556989  0.63857554  0.37822460
  C  2.09926153  0.35135608  0.37200433
  O  2.58636962 -0.82890649 -0.12889226
  H  3.53947912 -0.87571284 -0.00710896
  H  2.83452592  1.04710922  0.75632528
  H  0.48831205  1.58855534  0.77700879
  H  0.20575921 -1.15663329 -0.56368999
  H -1.61610929  1.28826244 -0.80180666
  H -0.42216850  0.80052703 -2.01238341
  H -1.80364315 -0.24629064 -1.66185757
