14
opt_min/./Product_2000_0_opt.xyz
  C -0.71840300 -0.61212400 -0.76956800
  H -0.30665019 -1.37689234 -1.42582090
  H -1.80435030 -0.64322291 -0.76646222
  C -0.05589863  0.77493038 -0.81905195
  H -0.07647523  1.47008559 -1.65109895
  C  1.18719275  0.13936859 -0.17447938
  H  1.74993242 -0.56990239 -0.77926393
  H  1.85396874  0.80837043  0.36650400
  C -0.02327059 -0.41277406  0.59735392
  O -0.02605903 -1.27718989  1.67745613
  H  0.77498988 -1.81069496  1.65651380
  C -0.59171806  1.01681992  0.60219007
  H -1.66821303  1.10761492  0.71720310
  H -0.06789794  1.75146060  1.20874487
