13
opt_min/./Product_11831_0_opt.xyz
  C  1.34959800  0.25804400 -0.37471300
  C  0.02507970  0.03716384  0.32885466
  O  0.04651243  0.40768286  1.66750420
  H -0.00827206  1.36690465  1.74839270
  C -0.79253976 -1.25167590  0.04642078
  H -0.65122857 -2.29353656  0.29269175
  O -1.99441014 -0.56659867  0.43371717
  C -1.28796073  0.29266271 -0.47417275
  H -1.76764648  1.16967296 -0.88852762
  O -0.96595003 -0.82842660 -1.31804203
  H  2.13875265 -0.23765454  0.18518269
  H  1.55891112  1.32739693 -0.41142291
  H  1.30748908 -0.12953769 -1.38912567
