14
opt_min/./Product_2043_0_opt.xyz
  C -0.25467300  0.18484200  0.56500800
  C -1.64525728 -0.19335037  0.05463683
  O -2.64275054  0.67641985  0.52309365
  H -2.43739531  1.57348983  0.23342520
  H -1.92460933 -1.18353502  0.42561593
  H -1.64218298 -0.22697179 -1.04550229
  C  0.79956795 -0.81851552  0.10922349
  O  2.08289465 -0.43254324  0.60846212
  C  2.81674672  0.28315001 -0.18352590
  H  3.74189178  0.49675290  0.40107679
  H  0.83493803 -0.86381827 -0.98492488
  H  0.59403974 -1.81102720  0.52035443
  H  0.02504472  1.17469071  0.18874679
  H -0.26984484  0.22901962  1.65690640
