12
opt_min/./Product_8375_1_opt.xyz
  O  0.24852400  1.42743200 -1.75112400
  C  0.40635313  0.64823145 -0.86600080
  C  1.48169412  0.34051671  0.15023432
  H  1.73041879  1.16404205  0.81903937
  H  2.39512222 -0.05395980 -0.30087638
  N  0.58627635 -0.64250306  0.77981376
  H  0.95870145 -1.57608597  0.88870721
  C -0.43987680 -0.48072184 -0.25695229
  C -1.77437657  0.00484640  0.24310865
  O -2.03640661  0.24435927  1.38316071
  H -2.50262862  0.17690236 -0.57367057
  H -0.58242636 -1.31128974 -0.95565155
