12
opt_min/./Product_2802_0_opt.xyz
  C  0.75488400 -0.22880700 -0.63228600
  C  1.51277920  0.32784737  0.54924983
  O  1.98780286 -0.33785817  1.42278777
  H  1.57817454  1.43339043  0.58575559
  C -0.64553191 -0.63584686 -0.19211157
  H -0.76715678 -1.67475520  0.09281712
  C -1.55865922  0.35197221  0.39569029
  H -2.30714062  0.03366512  1.11023129
  H -1.23868767  1.38163518  0.48990612
  O -1.71802709 -0.11513019 -0.90941998
  H  1.28437667 -1.10736419 -0.99751178
  H  0.67709231  0.50535982 -1.43173631
