12
opt_min/./Reactant_3595_0_opt.xyz
  C -1.26775600 -0.49546900 -0.31877500
  N -0.04433967  0.09642806  0.16512797
  C  1.17862038 -0.58469136 -0.16822420
  H  2.00375633 -0.17057996  0.40867166
  H  1.08450941 -1.64699770  0.06566188
  H  1.40781726 -0.48337804 -1.23445082
  C -0.06238165  1.31043784  0.74158097
  O -1.05589120  1.96302933  0.95546067
  H  0.95002207  1.65192286  1.02079919
  H -2.08907249  0.15898510 -0.03219762
  H -1.41149764 -1.48152053  0.12720578
  H -1.24410556 -0.59628238 -1.40641853
