11
opt_min/./Product_10181_1_opt.xyz
  C  0.17599600  0.28791200 -0.05386100
  C  1.58150285 -0.13981838 -0.09507722
  H  1.70499788 -1.13978883  0.31522224
  H  1.94843554 -0.12861403 -1.12051552
  H  2.18832734  0.55243083  0.48947695
  C -0.77615965  1.10794624 -0.41032494
  H -1.09486941  1.95675162 -0.96134019
  C -1.18992399 -0.02206504  0.46958352
  O -1.95315510 -1.06340079 -0.08933118
  H -1.62244241 -1.91123201  0.22864788
  H -1.44645256  0.14978599  1.51577015
