14
opt_min/./Product_7138_0_opt.xyz
  N  2.22678700 -0.08995600 -0.38191800
  C  0.83020539 -0.18103032 -0.23095864
  O  0.30941991 -1.50089542 -0.10923219
  C -1.08425708 -1.31568481  0.04665161
  H -1.62297028 -1.81070986 -0.76960665
  H -1.41065290 -1.73322295  1.00628203
  C -1.21607693  0.20319162 -0.00511466
  H -2.18839802  0.66143997  0.07331501
  C  0.02774446  0.79843187  0.57328148
  H  0.25203817  1.57290136  1.27068547
  C -0.13662955  0.73443341 -0.90603004
  H -0.13565400  1.39681058 -1.74158357
  H  2.67810402 -0.77398048  0.21349126
  H  2.50144585 -0.26580805 -1.34168105
