16
opt_min/./Product_4010_0_opt.xyz
  C -2.88622700  0.12948900 -0.62873400
  C -1.40329757  0.39003498 -0.35090032
  O -0.74251627 -0.86013337 -0.32750288
  C  0.60700161 -0.86514107 -0.20845748
  C  1.43245624  0.15559252 -0.01788031
  C  2.91243391 -0.00929106  0.11448796
  H  3.22935078 -0.98541616 -0.24637801
  H  3.21320146  0.08129631  1.15995853
  H  3.43548008  0.76188052 -0.44782375
  H  1.05863162  1.16526640  0.06619494
  H  0.98208404 -1.87795719 -0.28376965
  H -1.26886287  0.89956921  0.61212533
  H -0.95990513  1.02145015 -1.13174230
  H -3.51805288  0.62924113  0.10010087
  H -3.06820106 -0.93990771 -0.56372393
  H -3.17135349  0.46368345 -1.62200085
