13
opt_min/./Product_6582_1_opt.xyz
  O  1.13653300 -0.09675300 -1.09989100
  C  1.33992569 -0.71952131  0.13963473
  H  1.33986194 -1.80228140  0.12608831
  H  2.09837817 -0.25973091  0.76068734
  C  0.10472279  0.01871652 -0.15398370
  C -0.09123759  1.40782741  0.42801782
  H -0.29199151  2.10517552 -0.37846859
  H -0.92852414  1.42243837  1.11556431
  H  0.80099666  1.74155672  0.95081097
  C -1.17592379 -0.72983094 -0.45797547
  H -1.81525869 -0.74626851  0.41782834
  H -0.96599358 -1.75174410 -0.75820112
  H -1.70241976 -0.23126195 -1.26642584
