10
opt_min/./Product_5546_0_opt.xyz
  O  2.23230600  0.77524700 -0.08973000
  C  1.07557525  0.44192079  0.06036078
  N  0.62144382 -0.86049340 -0.12338656
  H  1.16793997 -1.66186131 -0.39291786
  N -0.73166677 -0.94632797  0.11517031
  H -1.25115487 -1.80141519  0.03645898
  C -1.16132208  0.29018154  0.45269472
  H -2.19285531  0.47202641  0.68577861
  C -0.12341492  1.16249655  0.43676076
  H -0.16589971  2.20744479  0.66125806
