17
opt_min/./Product_10893_0_opt.xyz
  C -1.02513700 -1.01087000 -0.43702600
  H -2.07572524 -0.76492119 -0.29637470
  H -0.92965377 -1.97758509 -0.92506064
  C -0.09810301 -0.83371734  0.77376401
  H -0.01796732 -1.59715888  1.54422233
  C -0.41948555  0.59501152  1.22109444
  H -1.35657176  0.66642549  1.77050638
  H  0.38566798  0.98917118  1.83778199
  C -0.48102413  1.27933935 -0.16251760
  H  0.23432061  2.09508578 -0.25874585
  H -1.47258381  1.66713441 -0.39655454
  C -0.13931200  0.08000237 -1.04614716
  H -0.05859561  0.24241002 -2.12024171
  C  1.04000560 -0.56539493 -0.23585995
  C  2.20634719  0.21501027  0.12431528
  H  2.72748115  0.51633789 -0.80545967
  H  1.37299539 -1.46942566 -0.75854229
