16
opt_min/./Product_1213_0_opt.xyz
  C  1.90995900 -0.17141700  0.11550100
  C  0.74404426  0.68940159  0.60891790
  C -0.60022272  0.20113708  0.09336837
  C -0.99592412 -1.19451744  0.52895020
  H -0.16267255 -1.88012767  0.40715458
  H -1.28531827 -1.17753236  1.57782187
  H -1.83971425 -1.55457332 -0.05361397
  C -1.13092787  0.75912166 -1.15686579
  H -1.80761278  0.16447192 -1.76090917
  H -0.56693920  1.51044198 -1.69742074
  O -1.62957460  1.15619105  0.09166710
  H  0.87914887  1.72266628  0.28647633
  H  0.70700871  0.69261944  1.70032272
  H  2.80348039  0.43299070 -0.01348038
  H  1.67012152 -0.62431389 -0.84445765
  H  2.14097833 -0.96552564  0.82057997
