12
opt_min/./Product_6276_0_opt.xyz
  O  0.85644300 -1.23116600  0.01260800
  C  1.59547651 -0.18060399 -0.45954441
  H  2.59925833 -0.39249536 -0.76683773
  O  1.14106909  1.01763739 -0.56409822
  C -0.03739250  1.39082461 -0.10049612
  H -0.40674051  2.31011597 -0.51345183
  C -0.91981012  0.34656232  0.49522966
  H -0.73840021  0.23724779  1.56977976
  H -1.97240987  0.57452722  0.34545703
  C -0.53118085 -1.00278776 -0.15970797
  H -0.78179863 -0.98467144 -1.22814824
  H -1.03293406 -1.84935139  0.31196075
