15
opt_min/./Product_9599_0_opt.xyz
  O -1.53290100 -1.00901000  1.42134200
  C -0.57040241 -0.05515154  1.04242187
  H -0.25444829  0.52607907  1.92300655
  C  0.65149608 -0.76252939  0.43775376
  H  0.32920833 -1.71544767  0.00503585
  H  1.41955444 -0.96879374  1.18484260
  C  1.09814511  0.18923644 -0.63507698
  O  2.31320339  0.07066578 -1.23487088
  H  2.77158784 -0.70157274 -0.88596715
  C  0.17974928  1.10776513 -0.90743502
  H  0.26579149  1.87779593 -1.65032326
  C -1.04261186  0.91875367 -0.06047196
  H -1.42796342  1.85482753  0.34837653
  H -1.84647580  0.45531347 -0.64387009
  H -2.31396742 -0.54985495  1.74706715
