12
opt_min/./Product_3566_0_opt.xyz
  C  1.91916400 -0.47930800  0.59863900
  C  0.70748855 -0.43287761  0.08767202
  O -0.07673638 -1.43855101 -0.44668308
  C -1.16406651 -0.54462553 -0.67530309
  H -2.03990162 -0.78320499 -0.06881539
  H -1.45138208 -0.50563570 -1.73072029
  C -0.32274518  0.64957354 -0.17072004
  O -0.76428087  1.33499085  0.96434614
  H -1.49310456  1.91416384  0.72270026
  H -0.01220721  1.34379131 -0.96662560
  H  2.36208181  0.42115558  0.97712790
  H  2.46641313 -1.40013209  0.66398480
