14
opt_min/./Product_6287_0_opt.xyz
  C  1.85352300 -0.77759000  0.43491500
  C  0.49622527 -0.26989953  0.08661809
  O  0.09975069  0.84213548  0.61685586
  C -1.06049747  1.41428770  0.53785657
  O -2.04595925  0.95101899 -0.30423471
  C -3.00552618  0.09734541  0.31258860
  H -2.58221870 -0.89025168  0.52396659
  H -3.37391120  0.53500575  1.24411741
  H -3.82521790 -0.00331445 -0.39599279
  H -1.11358473  2.42722779  0.89620149
  H -0.15816705 -0.83864008 -0.55803319
  H  2.43849915  0.02009509  0.88604164
  H  2.36454443 -1.13394641 -0.45794657
  H  1.80387032 -1.60903569  1.14333165
