17
opt_min/./Product_11361_0_opt.xyz
  C  2.44310100 -0.97633900  0.51626700
  C  1.38705871 -0.23536914  0.79257509
  C  0.30633111  0.09485569 -0.19510651
  C -1.06198360 -0.38132450  0.32263137
  C -2.19071874 -0.10349276 -0.67858151
  H -2.79184693 -0.99204223 -0.85114121
  H -2.84633117  0.68674848 -0.32086847
  H -1.78680588  0.21598111 -1.63729820
  H -1.26935375  0.11610776  1.27182737
  H -0.98802181 -1.45190111  0.52151048
  C  0.27578326  1.59069325 -0.36825465
  O  0.45966463  2.18126231 -1.39340073
  H  0.07007047  2.13516018  0.57812619
  H  0.52343826 -0.36978589 -1.16131859
  H  1.24695078  0.17921419  1.78257094
  H  3.19201363 -1.19447758  1.25834080
  H  2.60411290 -1.39728628 -0.46226248
