15
opt_min/./Product_7244_0_opt.xyz
  C  2.93006610  1.01998128 -0.14358006
  N  12.80838204 -16.14588469 -9.08243326
  C -6.58285564 -3.62458349  7.49941302
  N -5.24341516 -5.45423848  3.00588812
  C  3.45281100  0.50741111  7.95100431
  C  4.15864877  1.11960323  10.38527120
  C  0.51426053  6.95814934  6.38622346
  H -3.07308100  7.53647040 -0.09808910
  H -0.79910587  3.91457621  6.50130287
  H -12.07853343  6.12689602 -6.20883977
  H -5.35912067  10.76044763  17.13921718
  H  4.64822768 -13.80706733  2.41169392
  H  17.71572558  16.07561633  1.58963145
  H  33.03941755  14.43406047 -4.74293585
  H -11.71833824  10.08581925 -20.15647558
