15
opt_min/./Product_6545_0_opt.xyz
  C  1.54000796 -0.97285905  0.24131307
  N  0.94590951  0.39906605  0.40915916
  C -0.30126357  0.49672538 -0.43315771
  C -1.23482551 -0.62476831  0.07497050
  O -1.79084755 -0.30887472  1.32455794
  H -2.59227472  0.21461524  1.21324024
  H -0.51611556 -1.46588556  0.22818943
  H -1.99121192 -0.86851728 -0.67387402
  C -0.93737579  1.78146118 -0.32560100
  N -1.47454845  2.78713788 -0.20210701
  H -0.01343951  0.29891003 -1.47139994
  H  0.65636748  0.47399287  1.38821530
  H  1.56198035  1.19522002  0.18889768
  H  2.16758061 -0.92346726 -0.66365696
  H  2.21542639 -1.11684094  1.09499558
