18
opt_min/./Product_853_0_opt.xyz
  C -2.77726900  0.50300800 -0.41337000
  C -1.57035760 -0.43487045 -0.40497024
  C -0.34038453  0.24402713  0.19029360
  C  0.89032935 -0.68109320  0.18887219
  C  1.97275734  0.00567817  0.91790671
  C  3.23727305  0.13109579  0.17725363
  H  3.83853006 -0.70628581  0.54279675
  H  3.17375140  0.03854821 -0.91432727
  H  3.77083097  1.03819051  0.46024715
  H  0.63199969 -1.55944508  0.79051440
  H  1.11671119 -1.00560788 -0.83919800
  H -0.54709913  0.55545688  1.21488922
  H -0.10631756  1.14090384 -0.38827763
  H -1.35086713 -0.76028482 -1.42402180
  H -1.80556382 -1.32725467  0.17854346
  H -2.45999880  1.52371582 -0.61632829
  H -3.28379464  0.49537397  0.54813181
  H -3.49268940  0.21203530 -1.17760876
