13
opt_min/./Product_750_0_opt.xyz
  C  1.96741800  0.32211600  0.29926800
  C  0.86880557 -0.62776197 -0.06898490
  C -0.39952345 -0.30188953 -0.09265763
  C -1.79045282 -0.68738539 -0.34004380
  H -2.28715898 -1.35012463  0.35377545
  H -2.10899576 -0.80741226 -1.36668498
  C -1.42933675  0.71617061  0.12582621
  H -1.67853681  0.98987598  1.14214864
  H -1.52600939  1.52844606 -0.58084038
  H  1.17444597 -1.63039787 -0.34209268
  H  1.56956756  1.18299490  0.83122771
  H  2.70732188 -0.17475475  0.92374888
  H  2.47308494  0.67602193 -0.60002665
