15
opt_min/./Product_10855_0_opt.xyz
  C -1.98137600 -1.24723100 -0.19464600
  C -0.97056509 -0.13887587 -0.18296950
  C -1.28088856  1.13883609 -0.36558336
  H -0.56861273  1.94427808 -0.33252434
  H -2.29921697  1.42042815 -0.55375515
  O  0.27204765 -0.64311829  0.05864936
  C  1.36112050  0.23603673  0.06911151
  C  2.66208332 -0.50044955  0.05265123
  O  3.64463471  0.12454578  0.55737323
  H  3.47843951  1.01663540  0.96349165
  H  1.38306458  0.82545974 -0.86663966
  H  1.27411347  0.95532920  0.91691698
  H -1.56666967 -2.10336914 -0.72132148
  H -2.90147161 -0.92775530 -0.67340650
  H -2.20237513 -1.55540302  0.82657837
