7
opt_min/./Reactant_583_0_opt.xyz
  O -1.31417600  0.87498000  1.53557700
  C -1.14170078  0.25829975  0.52189599
  C  0.13729625 -0.02446944 -0.06041204
  C  1.23095717 -0.23996890 -0.53805099
  C  2.43678705 -0.52764468 -1.10780935
  N  3.45623847 -0.76577114 -1.57895543
  H -1.97563118 -0.16346247 -0.07655010
