16
opt_min/./Product_475_0_opt.xyz
  C  0.73332200  0.58591700  1.50109900
  C  0.01471011  0.11025751  0.24565473
  C  0.70675100  0.47397892 -1.01482307
  C  0.82582828 -0.27462588 -2.09984823
  H  1.33048818  0.08462078 -2.97934277
  H  0.42854779 -1.27431724 -2.14515069
  H  1.13384692  1.46994617 -1.01270077
  C -1.49868628  0.17802231  0.23965279
  H -1.99449740  0.42876545 -0.68296826
  H -1.98146817  0.55881446  1.12452811
  C -0.80518756 -1.14323328  0.33640016
  H -0.86246731 -1.81723789 -0.50170024
  H -0.82763868 -1.65636768  1.28441238
  H  0.94726588 -0.24929062  2.16303319
  H  0.13439988  1.30457413  2.05535167
  H  1.67499424  1.05823856  1.24390355
