12
opt_min/./Product_7319_0_opt.xyz
  O -2.20566000  0.20278000  0.73537600
  C -1.45944597 -0.50578079 -0.22809921
  C  0.00158556 -0.22438433 -0.10739877
  N  0.62593714  0.81377641 -0.70451468
  H  0.25359239  1.52677877 -1.31443489
  N  1.91564431  0.82115437 -0.35501605
  C  2.03078326 -0.22654035  0.42822168
  H  2.95455122 -0.51804156  0.88542248
  N  0.87299304 -0.89097022  0.61527689
  H -1.82823341 -0.17258792 -1.20391198
  H -1.62449208 -1.58779814 -0.12890121
  H -1.88250969 -0.03358089  1.61421783
