13
opt_min/./Product_3278_0_opt.xyz
  C -1.14356300 -0.83501200  0.11205100
  C  0.16103510 -0.09996714 -0.10293033
  C  1.32547171 -0.59652795  0.66088808
  O  2.12839695  0.11957952  1.20539868
  H  1.42789605 -1.69540091  0.64615834
  C  0.52916597  0.65502191 -1.35635093
  H -0.35029654  0.64085364 -2.03147328
  N  0.10874588  1.37248763 -0.10553074
  H -0.79939968  1.81485664  0.02535819
  H  0.85591775  1.80666214  0.43731920
  H -1.06601831 -1.84041782 -0.29936284
  H -1.95577229 -0.32820283 -0.40887404
  H -1.38942192 -0.91049836  1.17216280
