12
opt_min/./Product_2117_0_opt.xyz
  O  2.27694900  0.98015200  0.09795800
  C  1.27784280  0.29335054  0.09208056
  N -0.14064072  1.04517406  0.03543412
  H -0.24875113  1.59619996  0.88995468
  H -0.11447070  1.69740920 -0.74804593
  C -1.16546256 -0.03188048 -0.15389215
  H -1.92025262  0.02718737  0.63701334
  H -1.66918610  0.15539509 -1.10746749
  C -0.39838174 -1.35861871 -0.17509837
  H -0.71604617 -2.02428758  0.63588711
  N  0.95287613 -0.96499967  0.05369228
  H  1.67678779 -1.66737006  0.06132778
