11
opt_min/./Product_10135_1_opt.xyz
  O  3.51569100 -0.38759000 -0.57957100
  C  2.48107443  0.00572508 -0.23784513
  N  1.52211369  0.43282704  0.31515845
  C  0.15756515  0.79967071  0.23241451
  C -0.73741772 -0.42317228  0.15789110
  H -0.44358806 -1.24341996  0.80575296
  C -2.10226074 -0.33330493 -0.31870041
  H -3.11265464 -0.05676148 -0.12890173
  N -1.32230832 -0.80737393 -1.17606756
  H -0.01523299  1.43773428 -0.64419508
  H -0.06094142  1.37762581  1.13912490
