19
opt_min/./Product_9166_0_opt.xyz
  C  3.17918900 -0.30130300 -0.30939600
  C  1.87872150 -0.14769393  0.47091439
  C  0.66563851 -0.14105506 -0.45194961
  O -0.49611075  0.05100930  0.32489232
  C -1.67482029  0.08887581 -0.43944252
  C -2.86704936  0.25776746  0.50716624
  O -4.09095479  0.28728784 -0.18564885
  H -4.10150325  1.05125760 -0.77171052
  H -2.92235213 -0.59450247  1.18230585
  H -2.72949920  1.16334407  1.11079329
  H -1.79796471 -0.84009435 -1.01560417
  H -1.64064144  0.92876138 -1.15352675
  H  0.76232194  0.67121116 -1.19066872
  H  0.60320020 -1.08972278 -1.00690872
  H  1.88794989  0.78222496  1.03757342
  H  1.77272528 -0.96655393  1.18073722
  H  3.29123089  0.49961725 -1.03466436
  H  3.19562082 -1.24906229 -0.83983122
  H  4.02679213 -0.27506638  0.36758251
