17
opt_min/./Product_7731_0_opt.xyz
  C  0.53374100  1.50933700  0.45259600
  C -0.01208014  0.15014752  0.04649034
  C  0.96268062 -0.95484639 -0.08778498
  C  2.20876707 -0.82515792 -0.51554849
  H  2.62124316  0.12662842 -0.79829698
  H  2.86131334 -1.67292550 -0.60154193
  H  0.58236353 -1.93335191  0.16630416
  C -1.17266824  0.13109275 -0.93020118
  H -1.22155112 -0.66461813 -1.65550368
  H -1.53129705  1.07836588 -1.29571013
  C -1.40667221 -0.21227482  0.51025888
  O -1.67011505 -1.52800538  0.87910270
  H -2.50625796 -1.80828953  0.49365294
  H -1.93420182  0.51778624  1.11589551
  H -0.05869775  1.93725108  1.25478149
  H  0.51696711  2.20451238 -0.38145597
  H  1.55589634  1.41900226  0.80144381
