15
opt_min/./Product_9283_0_opt.xyz
  C  0.47540560 -3.07838399 -5.67019659
  C -0.54305270 -0.78170578 -2.09116301
  C -4.75197258 -0.78275976 -5.04210409
  H -18.82762993  1.96014174 -7.06877098
  H -10.10074089 -8.92844572 -0.05753134
  H  4.80767690 -2.63733405 -3.99835595
  C  9.23940100 -6.95469977  5.71084621
  C -7.07834921  4.18852413  1.11973698
  C -4.10055290  4.09254756  6.07125188
  O -3.80173367 -2.70773157  5.65621301
  H  15.25867006 -8.92701064 -6.85347520
  H -1.77263517  4.45186460 -5.81638684
  H -15.48932153  1.42471110 -2.53906567
  H  11.81359238 -12.97854277  3.07374727
  H  2.59260539  1.27971256 -5.09251557
