10
opt_min/./Product_235_0_opt.xyz
  C  1.32480900 -0.82010500  0.16893100
  C  1.71062024  0.45862562  0.18539338
  H  2.63713672  0.97671131  0.27333372
  N  0.52769911  1.15870608  0.11400656
  C -0.62209794  0.68988741 -0.10326230
  H -1.43535198  1.37029936 -0.28709425
  C -0.93875030 -0.82385260 -0.24701569
  H -1.77169918 -1.16430152  0.37823111
  H -1.18793400 -1.03994352 -1.30178769
  N  0.26095212 -1.42009505  0.23278218
