8
opt_min/./Reactant_5148_0_opt.xyz
  O  2.22934100  0.23099900 -0.18772700
  C  1.09315771 -0.09303562 -0.03756407
  N  0.00254071  0.71782932  0.27062456
  H  0.04241188  1.71196515  0.40905835
  C -1.08604573 -0.10496620  0.33958220
  H -2.07853281  0.22688604  0.56066661
  N -0.77195942 -1.32046185  0.10724114
  O  0.58249231 -1.34421320 -0.13172624
