15
opt_min/./Product_7408_0_opt.xyz
  C  1.70728900 -0.28283900  0.57019000
  C  0.67255956  0.19281916 -0.45637984
  H  1.19206026  0.75272338 -1.24858619
  O -0.02529443 -0.88743230 -1.04224638
  C -1.42417470 -0.76227091 -0.82596931
  H -1.90102374 -0.41993616 -1.75173413
  H -1.81637980 -1.75533316 -0.58186027
  C -1.62313083  0.24569170  0.30245407
  H -2.52910604  0.84271384  0.20411019
  H -1.63167488 -0.23951413  1.28271502
  C -0.35844045  1.06631967  0.23331342
  O -0.18162250  2.17870238  0.64547008
  H  1.22205671 -0.86196667  1.35244791
  H  2.43957560 -0.91618823  0.07682612
  H  2.20593139  0.57517829  1.00986846
