10
opt_min/./Product_4922_1_opt.xyz
  O  2.07778600  1.34597900 -0.09209800
  C  1.06914950  0.65536876 -0.04658466
  C -0.31799889  0.98551243  0.00804725
  H -0.74991695  1.96463527  0.02156441
  C -1.12464994 -0.24422172  0.04528896
  H -1.78402589 -0.34734312 -0.82257034
  H -1.73369268 -0.34038558  0.94905004
  O -0.19800385 -1.31440025  0.01806411
  C  1.00283109 -0.80641773 -0.03502649
  H  1.83647991 -1.48871842 -0.06670778
