11
opt_min/./Product_2653_0_opt.xyz
  C  1.42821800  0.30138000 -0.04799300
  C  0.12992493 -0.49229190  0.08834605
  H  0.38307001 -1.55799155  0.13926936
  N -0.80799216 -0.29376910 -0.97449976
  C -1.87651687  0.08006999 -0.39477773
  H -2.80295051  0.31270286 -0.88295621
  N -1.74891382  0.15734752  1.00690510
  N -0.59240067 -0.16312043  1.30103569
  H  1.19877237  1.35375469 -0.18500347
  H  1.98623826 -0.06872653 -0.90217092
  H  2.01149639  0.16859280  0.85802994
