15
opt_min/./Product_8164_0_opt.xyz
  O -1.60618100  1.32286600 -0.69958800
  C -0.63449208  0.39001526 -0.34804581
  C -1.08052780 -1.04772309 -0.59474223
  H -1.26577799 -1.56689168  0.34003255
  H -2.00328356 -1.02677981 -1.16454186
  H -0.34169831 -1.59821984 -1.16127740
  C  0.25307792  0.75987052  0.82457072
  H  0.04855710  1.58930112  1.48050226
  C  1.25627324 -0.34505083  1.06185055
  H  1.43877000 -0.98751750  1.90071320
  C  1.72631801 -0.29621660 -0.18519261
  H  2.43395102 -0.86194136 -0.75711156
  C  0.79852930  0.82531093 -0.59605117
  H  1.04869663  1.70371629 -1.16312269
  H -2.00202672  1.70709732  0.08756302
