12
opt_min/./Reactant_8190_0_opt.xyz
  O -1.31346700 -1.42888500  0.37482600
  C -1.02541927 -0.26716308 -0.34848433
  C  0.02965755  0.61340611  0.37116633
  C  1.32472207 -0.04864611  0.37562403
  C  2.37391539 -0.62300501  0.35185835
  H  3.29928844 -1.11915255  0.33657483
  C  0.14699123  1.89037117 -0.30242229
  N  0.24712936  2.88629265 -0.85230075
  H -0.29885983  0.79324072  1.40460258
  H -0.66069482 -0.50063826 -1.35915461
  H -1.96882750  0.28117164 -0.42849395
  H -0.51743065 -1.97254000  0.43279233
