21
opt_min/./Product_10812_0_opt.xyz
  C -3.03692600  0.17720300 -0.58645800
  C -1.68246175  0.31324036  0.09477692
  C -0.63015571 -0.59985235 -0.52721553
  C  0.74964008 -0.36409105  0.09729603
  C  1.19680592  1.03995027 -0.10100521
  C  2.49976920  1.37754548  0.49140371
  H  3.15612673  1.57202830 -0.36091032
  H  2.40188286  2.33857514  0.99889152
  H  2.97742100  0.64507521  1.15323035
  C  1.76544178 -1.40006944 -0.41081315
  H  1.97537867 -1.21796357 -1.46314202
  H  1.35940597 -2.40307541 -0.30802987
  H  2.70057343 -1.34731067  0.14045436
  H  0.66082590 -0.49051544  1.19025379
  H -0.57114583 -0.40505807 -1.59915935
  H -0.92298017 -1.64439309 -0.38849814
  H -1.32752615  1.34310938  0.01773243
  H -1.78441462  0.08015314  1.15872607
  H -2.96504520  0.47432123 -1.63066638
  H -3.77230647  0.81570769 -0.10231309
  H -3.39067154 -0.85046551 -0.54698629
