12
opt_min/./Reactant_4051_0_opt.xyz
  C -0.76890438 -1.24541107  0.31125385
  C -0.12771204  0.12404727  0.40849773
  C  1.30358041  0.12168760  0.23894251
  C  2.49401920  0.12867079  0.10598568
  H  3.53548249  0.12790519 -0.02161214
  C -0.87048767  1.34178263  0.03245779
  H -0.33205250  2.20557224 -0.34278884
  H -1.89379341  1.24167462 -0.31666167
  O -0.64757221  1.00913766  1.37053144
  H -0.57796855 -1.80007624  1.22929939
  H -1.84462596 -1.15687154  0.17555795
  H -0.34195662 -1.79236475 -0.52627441
