10
opt_min/./Product_7648_0_opt.xyz
  N -2.90257300  0.22066200 -0.67980500
  C -1.79111312 -0.04086903 -0.56238075
  C -0.44314802 -0.34236936 -0.40509223
  C  0.45412847 -1.26737977 -0.83552472
  H  0.50451694 -2.13255503 -1.47057657
  O  1.54698766 -0.76213447 -0.16997915
  C  0.68722676  0.22079885  0.37267035
  C  0.94944841  1.19255566  1.21736974
  H  1.94503511  1.32969319  1.60006060
  H  0.16611329  1.86317026  1.52816399
