12
opt_min/./Product_778_0_opt.xyz
  N  1.53074200  1.23842300  0.48826800
  C  1.06300444  0.16193905  0.02917904
  O  1.77128258 -0.97013111  0.12976952
  H  2.61518776 -0.75533763  0.56291035
  C -0.25287504 -0.04361502 -0.66916468
  H -0.16163226 -0.16012249 -1.74508285
  C -1.36049112 -0.73158262  0.03165282
  H -1.17894988 -1.06912259  1.04699210
  H -2.05623574 -1.33900662 -0.52978797
  N -1.42517806  0.68379977 -0.25200184
  H -1.29220319  1.29561808  0.54896099
  H  0.94241213  2.05479553  0.35859394
