11
opt_min/./Product_5092_0_opt.xyz
  N  0.78595303 -1.72576000 -1.74464799
  C  0.62220043 -1.30967413 -0.69364617
  C  0.39613837 -0.76400644  0.62076573
  C -0.16857381  0.65781930  0.56581427
  C  0.11944967  1.67405108 -0.45065555
  H  0.70825480  1.22190026 -1.26465470
  O -1.21651039  0.81856409 -0.44396082
  H -1.92296781  1.39910302 -0.12094253
  H -0.48839187  0.98776689  1.55454728
  H -0.28478975 -1.43114474  1.15983923
  H  1.34920293 -0.72235848  1.15688667
