16
opt_min/./Product_1512_0_opt.xyz
  C -2.32776200 -0.18851300 -0.03566400
  C -1.01381430 -0.05723547 -0.08982412
  C -0.27427011  1.24878200 -0.08979240
  H -0.71594946  1.94845254  0.62059739
  H -0.34046633  1.70350467 -1.08292020
  C  1.17658896  0.91226909  0.27197555
  H  1.38269840  1.18130247  1.30903418
  H  1.87051541  1.47197996 -0.35645405
  C  1.35664277 -0.60236978  0.06331133
  H  1.81372771 -1.05207051  0.94564217
  H  2.01891248 -0.79846644 -0.77923762
  C -0.03771138 -1.19733393 -0.18545233
  H -0.28039471 -1.97705516  0.53684106
  H -0.09922720 -1.64677222 -1.17997852
  H -2.97662282  0.67035058  0.02795313
  H -2.80306507 -1.15648098 -0.04533202
