15
opt_min/./Product_7368_0_opt.xyz
  C  1.29052800 -0.89119400  0.35668300
  H  1.62248418 -1.73990823 -0.22045926
  H  1.16952670 -1.08848494  1.41133795
  C  1.69054067  0.47097832 -0.07927791
  H  2.31573516  0.57580899 -0.95226062
  H  1.85114707  1.22407163  0.67868122
  C  0.27028560  0.02979098 -0.29364203
  C -0.92421804  0.60033238  0.47637702
  H -0.92365072  0.34900269  1.53515035
  H -0.92251781  1.69025301  0.37956952
  C -2.08815119 -0.01818183 -0.28532345
  H -2.47507181 -0.92834100  0.18118846
  H -2.91286617  0.66699357 -0.48534858
  O -1.51199097 -0.41143617 -1.57172000
  C -0.23546904 -0.40998466 -1.60558490
