14
opt_min/./Product_262_0_opt.xyz
  C -2.47273000 -0.13712500  0.11165400
  C -1.12834092  0.26669569 -0.32552961
  C -0.08643442  0.06028688  0.69827767
  C  1.25598563  0.65247497  0.32864688
  H  1.21053172  1.67689426 -0.03423613
  O  2.34535112  0.36648671  1.15816316
  C  2.36889217 -0.18146408 -0.13037358
  H  2.24333431 -1.25702702 -0.18231958
  H  3.11150799  0.23057309 -0.80286724
  H -0.40012698  0.44887341  1.67807966
  H  0.01503080 -1.02467405  0.83787414
  H -2.90088609 -0.78672765 -0.65245763
  H -3.07331109  0.77562495  0.07270489
  H -2.56898538 -0.59459337  1.10482410
