14
opt_min/./Product_2326_0_opt.xyz
  O  0.54435100 -0.72134600  0.12796500
  C  1.86572677 -0.46603811  0.01113647
  C  2.54376422  0.61001309  0.37866051
  H  2.08126635  1.47014974  0.82838798
  H  3.60450555  0.66089048  0.22239978
  H  2.35743101 -1.31606400 -0.44983123
  C -0.28279616  0.32720028  0.60763209
  C -1.70151361 -0.16303689  0.58590204
  C -2.69557680  0.43858924 -0.03787244
  H -2.55163057  1.35736236 -0.58294940
  H -3.69766132  0.04762115 -0.01925436
  H -1.86017808 -1.08894749  1.12271329
  H -0.17015249  1.21135969 -0.03525951
  H -0.00021118  0.59511273  1.63594979
