13
opt_min/./Product_2309_0_opt.xyz
  O  2.70067300  1.97403700  0.31238200
  C  2.47257054  0.82431502  0.04969489
  N  1.27726471  0.25089021 -0.15409660
  C  0.42140674 -0.38968196  0.49392469
  C -0.81741373 -0.90976815 -0.15824638
  C -1.85954931  0.21857168 -0.23480403
  H -1.77599701  0.87067466  0.63248591
  H -2.86350197 -0.19618723 -0.25973398
  H -1.70069323  0.81730473 -1.12762865
  H -0.57903012 -1.25701315 -1.16420843
  H -1.21890094 -1.74452922  0.41845823
  H  0.51154481 -0.56045887  1.56991379
  H  3.27493471  0.10253952 -0.23303724
