13
opt_min/./Product_9679_0_opt.xyz
  C  2.35412000 -0.14463100 -0.03370500
  C  1.02760981 -0.25101978  0.07707022
  N  0.34871481 -1.45680764  0.21702506
  C -0.89122524 -1.20937325  0.28682378
  H -1.62846910 -1.98307448  0.36917076
  C -1.22907284  0.26834786  0.20682318
  O -2.06462312  0.53557695 -0.89305577
  H -2.27436901  1.47312798 -0.91902638
  H -1.73158862  0.60647632  1.14046168
  N  0.10018280  0.78131053  0.09462269
  H  0.35503737  1.73952737 -0.02317598
  H  2.95681048 -1.03027776 -0.00764519
  H  2.83190702  0.81055267 -0.14772973
