11
opt_min/./Product_8070_1_opt.xyz
  C  0.87082300 -0.71848200 -0.29718300
  O  2.22533018 -0.56873435 -0.32521259
  H  2.42164785  0.36478855 -0.16605801
  C  0.01397592  0.26524819 -0.03818619
  C -1.47167551  0.10079571 -0.01676946
  H -1.90335247  0.63607428  0.82951736
  H -1.91976955  0.49044557 -0.93439322
  H -1.73197544 -0.95065757  0.07112370
  O  0.52857458  1.53619667  0.19542573
  H -0.19461659  2.16557930  0.27405231
  H  0.55029354 -1.72541704 -0.49105570
