17
opt_min/./Product_11552_0_opt.xyz
  C  2.11877100 -0.16666300 -0.57787300
  O  1.49471596  0.66416711  0.36911821
  C  0.52397373 -0.01213968  1.15568874
  C -0.70076473 -0.44727926  0.38019589
  C -1.23287560 -1.82074502  0.65139444
  H -0.58655758 -2.58287037  0.21159530
  H -2.22866736 -1.93576539  0.22788399
  H -1.28577047 -2.00407777  1.72416107
  C -1.26214499  0.36001761 -0.51934967
  O -0.83130980  1.59533070 -0.85848930
  H  0.01251167  1.77145055 -0.40835335
  H -2.14388648  0.08189442 -1.07798396
  H  0.98524891 -0.88270222  1.64421303
  H  0.25349505  0.70872818  1.93885849
  H  2.61078003 -1.01669634 -0.08898074
  H  1.39930359 -0.54767924 -1.31073114
  H  2.87012765  0.43938213 -1.08342281
