15
opt_min/./Product_9045_0_opt.xyz
  N  2.03413000 -0.11534500 -0.89777300
  C  1.26368813  0.05790612  0.30816515
  H  1.70752874 -0.34205139  1.22597664
  C  0.41038310  1.25829184  0.44307378
  N  0.38600038  2.48799988  0.63608850
  H -0.54872391  2.90190656  0.63373198
  C -0.23873968 -0.00853301  0.18242886
  C -1.25409119 -0.56941880 -0.75144540
  H -1.94092601  0.12841002 -1.21062138
  H -0.96867038 -1.38477400 -1.39986415
  C -1.36146741 -0.82638418  0.72350905
  H -2.13108848 -0.33882636  1.30415138
  H -1.12557830 -1.82384956  1.07294835
  H  3.02393047 -0.00261629 -0.72054263
  H  1.87301876 -1.02776395 -1.30840796
