15
opt_min/./Product_6669_0_opt.xyz
  C  1.56315000  0.01934600  0.38238200
  C  0.50455998 -0.05528798 -0.72426800
  H  0.95770917  0.24818702 -1.67037089
  C -0.04623415 -1.44060017 -0.78990772
  C -1.15024711 -1.46224376  0.10582056
  H -1.62858595 -2.36653252  0.44225740
  C -1.64907211 -0.21105956  0.25350703
  H -2.58566287  0.06796054  0.71131211
  C -0.74273374  0.80549508 -0.36677780
  O -0.47200189  1.91452549  0.45716115
  H -1.15330529  2.58363987  0.34583893
  H -1.16771808  1.13757296 -1.32827216
  H  1.10591970 -0.17473223  1.34908265
  H  2.00109277  1.01308787  0.40182991
  H  2.34003741 -0.71737609  0.19435350
