12
opt_min/./Product_10610_0_opt.xyz
  O  2.89754400 -1.19026000  0.75296400
  C  2.23781243 -0.30429763  0.38269209
  C  1.51793246  0.69101153 -0.01825732
  C  0.01966450  0.69086783 -0.18992904
  C -0.61293608 -0.58281529  0.32332428
  H -0.04975148 -1.49047427  0.12730172
  C -2.03701311 -0.67291247  0.57310684
  H -3.02832699 -0.76808316  0.19725097
  N -1.36926090 -0.54469927  1.62583913
  H -0.40067420  1.54463523  0.35033179
  H -0.21468234  0.82192469 -1.25492375
  H  2.03336870  1.60697028 -0.26436905
