17
opt_min/./Reactant_9663_0_opt.xyz
  C -1.95513900  0.36213000 -0.60175600
  C -0.52130571  0.05466768 -0.25413162
  C  0.13510502 -1.30861705 -0.55381987
  H -0.51327975 -2.14005110 -0.29731927
  H  0.62070039 -1.46214805 -1.51161705
  C  0.96316174 -0.81767933  0.63733226
  H  1.45036000 -1.48701735  1.34254759
  C  1.76711950  0.34686338  0.03284109
  H  2.20030372  0.96661802  0.81424398
  H  2.55339386  0.01106396 -0.63846508
  C  0.58892488  1.03917674 -0.68086847
  H  0.69444072  1.07701924 -1.76307484
  H  0.40047745  2.04175071 -0.30538099
  O -0.20475986 -0.15735834  1.14378825
  H -2.61556741 -0.18320634  0.06460190
  H -2.15151094  0.05631111 -1.62553684
  H -2.15394513  1.42487033 -0.49888070
