13
opt_min/./Product_11257_0_opt.xyz
  C -1.99388221  0.93103302  0.46720553
  O  11.75875525 -20.05295677 -14.33969422
  C -9.47700010 -16.97192644 -20.09819833
  C -29.61844913  8.75454358  3.16123112
  C -8.09368386 -13.50073640 -13.41844178
  C  4.58947385  12.03296770  6.47020059
  O  20.00159260  14.38394090 -4.99438457
  H  7.51746901 -5.05645003 -13.46179776
  H -28.57526855  14.84698535  21.04172213
  H  5.37415603 -27.57370755 -39.52951556
  H  1.91764664  3.23937314  0.64990916
  H  11.97224278  21.24491541 -11.26228816
  H  6.80473265  4.51618131 -8.51879763
