11
opt_min/./Product_10050_0_opt.xyz
  C  1.90822900 -0.01165800 -0.06791700
  C  0.48022546 -0.44688143  0.12972411
  O  0.13963844 -1.45133554  0.69451488
  O -0.36347688  0.50534634 -0.28564635
  C -1.74887194  0.26271984 -0.07176501
  H -2.23761921  1.23339374 -0.04851132
  H -2.15272290 -0.33662033 -0.88628923
  H -1.90169323 -0.26490133  0.87098932
  H  2.02201793  0.54983671 -0.98949563
  H  2.55157730 -0.88355191 -0.07445287
  H  2.18918434  0.63776490  0.75582554
