16
opt_min/./Reactant_670_0_opt.xyz
  C -0.78373100  1.20226000  0.50578200
  C -0.44014809 -0.26763972  0.24168447
  C -1.57388346 -0.97108219 -0.49882927
  H -2.51307853 -0.84181548  0.02858883
  H -1.67285542 -0.56621128 -1.50007496
  H -1.37033296 -2.03404810 -0.58321516
  C  0.86000345 -0.35352919 -0.54447680
  O  0.91653575 -0.78977882 -1.66600853
  C  2.08452533  0.18291197  0.15953146
  H  1.98309631  0.16606438  1.23904764
  H  2.95286955 -0.39680607 -0.14060692
  H  2.24705582  1.20652974 -0.16944200
  H -0.27077502 -0.76690684  1.20111458
  H -1.72207528  1.27493966  1.04572228
  H -0.88689711  1.73483074 -0.43575479
  H -0.01411804  1.69240749  1.09480502
