11
opt_min/./Reactant_1400_0_opt.xyz
  O -1.00248607  1.41790498 -0.08647748
  C  0.01721576  0.47450668  0.03679215
  C  1.31972508  1.05733315  0.16193926
  N  2.36030834  1.51904412  0.27891238
  C -0.07880638 -0.86198321 -0.66116466
  H  0.82025845 -1.29091565 -1.07824229
  H -0.96081252 -1.02127878 -1.26675089
  C -0.23783386 -0.79869060  0.82155032
  H  0.56756956 -1.16507657  1.44031115
  H -1.22254074 -0.91502878  1.24635951
  H -1.42978443  1.33935279 -0.94702364
