15
opt_min/./Product_8160_0_opt.xyz
  O  1.23018900  2.18859400 -0.35810100
  C  0.41782429  1.10563410 -0.19953310
  C -0.81962500  1.10983457  0.28948402
  H -1.32851580  1.97904434  0.66140000
  C -1.46927347 -0.24202198  0.19750247
  H -2.30640958 -0.22589104 -0.50133067
  H -1.85809924 -0.57344867  1.16058026
  C -0.35189744 -1.12827775 -0.33456286
  H -0.61778830 -1.94912064 -0.98201505
  C  0.86978247 -1.25705855  0.51738243
  H  1.47086288 -2.14885243  0.40925589
  H  0.83829768 -0.87640540  1.52419709
  C  0.85049557 -0.26103085 -0.60972310
  H  1.49786635 -0.34488315 -1.47174831
  H  2.14640016  1.89666970 -0.36555021
