11
opt_min/./Product_4747_0_opt.xyz
  N  1.56387600 -0.68886500  0.48942300
  C  1.13631015  0.25598214 -0.35983630
  O -0.23387371  0.25091026 -0.67595774
  C -1.16611781 -0.45363790 -0.05000865
  N -0.96784510 -1.28459082  0.87606493
  H -1.80691921 -1.72886184  1.23195045
  H -2.13931513 -0.19402019 -0.49564313
  N  1.89722227  1.10856448 -0.88722150
  H  1.43914855  1.74493491 -1.52685516
  H  0.88257971 -1.25167428  0.98307335
  H  2.51044894 -0.60820671  0.81609901
