12
opt_min/./Product_11811_0_opt.xyz
  N  2.72213399  0.83874801  1.43951201
  C  1.99309938  0.26703338  0.77241786
  C  1.04570172 -0.42481760 -0.07643468
  H  1.59141513 -0.97710921 -0.85715584
  O  0.12288307 -1.26066559  0.61583690
  C -1.00169847 -0.51283318  0.14542219
  C -1.81445265  0.12590528  1.16743131
  H -2.65338341  0.63934048  0.67213212
  H -1.60962549 -1.13668228 -0.53692510
  C -0.08476863  0.48168321 -0.61445620
  H -0.19971971  0.50157131 -1.69133974
  H -0.09197664  1.48726218 -0.20527422
