17
opt_min/./Product_10064_0_opt.xyz
  C -2.06812400  0.74422500  0.55697500
  C -0.88996858 -0.22767829  0.62310428
  C -0.18915979 -0.23069051 -0.71071680
  H -0.74068545 -0.85994121 -1.42947329
  C  0.66930178  0.80374921 -1.18413726
  H  0.69635629  0.89882420 -2.27343249
  C  1.46415581 -0.37063737 -0.65988595
  C  2.16843843 -0.53332085  0.51834453
  O  1.84352340  0.03736719  1.71040790
  H  2.60097573  0.00002169  2.30462708
  H  2.96104935 -1.27305613  0.55097083
  H  1.89526682 -0.98373447 -1.45322563
  H -1.25284179 -1.23298515  0.85037116
  H -0.21474182  0.08981534  1.41309543
  H -2.87620150  0.33892281 -0.05242076
  H -1.74966304  1.68612167  0.11843559
  H -2.46075574  0.93332786  1.55422156
