12
opt_min/./Product_11024_0_opt.xyz
  C  0.58878800 -1.48807100 -0.03134900
  H  0.96672059 -2.45734371  0.24247468
  C -0.67247664 -1.18488645 -0.19520136
  C -1.42619559 -0.08622675 -0.19615841
  H -2.25854488  0.08532272 -0.86659735
  N -1.04293220  0.92927275  0.74775718
  H -1.78744936  1.58629694  0.95560204
  C -0.05533805  1.46101006 -0.15405342
  H -0.30606843  2.28578849 -0.80851820
  C  1.12569759  0.84452797 -0.13685684
  C  1.57803286 -0.37492518 -0.00489141
  H  2.57890416 -0.64323718  0.28314932
