13
opt_min/./Product_10509_1_opt.xyz
  C -1.70226700  0.08828800 -0.30635600
  C -0.32124864  0.58151952  0.12306790
  C  0.65213470 -0.58364514  0.36730720
  C  1.93014966  0.00812526  0.87713349
  O  2.85078869  0.14247910  0.00688023
  H  2.66117872 -0.18843774 -0.91006690
  H  0.22623877 -1.24612807  1.12002766
  H  0.79494940 -1.13875232 -0.57943517
  H  0.10112086  1.24232336 -0.63857195
  H -0.39390733  1.16332283  1.04176026
  H -1.62856977 -0.85267468 -0.84635415
  H -2.18990815  0.81096959 -0.95246195
  H -2.33443909 -0.08069093  0.56014550
