12
opt_min/./Product_10118_1_opt.xyz
  C -1.59222800 -0.33492500  0.93088500
  C -2.03610773  0.20900128 -0.41210985
  H -1.51278768  1.05051419 -0.84189978
  H -3.10509721  0.23034541 -0.56559038
  C -1.37288043 -1.11923421 -0.35134640
  C  0.13487200 -0.88970413 -0.27009752
  C -0.12055912 -0.15203870  1.04800838
  O  0.60231946  0.27477041  1.90079373
  H -2.29125511 -0.46016391  1.74197091
  H  0.58297849 -0.32147549 -1.08302435
  H  0.72180062 -1.79002852 -0.09406276
  H -1.84197135 -2.03871975 -0.65642493
