9
opt_min/./Product_6319_0_opt.xyz
  O -0.93384100  1.41614000 -0.44769300
  C -1.08470588  0.14017623 -0.30872164
  N  0.06806403 -0.46580681 -0.09366893
  C  1.03701042  0.54668146 -0.10353612
  C  0.43993389  1.75316537 -0.32384106
  H  2.06914238  0.31668577  0.05390058
  H  0.19190898 -1.45739014  0.03493307
  O -2.26132428 -0.48130500 -0.37403351
  H -2.96029882  0.16665930 -0.53525454
