13
opt_min/./Product_3404_0_opt.xyz
  N  1.07016200  0.09089900  0.10126800
  C  2.02684653  0.62983862 -0.67725804
  O  1.84360963  1.22235299 -1.71042663
  H  3.03742970  0.47214314 -0.25195111
  C -0.31695643  0.16447174 -0.22768560
  H -0.46638685  0.77141463 -1.11107200
  C -1.20639856 -1.02275799 -0.00966682
  H -1.97119620 -1.23243924 -0.73971786
  H -0.77003235 -1.90710275  0.43091583
  C -1.34465773  0.19476668  0.85977763
  H -2.20829280  0.82793668  0.72386066
  H -1.01751730  0.13308810  1.88673467
  H  1.31751535 -0.38441790  0.95517288
