12
opt_min/./Product_9375_0_opt.xyz
  O  3.63431000  0.91720500  0.10422100
  N  2.49885320  0.59683500 -0.05574802
  C  1.39557368  0.28442046 -0.20179531
  C  0.02130419 -0.09874004 -0.32364284
  H -0.21126440 -0.33342363 -1.36406714
  C -1.00015296  0.85425414  0.35459185
  H -0.58843769  1.72713358  0.85732727
  H -1.81535897  1.19521123 -0.28184939
  C -1.46036114 -0.21663360  1.29810855
  C -0.46943552 -1.16639861  0.69137402
  H  0.26922984 -1.50123969  1.41912584
  H -0.93320676 -2.05435017  0.26512963
