15
opt_min/./Product_8174_0_opt.xyz
  C  1.51004000 -0.36880400 -0.35484700
  H  1.29158599 -0.31258573 -1.42786023
  H  2.53549076 -0.71811610 -0.24146688
  C  1.38895967  0.97862190  0.30222550
  H  2.23315549  1.43672290  0.79080150
  O  0.27078940  1.59230988  0.53122288
  C -0.94043071  1.30345645  0.17357505
  H -1.67366924  1.99520890  0.55176605
  C -1.36646845  0.03334550 -0.51177601
  H -2.45231776 -0.01706476 -0.50258695
  H -1.04093476  0.01026991 -1.55995464
  C -0.76787627 -1.11049980  0.26093156
  H -1.44258139 -1.74654719  0.82251674
  C  0.54438583 -1.29201885  0.33428073
  H  0.95669887 -2.07342647  0.95947951
