16
opt_min/./Product_1510_0_opt.xyz
  C  2.51906600 -1.10023100 -0.61148600
  C  1.10980352 -0.92468907 -0.21785335
  C  0.63864431  0.46960173 -0.27502779
  C -0.63808442  0.74147761  0.53336755
  C -1.77734894 -0.09345438  0.04441314
  C -2.93746925  0.38950308 -0.35217984
  H -3.73175491 -0.24578971 -0.70494307
  H -3.15146201  1.44607476 -0.33560857
  H -1.57357543 -1.15673844  0.01965268
  H -0.43867862  0.50150691  1.58331130
  H -0.88837957  1.80375191  0.46620846
  H  1.40411883  1.22798735 -0.05607438
  H  0.39064110  0.57364851 -1.34610845
  H  2.47805800 -1.70282579 -1.52804432
  H  3.10746609 -0.18713390 -0.79137323
  H  3.02252871 -1.73073317  0.12113194
