11
opt_min/./Product_3120_0_opt.xyz
  C -1.87127500  0.00902100  0.13889700
  C -0.38832287 -0.07162200  0.11455110
  C  0.47607786 -0.85227655  0.86328262
  N  1.69302118 -0.45575654  0.32521039
  H  2.56816966 -0.83396880  0.64450236
  C  1.55420836  0.46405958 -0.62981539
  H  2.32455977  0.94214033 -1.19829013
  O  0.28777747  0.72579095 -0.78910112
  H -2.22550730 -0.31119979  1.11080926
  H -2.31289069 -0.64128554 -0.61629366
  H -2.20560847  1.02514042 -0.05180747
