16
opt_min/./Product_6868_0_opt.xyz
  C  2.58963400 -1.00690500  0.73423000
  N  1.17477084 -0.85477627  0.66542342
  C  0.67634469  0.07331775 -0.05242383
  C -0.72951370  0.29116604 -0.16647954
  O -1.49618142 -0.47794480  0.54962363
  C -2.77804790 -0.54329486  0.61575059
  H -3.44532518  0.07186907  0.03471038
  H -3.16735122 -1.25937363  1.31356306
  C -1.26317721  1.33624321 -1.10109740
  H -1.31098638  0.96461688 -2.12669167
  H -0.61421659  2.21049504 -1.09241036
  H -2.26138956  1.65186201 -0.80568073
  H  1.30759682  0.75844588 -0.64104343
  H  3.14277330 -0.31636895  0.07917258
  H  2.90986859 -0.84410406  1.76671456
  H  2.83966315 -2.03651777  0.47210115
