10
opt_min/./Product_10731_2_opt.xyz
  N  1.41718900  0.57902400  0.22818100
  C  0.80429260 -0.62150735  0.07273523
  O  1.42823050 -1.63185561 -0.18006220
  C -0.67943811 -0.63087731  0.18962876
  C -1.48229378  0.42116406  0.21130139
  H -1.12672907  1.43653142  0.14376337
  H -2.55112143  0.30587522  0.27863068
  H -1.08678983 -1.63174356  0.22374257
  H  2.42445700  0.60044882  0.21494236
  H  0.92588660  1.37538632  0.59364084
