10
opt_min/./Product_4810_0_opt.xyz
  O  2.68178800 -1.14685800  0.07549300
  C  1.60420034 -0.62811017  0.07333463
  C  1.28791592  0.82874342  0.32633711
  C -0.15202612  0.90338454  0.14884708
  H -0.31661204  1.60005391 -0.68137169
  H -0.61274613  1.38071796  1.01706630
  C -0.67787474 -0.51583313 -0.14261989
  H -1.33978207 -0.88260049  0.64827649
  H -1.19927341 -0.58835278 -1.10228903
  O  0.46821866 -1.33010736 -0.19090020
