11
opt_min/./Product_10843_0_opt.xyz
  C  3.00173305  0.99877698 -0.83228181
  C  1.98569156  0.40102003 -0.60180621
  C  0.80574493 -0.31693366 -0.32385308
  N -0.20183135  0.27255131  0.15545005
  C -1.39617394 -0.48447217  0.44502928
  C -2.46458518  0.41668989  0.82108804
  N -3.30775173  1.12813905  1.11536348
  H -1.22597352 -1.18053936  1.27836451
  H -1.73082346 -1.07339649 -0.42120833
  H  0.83263005 -1.39678367 -0.55963469
  H  3.88745997  1.51863770 -1.04401348
