11
opt_min/./Product_470_1_opt.xyz
  O -1.74517800  0.32047100  1.06441600
  C -0.84641871 -0.38949229  0.28056091
  H -1.03668378 -1.45013079  0.40667813
  C -0.42460540  0.11730871 -1.10120755
  H -0.79460194  1.08664744 -1.40662683
  H -0.32758854 -0.58629744 -1.91638722
  C  0.53041112  0.06096419  0.02682486
  C  1.89695810 -0.20667539  0.34395518
  H  2.72442334 -0.87492170  0.34233678
  N  1.54651330  0.96608704  0.65261272
  H -1.47977198  1.24757693  1.08525860
