10
opt_min/./Product_1861_1_opt.xyz
  C  0.17675800  0.05085000 -0.28314300
  O  0.13558758  0.76751650 -1.44420171
  H  1.03237424  0.98756360 -1.72586498
  C -1.19122084 -0.32350265  0.19000749
  H -1.85126843  0.53684652  0.08535300
  H -1.16886708 -0.65417815  1.22477212
  H -1.58729739 -1.12854702 -0.43083990
  C  1.30778915 -0.26944470  0.32897863
  H  1.30566955 -0.83404014  1.24199980
  H  2.26531237  0.02479130 -0.06964448
