7
opt_min/./Product_901_0_opt.xyz
  C -0.22734800 -0.42354400 -0.00310000
  C  1.18918726 -0.38757335 -0.04598496
  H  1.57900576  0.63827628  0.09344594
  O -1.08874329  0.68249177 -0.07871127
  H -0.60022645  1.49133107  0.11653887
  H -0.08625706 -0.78360537  1.07062031
  H -0.72296608 -1.25066619 -0.51545078
