11
opt_min/./Product_11327_0_opt.xyz
  C  2.54310428 -0.20835944  1.36038470
  C -2.75690800  8.80202426  1.26257128
  C  1.07072637 -18.41293061  63.23793340
  C  14.42591740 -0.00166155  34.84215238
  O  37.61227314 -0.29208769  27.39538183
  H  35.19790878 -0.84381853  1.64176467
  C  12.31866997  4.54961656  0.07582568
  C  11.37818107  0.71593653 -7.67819194
  H -0.24192988 -6.76854954 -9.10437082
  H  2.95342524  10.63539594 -22.83679489
  H -1.97639193 -6.70969450  9.30554673
