16
opt_min/./Product_11700_0_opt.xyz
  C  1.87278700  0.76540600 -0.28216400
  H  1.69992009  1.55469517  0.43625093
  H  2.74537890  0.87582566 -0.91366298
  C  0.70809097  0.00436274 -0.78852130
  H  0.68750047 -0.37217189 -1.80446009
  N  1.59535265 -0.55837801  0.23036203
  H  2.21692482 -1.34144460  0.05211043
  C  0.48110007 -0.41866707  1.30001327
  H  0.25245216 -1.44060611  1.65102073
  C -0.45570292 -0.00834788  0.16533779
  C -1.81897115 -0.49865317 -0.22900408
  H -2.33480009 -1.12702485  0.48401097
  H -2.03903253 -0.73828467 -1.26015398
  C -1.60772673  0.94406978  0.14225494
  H -2.00268509  1.29921311  1.08118628
  H -1.64373179  1.67247157 -0.65761942
