19
opt_min/./Product_9703_0_opt.xyz
  C  2.78854000  0.53271800 -0.36920000
  C  1.38223006  0.94728445 -0.50376988
  C  0.43854496  0.13346558  0.27735720
  H  0.86744488 -0.45609022  1.10274256
  C -0.09057207 -0.84483757 -0.80147017
  H -0.13101579 -0.34198235 -1.77251389
  H  0.55541330 -1.71599449 -0.90823492
  C -1.49346510 -1.17555762 -0.30463749
  H -2.10838630 -1.63352361 -1.08006444
  H -1.43397454 -1.87318190  0.53469602
  C -2.02904075  0.17541451  0.15295195
  H -2.83852607  0.08066230  0.87826204
  H -2.41881628  0.73343515 -0.70182733
  C -0.81345893  0.90271204  0.74413373
  H -0.76144190  1.93226211  0.38974756
  H -0.83719778  0.91556374  1.83407272
  H  2.97235044 -0.45623830  0.07789698
  H  3.34812955  0.66418265 -1.29322414
  H  3.16564244  1.27934674  0.34341414
