16
opt_min/./Product_1504_0_opt.xyz
  C -2.06940700  0.45086000  0.32360200
  C -0.68059638  0.69343257 -0.17389083
  C  0.13631820  1.56822993  0.38719621
  H  1.13862279  1.73023839  0.03106270
  H -0.16076635  2.15676162  1.24193887
  C -0.27651638 -0.10845387 -1.38889337
  C  1.11276761 -0.68003100 -1.34600479
  C  1.68173865 -1.16043760 -0.25774309
  H  2.67099430 -1.58853755 -0.27058210
  H  1.17713785 -1.12044037  0.69245819
  H  1.62106549 -0.71999771 -2.30329600
  H -0.97583631 -0.94327827 -1.51958651
  H -0.37573687  0.53663453 -2.26981130
  H -2.15036407 -0.55605303  0.74358667
  H -2.78866700  0.51637417 -0.49279938
  H -2.34603187  1.16245345  1.09913659
