13
opt_min/./Product_3969_0_opt.xyz
  C -1.76196600  0.32527200  0.24142500
  C -0.66840163 -0.62911262 -0.27465397
  C  0.66549980  0.04872430 -0.36450670
  C  1.72915374 -0.30592460  0.34267856
  O  2.94902221  0.28455696  0.30514971
  H  2.92615818  1.02543812 -0.31097382
  H  1.69918683 -1.13401720  1.03325977
  H  0.71949623  0.88419586 -1.05007027
  H -0.94263980 -0.98842933 -1.26763434
  H -0.58610405 -1.49350950  0.37946790
  H -1.32483279  1.24946085  0.60962446
  H -2.31714640 -0.11959377  1.05999826
  H -2.46837810  0.58382701 -0.54062150
