12
opt_min/./Product_5421_0_opt.xyz
  C -1.22692700 -0.51115600 -0.05560600
  C -0.10919002  0.45207755  0.19638635
  C -0.19355565  1.76407192  0.06786426
  H  0.64045872  2.40756186  0.28278740
  H -1.10508673  2.22946570 -0.25715204
  O  1.09033358 -0.09253171  0.69061728
  C  1.75303440 -0.98859828 -0.02186291
  O  1.49345309 -1.40643734 -1.11060535
  H  2.64471725 -1.29187066  0.55893062
  H -1.88060414 -0.55571526  0.81549039
  H -0.84225367 -1.50846899 -0.25054339
  H -1.81244057 -0.18816664 -0.91196941
