12
opt_min/./Product_11853_0_opt.xyz
  C -1.45008652 -0.73430811  0.41745581
  N -0.84656618  0.57655214  0.46121499
  C  0.44985368  0.66549594 -0.09150900
  C  1.17569913  1.85930070  0.10652259
  N  1.73936547  2.84485460  0.27517386
  C  1.04117529 -0.26025287 -0.82060049
  N  1.68722602 -1.10460623 -1.39898280
  H  1.65579303 -1.23967691 -2.40339547
  H -0.89335253  1.00404866  1.37990068
  H -2.44788802 -0.67031766  0.85113248
  H -0.87645003 -1.50138224  0.96009225
  H -1.54142318 -1.04833013 -0.62430770
