11
opt_min/./Reactant_2531_0_opt.xyz
  C -1.46255703  0.33866694  0.72548197
  N -0.20644183 -0.33812070  0.87796969
  C  0.65959918 -0.32824448 -0.04879472
  N  0.59540300  0.25783160 -1.28279246
  H  1.36812033  0.22365442 -1.92135135
  H -0.21392204  0.79351158 -1.53965196
  C  1.88720951 -1.02189572  0.21140445
  N  2.88184177 -1.55101739  0.41134093
  H -1.34135791  1.40119821  0.48653582
  H -2.06926938 -0.11962731 -0.06245252
  H -1.99325329  0.25143613  1.67178342
