12
opt_min/./Product_7293_1_opt.xyz
  O  1.78373500 -0.42817900 -0.77283000
  C  0.78350246 -0.06902819  0.13914993
  H  1.15845821 -0.13536346  1.18026026
  C  0.22622678  1.31308267 -0.09352666
  H  0.86018441  2.17608419 -0.20970665
  N -1.02918786  1.39913887 -0.13386765
  C -1.63438592  0.09773004  0.00174221
  H -2.29458741 -0.08412501 -0.85355431
  H -2.25408761  0.04815803  0.90116209
  C -0.49833969 -0.90611754  0.05198167
  O -0.56061765 -2.10385697  0.01069983
  H  1.82423628 -1.39340935 -0.81721864
