14
opt_min/./Product_10520_0_opt.xyz
  C -1.64530100 -1.11551700  0.98369800
  C -1.03344181 -0.16513407  0.28574184
  N -1.59102602  0.50591476 -0.80055565
  H -1.33293377  1.48287869 -0.85440349
  H -2.59177857  0.38439984 -0.86019131
  O  0.25583610  0.19827757  0.60358427
  C  1.19106507  0.17607376 -0.45220113
  C  2.53516773  0.59096641  0.08575000
  O  3.53466116  0.68218566 -0.56586813
  H  2.50902563  0.78976729  1.17170115
  H  1.27382017 -0.83521199 -0.87912197
  H  0.91155275  0.85293307 -1.27260779
  H -1.12145635 -1.64899325  1.75131155
  H -2.67750919 -1.35513324  0.81103085
