15
opt_min/./Product_9110_0_opt.xyz
  C -2.34313300  0.07669200 -0.26023200
  H -2.44851776  1.15412978 -0.22779593
  H -3.03543845 -0.43460475 -0.91802592
  O -2.08909830 -0.53023272  0.96797879
  C -1.03971413 -0.51450659  0.04972850
  C  0.15926029  0.35583886  0.36430654
  H -0.18060423  1.36493579  0.62237746
  O  0.99294300 -0.18615512  1.39741026
  C  2.14158974 -0.21571352  0.55216680
  H  2.56009767 -1.21893170  0.44827748
  H  2.92993475  0.45265289  0.90946433
  C  1.32733519  0.30871550 -0.63900946
  H  1.64010258  1.26986576 -1.02910672
  H  1.19549764 -0.39402591 -1.45518303
  H -0.79794905 -1.48262509 -0.37783666
