8
opt_min/./Product_5761_0_opt.xyz
  O -0.88703529 -0.03467732  1.31186205
  C -0.74161547  0.43726181 -0.01106747
  H -1.58314811  0.87665328 -0.51155603
  C  0.77581699  0.54194203 -0.19237416
  H  1.43213232  1.34334227 -0.47529378
  N  1.05534400 -0.64255080  0.16949943
  C -0.41383433 -0.93874266  0.38446070
  H -0.85929135 -1.89364067  0.18780898
