10
opt_min/./Product_4858_1_opt.xyz
  C -1.69144500 -0.04446500 -0.09444900
  N -0.34742622 -0.00957840 -0.58683195
  C  0.61006843  0.05186441  0.23250031
  N  1.90421770  0.02001827 -0.16859743
  H  2.64639963  0.23255855  0.47008239
  H  2.07859652  0.08682799 -1.15631126
  H  0.48626121  0.12925113  1.32826539
  H -2.10849254 -1.04309585 -0.23365288
  H -1.77345070  0.21454950  0.97139634
  H -2.28700900  0.65006541 -0.68645979
