12
opt_min/./Reactant_7072_0_opt.xyz
  O  1.98311400  1.07300200 -1.14418100
  C  1.00500355  0.53278136 -0.69051623
  N -0.22634312  1.07768191 -0.56223342
  H -0.44184394  1.98234604 -0.95455668
  C -1.21722271  0.28545004  0.12772019
  H -2.08967097  0.08414977 -0.50631963
  H -1.55677814  0.78489305  1.04037034
  C -0.46088955 -1.00190823  0.42479653
  H -0.72312901 -1.61348594  1.27735765
  O -0.05592299 -1.66657057 -0.73368687
  C  0.89937468 -0.85617142 -0.10288691
  H  1.78370443 -1.33948482  0.29002876
