17
opt_min/./Product_9546_0_opt.xyz
  C -1.86259800 -0.46379600  0.08645800
  C -0.53648201 -0.14398453 -0.60157561
  H -0.67480280 -0.18870223 -1.68786646
  C -0.04992591  1.24250659 -0.22213124
  H -0.40598104  2.11335408 -0.76114573
  O  0.16685142  1.42433280  1.15060059
  C  1.28863902  1.16895715  0.35503051
  H  2.00261834  1.98298021  0.27241456
  C  1.76715539 -0.26422986  0.38490144
  H  2.02060492 -0.55315920  1.40774644
  H  2.66112076 -0.37016763 -0.23197537
  C  0.59698665 -1.10429032 -0.16540299
  H  0.22828038 -1.79630227  0.59294359
  H  0.93202179 -1.69766923 -1.01883746
  H -2.15935856 -1.49253123 -0.11537247
  H -1.75540510 -0.33097020  1.16232282
  H -2.64174417  0.20878806 -0.26895443
