14
opt_min/./Product_2382_0_opt.xyz
  C -2.21806600  0.03265900  0.72375500
  C -1.02371368  0.17913871 -0.20408136
  O  0.13283047 -0.24257847  0.48460933
  C  1.31183325 -0.11017819 -0.26657426
  C  2.48776237 -0.43796400  0.60001383
  C  3.76938339 -0.44436570  0.63185439
  H  2.18348594 -0.82975175  1.57848831
  H  1.41979155  0.92032502 -0.64568053
  H  1.29787510 -0.78346144 -1.14090727
  H -1.16871621 -0.43134779 -1.10771451
  H -0.90633694  1.22808593 -0.51401582
  H -2.31082785 -0.99627373  1.05543177
  H -3.12573732  0.31544429  0.19691224
  H -2.10870885  0.66902747  1.59479742
