16
opt_min/./Product_8624_0_opt.xyz
  C -1.50573400  0.44656800 -0.75583200
  C -0.53407992  0.18815003  0.37665595
  H -0.64914115  0.91481119  1.17641468
  C -0.42294564 -1.25868023  0.88358407
  H -0.99606699 -1.99028091  0.31091191
  H -0.59464866 -1.42133684  1.94684857
  O  0.97016744 -1.31386299  0.55150550
  C  0.96038299 -0.00008865  0.01711423
  O  1.23639048 -0.00833797 -1.35627881
  H  1.82174026 -0.75234500 -1.53388180
  N  1.82717982  0.87559138  0.74948901
  H  1.72435548  1.81510027  0.38766453
  H  2.79296882  0.58796126  0.65042100
  H -1.22526087 -0.13680627 -1.62663970
  H -1.48953791  1.49724018 -1.03042670
  H -2.51268199  0.18300938 -0.44733182
