13
opt_min/./Product_9610_1_opt.xyz
  O -2.39626300  0.69428100  1.08052100
  C -1.36748168  0.36546726  0.56543700
  C -0.99269072 -0.82334424 -0.32839984
  H -1.35733663 -0.82445050 -1.35369579
  H -1.24433363 -1.77031205  0.14576989
  C  0.46644451 -0.42041428 -0.11342102
  O  1.42576913 -1.36616735  0.12367759
  H  2.25577373 -0.92880702  0.34694880
  C  0.67687947  0.94241794 -0.65648056
  H  0.06271993  1.30715509 -1.46977664
  H  1.68869246  1.32334065 -0.67570914
  C  0.04170647  0.80395092  0.72293672
  H  0.46242807  1.26090869  1.60187060
