7
opt_min/./Product_3451_1_opt.xyz
  C  0.03751000  1.04177800 -0.75538500
  C  0.72873892 -0.08307980 -0.08900720
  H  1.38176707  0.15593774  0.73610555
  H  1.10842573 -0.87004565 -0.72096404
  C -0.74490836  0.10510761  0.08030470
  H -1.13339617  0.44578220  1.02506943
  H -1.41370933 -0.54089219 -0.46760482
