15
opt_min/./Reactant_1566_0_opt.xyz
  C  0.06304600  1.37129700 -0.36912100
  C  0.07697133 -0.04535612  0.21806947
  C  1.15828636 -0.89162086 -0.45288353
  H  0.93513233 -1.01270568 -1.51015235
  H  2.12524492 -0.40349604 -0.34777469
  H  1.20556565 -1.86733366  0.02336464
  C -1.29843930 -0.69920712  0.03165615
  H -2.06791284 -0.12333808  0.54687209
  H -1.28933010 -1.70731882  0.44296727
  H -1.55326940 -0.74985887 -1.02403520
  O  0.41032202  0.00063696  1.59698750
  H -0.23931731  0.54814345  2.05256954
  H -0.07519612  1.33321736 -1.44764435
  H  1.01167993  1.86301107 -0.15703086
  H -0.74148114  1.95993504  0.07080904
