16
opt_min/./Product_8124_0_opt.xyz
  C  2.80690900 -0.03489800  0.07380700
  N  1.54053524 -0.26308286  0.26239409
  C  0.51892263  0.45506501 -0.45894190
  O  0.90107774  1.25695146 -1.31107919
  C -0.77488463  0.13810959 -0.07008265
  C -1.88284151  0.92759402 -0.68468407
  H -1.48850361  1.51751968 -1.50743919
  H -2.67944206  0.27916370 -1.05039643
  H -2.32173632  1.60825897  0.04889452
  C -1.15166561 -0.89287435  0.94913592
  H -2.21284715 -1.11574231  0.85362668
  H -0.61117979 -1.83176777  0.81948940
  H -0.99264376 -0.53936038  1.97232131
  H  1.23756318 -0.88850703  1.00044409
  H  3.06673249  0.67921272 -0.68924378
  H  3.55882948 -0.52695419  0.66159339
