17
opt_min/./Product_9651_0_opt.xyz
  C  1.77504000  1.33573600  0.43076700
  C  0.77260122  0.22613756  0.27453568
  C  0.89002300 -0.91257921  0.93771841
  H  1.69881235 -1.06814784  1.63089679
  H  0.19357470 -1.72526177  0.83212148
  C -0.32148998  0.52962792 -0.71607318
  C -1.29735615 -0.61164168 -0.97591825
  C -2.11860938 -0.98370407  0.22647617
  O -2.81594445 -1.95655868  0.30392597
  H -2.06613590 -0.25595971  1.06211624
  H -1.99804889 -0.33055823 -1.76698973
  H -0.77447158 -1.50068761 -1.33259365
  H -0.87549792  1.40431363 -0.36209129
  H  0.14772617  0.81724213 -1.66107688
  H  2.53102870  1.26328045 -0.35011526
  H  2.27660619  1.27263030  1.39149662
  H  1.29726837  2.30786865  0.34349609
