9
opt_min/./Product_5950_0_opt.xyz
  N -0.14632596 -1.10418995  0.49038013
  H  0.41494292 -1.66809999 -0.13729677
  C -1.00340676 -0.15968544 -0.17087413
  H -1.94851374  0.01460974  0.32106047
  H -1.04665243 -0.13267309 -1.25238812
  C  0.23485906  0.29560785  0.52012969
  C  1.33029450  0.76099788 -0.26035797
  N  2.20609405  1.11660780 -0.90521481
  H  0.14255975  0.76597862  1.49278665
