8
opt_min/./Product_5124_0_opt.xyz
  O  0.22089699 -0.97906701 -0.19316500
  C -0.99171327 -0.42400720 -0.01750744
  C -1.29640683  0.79659593  0.43137285
  C -1.64372191  1.94695741  0.82919005
  H -1.77330684 -1.12530935 -0.30624459
  C  1.36320215 -0.30852169  0.09300776
  O  1.45466015  0.79469278  0.51369477
  H  2.20376531 -0.98299791 -0.13948901
