17
opt_min/./Product_7427_0_opt.xyz
  C  2.04030300  0.32785100 -0.19894900
  C  0.74806720 -0.43457606  0.07907714
  H  0.96181480 -1.49202008  0.26830008
  C -0.38797020 -0.15607642 -0.92425814
  H -0.17117053 -0.07405942 -1.98482515
  C -1.53552822 -1.04445569 -0.42766200
  H -2.43331141 -0.95248110 -1.03548693
  H -1.32277091 -2.10363193 -0.25300994
  C -1.58070813 -0.11781331  0.77226272
  H -2.37473879 -0.04988204  1.49897792
  C -0.14888004  0.25783191  1.09274336
  H  0.15467471  0.63004979  2.05692593
  C -0.89784599  0.98057081  0.00921696
  H -1.15206576  2.01104497 -0.15104155
  H  1.89521351  1.05461673 -0.99809727
  H  2.36803911  0.86709540  0.68948927
  H  2.83619859 -0.35018331 -0.49545258
