11
opt_min/./Product_2659_0_opt.xyz
  C  1.52773200 -0.37718100 -0.01696400
  N  0.29853905  0.05694513 -0.02140679
  C -0.90564417 -0.76383932  0.13693837
  H -0.91733893 -1.26950193  1.10565347
  H -0.98492452 -1.51572632 -0.65165057
  N -1.99634521  0.18025458  0.05371705
  N -1.51365560  1.33612459 -0.11588470
  C -0.18395367  1.31752070 -0.16685540
  H  0.43135545  2.17993242 -0.30548606
  H  1.72657113 -1.42255978  0.11172565
  H  2.33405972  0.31917760 -0.13986494
