16
opt_min/./Reactant_11355_0_opt.xyz
  C -1.64111900 -1.11484000  0.05527000
  C -0.24394688 -0.59433958  0.01458864
  C  0.22997862  0.69464259 -0.02470468
  C -0.57506045  1.95057859 -0.03310365
  H -1.63225608  1.72557508 -0.15213921
  H -0.44661196  2.49948730  0.89954615
  H -0.26323441  2.59876748 -0.85070326
  C  1.64402536  0.61149277 -0.04303494
  H  2.32306219  1.44010766 -0.07268816
  C  1.97966208 -0.71190429 -0.02422546
  H  2.94463900 -1.17766375 -0.03367167
  N  0.82915747 -1.43713016  0.01362855
  H  0.77515479 -2.44185121  0.03488744
  H -1.64553175 -2.19911799 -0.02686016
  H -2.22898335 -0.70482927 -0.76518297
  H -2.13176899 -0.83539400  0.98793748
