19
opt_min/./Product_6724_0_opt.xyz
  C -1.17930000 -1.71097700 -0.07960300
  C -0.06511128 -0.74224121  0.19027343
  C -0.48700819  0.68724878  0.40828222
  C -0.84496623  1.37770472 -0.91516412
  O -1.08594196  2.75413371 -0.75306526
  H -1.83619343  2.86663580 -0.15758224
  H -1.71409853  0.88553669 -1.37661084
  H -0.00133530  1.30654306 -1.60685544
  H  0.32263888  1.25136312  0.87306810
  H -1.35237692  0.71897752  1.07826809
  C  1.20551433 -1.12577193  0.20477173
  C  2.39124502 -0.23879894  0.43642552
  H  2.39470121  0.14567225  1.45981556
  H  3.31378877 -0.79244740  0.28284444
  H  2.37826821  0.61867611 -0.23628476
  H  1.43626818 -2.17188745  0.03969343
  H -1.98853780 -1.57186926  0.63683347
  H -0.82291507 -2.73648124 -0.01865226
  H -1.58656596 -1.55245779 -1.07932674
