10
opt_min/./Product_6117_0_opt.xyz
  C  0.72426900 -0.73320300 -0.09026000
  H  1.26967774 -0.98301192 -1.00982486
  H  1.10849297 -1.35702190  0.72792019
  C  0.81586683  0.73269797  0.24660655
  H  1.74006500  1.24148602  0.44776626
  N -0.30405109  1.30170351  0.27267501
  C -1.30511823  0.33207556 -0.03842031
  H -1.86027623  0.65411958 -0.92897747
  H -2.01402891  0.25459510  0.79679781
  O -0.66454144 -0.92249473 -0.26607971
