12
opt_min/./Product_5071_0_opt.xyz
  C -1.57358392 -0.34103609 -0.70889139
  C -0.25663039 -0.72840739 -0.13231891
  C  0.71739974  0.13492186  0.19486485
  N  1.96785629 -0.24388635  0.70249922
  H  2.50450566  0.53701651  1.05484815
  H  1.93755448 -1.00190081  1.36839663
  C  0.54835132  1.52795306 -0.00767460
  N  0.45015708  2.66817616 -0.09203115
  H -0.10043980 -1.77984135  0.06984567
  H -1.86233964 -1.03863652 -1.49356884
  H -1.55042483  0.66927438 -1.10786927
  H -2.34699050 -0.39285486  0.06069543
