13
opt_min/./Reactant_2204_0_opt.xyz
  C -1.57506200 -0.70760200  0.03791000
  C -1.00293782  0.68272741  0.02111764
  O -1.67694441  1.68129323  0.10427814
  C  0.47861843  0.77007412 -0.14312454
  H  0.83540009  1.78251627 -0.30285927
  C  1.38906442 -0.17590681  0.56799824
  H  2.34204403  0.21862223  0.89807357
  H  0.97131160 -0.94138017  1.20104197
  N  1.12664093 -0.33446479 -0.83062541
  H  1.88565081 -0.06608306 -1.44499700
  H -0.99484592 -1.36265190 -0.60041082
  H -2.61199095 -0.67301365 -0.28144890
  H -1.54656532 -1.08805394  1.05487675
