10
opt_min/./Product_7947_0_opt.xyz
  O  1.78824700 -0.63808800  0.10632800
  C  0.53563257 -0.16049016  0.13036031
  C  0.15180312  1.17769862  0.11934722
  H  0.87519704  1.97811577  0.18612575
  N -1.12763923  1.50618597  0.03396876
  N -2.01563656  0.59426691 -0.20379815
  C -1.77277290 -0.70683625 -0.04032728
  N -0.46646346 -1.04727346  0.22747148
  H -0.22825955 -2.01704084  0.41088955
  H  2.43909593  0.06713014 -0.00818848
