12
opt_min/./Product_3867_0_opt.xyz
  C -0.64145300  0.01995300 -0.65772600
  H -1.27520172  0.11219074 -1.51583336
  C  0.00965841  0.98292768  0.33114395
  H -0.09396687  2.05463954  0.36266740
  C -1.04379378  0.08021096  0.87155157
  H -1.97281445  0.42426442  1.29221237
  C -0.73095844 -1.26772076  0.48627339
  C  0.50066568 -0.95585491 -0.28187837
  H  0.93839863 -1.69648175 -0.93415767
  C  1.30835782  0.20131090  0.30378834
  H  1.79414360  0.02616012  1.26485819
  H  2.02843099  0.60233179 -0.40789391
