12
opt_min/./Reactant_3867_0_opt.xyz
  C -0.11061900 -0.93608600 -0.55778000
  H -0.22739605 -1.84111353 -1.12364557
  C -0.85049938  0.37401929 -0.66449377
  H -1.65100141  0.67437597 -1.31478681
  C -0.87737079 -0.40679940  0.62505349
  H -1.71239592 -0.81337213  1.16460578
  C  0.38118331  0.34687960  1.10217746
  H  0.71251285  0.62112185  2.08690130
  C  1.14598822 -0.17984124 -0.07702364
  H  2.19432271 -0.39336214 -0.18008458
  C  0.40329117  1.12759921 -0.18872183
  H  0.74808420  2.12190164 -0.40194272
