16
opt_min/./Product_9630_0_opt.xyz
  C -2.40472300  0.42475800 -0.40939300
  C -0.96576705  0.71361495 -0.77296668
  N -0.28133772 -0.56512117 -1.22095729
  H -0.77471132 -1.46121993 -1.22854677
  H  0.42765609 -0.46933663 -1.93947734
  C  0.00072388  0.00559761  0.11090663
  C  1.39232681  0.49488035  0.36814416
  H  1.50535042  0.90945418  1.36918656
  C  2.59565688 -0.08156701 -0.25001298
  H  3.53234151 -0.06783516  0.29829280
  H  2.51503114 -0.88355454 -0.97773777
  O  2.09233515  1.16397280 -0.63681736
  H -0.31428382 -0.67100840  0.91808428
  H -2.72665742  1.16459244  0.32071408
  H -3.03663939  0.52822971 -1.29120984
  H -2.57548050 -0.57506600  0.02500397
