15
opt_min/./Product_6885_0_opt.xyz
  C -1.04529500  1.23846300 -0.19010600
  C -0.55317984 -0.18755751 -0.09248217
  O  0.74872383 -0.39396329 -0.60043529
  C  1.79670769 -0.02054820  0.26106747
  O  2.99864342 -0.36655682 -0.31890960
  H  2.89930466 -1.23857238 -0.72109476
  H  1.82852208  1.06805825  0.41636727
  H  1.65062314 -0.51509975  1.24407596
  C -1.47787898 -1.34975670 -0.20096620
  H -2.04616995 -1.92928918 -0.88569358
  C -1.02701109 -1.11053605  0.99935273
  H -0.99075089 -1.40582443  2.01879805
  H -1.16861832  1.53376810 -1.22860774
  H -1.99915669  1.32796650  0.32307619
  H -0.34468935  1.92912094  0.27511726
