11
opt_min/./Product_5447_0_opt.xyz
  O  2.52843700 -0.50286300 -0.34828900
  C  1.25212842 -0.18106766 -0.20322067
  N  0.78068721  0.99048543 -0.18901346
  C -0.64740511  0.87471019 -0.00030854
  H -1.16885791  1.35103947 -0.83184063
  H -0.93946943  1.38131534  0.92161961
  C -0.89123520 -0.66321423  0.05925746
  H -1.33065859 -0.98803120  1.00420422
  H -1.50253602 -1.02467444 -0.76999862
  O  0.41288307 -1.22713529 -0.05574213
  H  3.05724036  0.30181000 -0.41484283
