13
opt_min/./Product_6676_1_opt.xyz
  C -1.26139800 -0.65625500 -0.51816300
  C -0.43214217  0.21561820  0.44045204
  O -1.04400241  1.48509793  0.58177066
  H -0.51906962  2.12920016  0.09672602
  C  0.98052086  0.30513092 -0.04522107
  C  1.98839256 -0.41320556  0.40719043
  H  2.98001759 -0.33067605  0.00034225
  H  1.86966420 -1.12059095  1.21302783
  H  1.13136410  1.00751690 -0.85891651
  H -0.44078315 -0.26148381  1.42843928
  H -0.86834960 -1.66639913 -0.52504707
  H -2.29100828 -0.68228706 -0.18042658
  H -1.24837770 -0.24810578 -1.52306020
