7
opt_min/./Product_3664_1_opt.xyz
  C -0.17631620 -0.60033090 -0.45789130
  N -6.56479807 -7.59701689 -2.35725147
  O  5.61591202  2.89840487  5.13279637
  H  7.32747172  1.28010300  12.33537576
  C -4.26529492 -4.86369302 -9.09719535
  H -19.14698441 -13.92753932 -15.24960859
  H  1.55226941 -5.88634044  7.45068686
