13
opt_min/./Product_9774_0_opt.xyz
  O -0.87387251 -1.19625870  1.20982746
  C -13.94744606 -3.16874416 -1.09301973
  C  12.11850867 -11.34647250  22.52750877
  C -20.11687342 -15.18076751  3.43422673
  C  13.01359272  9.05595513  30.50816841
  H  4.27451392 -9.42344658  27.36624351
  H -28.10758058  6.73702926  47.73813076
  C -0.15506651 -20.97754297  12.36263383
  O  4.26555727 -3.17902167 -23.07056589
  H -10.17684794 -6.41742008 -1.42699191
  H  61.57848136  46.88319545  27.82167346
  H  2.83695531  10.72301288  30.73421900
  H  23.14619332  1.61660491  14.22201566
