12
opt_min/./Product_10011_0_opt.xyz
  C -1.76797800 -0.20242200  0.49706500
  O -0.40355956 -0.52416607  0.46781195
  C  0.39389634  0.48718994 -0.09532601
  C  1.84016848  0.07492304 -0.06526358
  N  2.31897963 -0.98393453  0.39386221
  H  1.61324945 -1.61275127  0.78085784
  H  2.52320544  0.80333126 -0.49871762
  H  0.09353539  0.68830262 -1.13790078
  H  0.28419361  1.43132849  0.46889714
  H -2.27755921 -1.05379496  0.94478072
  H -1.95270590  0.69419200  1.10410750
  H -2.15728449 -0.03063642 -0.51447939
