9
opt_min/./Product_11851_0_opt.xyz
  C -1.17661800 -0.27354901 -0.14218601
  N -0.25613090  0.69595728 -0.64794156
  C  0.95500052  0.71620285 -0.30181626
  C  1.59085673 -0.19657336  0.59152230
  N  2.07186842 -0.94592724  1.31312738
  H  1.58835674  1.49243364 -0.71927816
  H -1.48348687 -0.00907363  0.86911922
  H -2.05268001 -0.26574295 -0.78514416
  H -0.75420487 -1.27940575 -0.10220180
