13
opt_min/./Product_6386_0_opt.xyz
  C  0.20911100 -1.10139900 -0.11054800
  H  0.41976515 -1.67930876 -1.01596948
  H  0.12417029 -1.80819193  0.72136379
  C  1.32799018 -0.13190428  0.15299730
  H  2.32045276 -0.54188170  0.23873389
  C  1.14129951  1.16825858  0.30368497
  H  1.94470212  1.86786732  0.49679388
  O -0.05245858  1.83734695  0.24712841
  C -1.15886788  1.08273158 -0.07494149
  H -2.06087550  1.56837690  0.29075085
  O -1.24892654  0.51691162 -1.34302407
  C -1.10659762 -0.36906970 -0.25798904
  H -1.99321381 -0.95665661 -0.03400875
