14
opt_min/./Product_6833_0_opt.xyz
  C  1.87695900  0.00422900  0.12440900
  C  0.51721308 -0.04297189 -0.52723462
  H  0.54592709  0.16598561 -1.59510995
  C -0.47628705 -1.04661455 -0.05571772
  H -0.36022718 -1.86403709  0.62567328
  C -1.71658699 -0.40526006 -0.54464128
  H -2.65099507 -0.65747973 -0.05891601
  H -1.82333879 -0.19522273 -1.60368286
  C -0.71526421  0.43910766  0.22990379
  N -1.04619154  1.28340941  1.21746480
  O -0.17438218  1.91859960  1.82336911
  H  2.34816083  0.96664068 -0.06911198
  H  1.79329795 -0.12541901  1.20179089
  H  2.52198367 -0.77889775 -0.27584235
