14
opt_min/./Product_7832_0_opt.xyz
  C -2.12572700  0.17260400  0.60189500
  C -0.97562042  0.05898264 -0.41364918
  C  0.17016858 -0.58677782  0.25174383
  C  1.45296738  0.13341828  0.07328592
  C  2.62861453 -0.46936175  0.80546017
  O  2.63411199 -1.48829095  1.42894863
  H  3.55837213  0.13398392  0.69691732
  H  1.34405999  1.18453651  0.37880827
  H  1.70462384  0.17982514 -0.99587382
  H -1.29237366 -0.64466237 -1.18991533
  H -0.77987650  1.03547156 -0.88418535
  H -2.47043813 -0.81259179  0.90025865
  H -2.95523560  0.72312707  0.16220557
  H -1.79355605  0.70136436  1.49251359
