17
opt_min/./Product_7095_0_opt.xyz
  C  0.23313100 -1.22358900  0.40751500
  H  0.55939204 -2.13247254 -0.09129343
  H -0.00127847 -1.44841464  1.44436101
  C  1.31348230 -0.13552157  0.33191666
  O  2.17603318 -0.40451332 -0.75871379
  H  2.44443571  0.41788416 -1.17573026
  H  1.92944550 -0.14662777  1.24329758
  C  0.54273556  1.19693677  0.19147018
  H  0.83052287  1.92262290  0.94986502
  H  0.75935615  1.62856902 -0.78589187
  C -0.94217473  0.84310340  0.27763151
  H -1.26866724  0.84083920  1.31664890
  H -1.57154035  1.53059733 -0.29081773
  C -1.00037926 -0.59868085 -0.23946985
  O -2.15976669 -1.31092992  0.11621981
  H -2.92080724 -0.92006675 -0.32091884
  H -0.86877321 -0.59903801 -1.33409187
