12
opt_min/./Product_9613_0_opt.xyz
  C -2.71494387  0.29183974  0.32970946
  O -1.31326610  9.97097131  19.16588893
  N  20.15515809 -5.47330183  6.83002967
  C -35.44602167  17.48334244 -10.55124679
  C -36.38462331  15.25042086 -5.76364426
  C -1.68767054 -10.34169777  0.75219078
  O  6.43843656 -9.98796000  5.06283358
  H  15.40100907  7.53404694  5.60612573
  H  37.40132579 -23.13517332 -0.30459872
  H -4.70956469 -3.69915031  9.62285544
  H -5.44399352 -7.45470352  0.58965252
  H -2.83821077  5.41391353 -6.10293441
