12
opt_min/./Product_332_0_opt.xyz
  C  1.35726700 -0.18330600  0.63562300
  H  1.81383738 -1.16658446  0.56109997
  C  1.23689382  0.58227781 -0.58206088
  H  1.57094184  0.21188817 -1.55459587
  H  1.16346862  1.66143687 -0.55789170
  C -0.03094512 -0.02104086  0.09724006
  C -0.88162212 -1.05994963 -0.29088281
  H -0.81248877 -2.04196316 -0.71599182
  O -2.03062090 -0.51870815  0.21877836
  C -1.28664505  0.65024527  0.64395515
  H -1.64520151  1.55224868  0.15028310
  H -1.30975292  0.75864370  1.72642716
