15
opt_min/./Product_10486_0_opt.xyz
  C  2.29318395 -0.62947011 -0.28347046
  C  0.83927791 -0.36912133 -0.33260056
  C -0.25167763 -1.01904185 -0.73677951
  H -0.44172983 -1.98902926 -1.15042069
  C -1.16795814  0.16937713 -0.42756081
  N -2.44941155  0.05546978  0.13432002
  H -3.10230547 -0.35264430 -0.53063835
  H -2.79063579  0.96876227  0.41680688
  C  0.04732641  0.90667401  0.01070304
  H  0.19604176  1.57908197  0.83770408
  N -0.69647925  1.33573483 -1.16321886
  H -0.23685787  1.15742434 -2.05553403
  H  2.65241816 -0.56820735  0.74499496
  H  2.83509950  0.11979140 -0.86222872
  H  2.51426208 -1.62030814 -0.67465033
