13
opt_min/./Product_9768_0_opt.xyz
  O  2.40065300 -1.19098500  0.71396900
  C  1.46945599 -0.22536512  1.11237315
  C  0.79646377  0.45219789 -0.06064282
  C -0.47946714  0.61960099 -0.17579407
  C -1.77725145  0.71265447 -0.28976530
  C -2.57571914 -0.30099438 -0.97825304
  O -3.77442477 -0.26764569 -1.08033184
  H -1.96612527 -1.10582545 -1.42598573
  H -2.32636777  1.54990723  0.11058620
  H  1.46880693  0.81408235 -0.82570886
  H  0.72394153 -0.75075564  1.71536767
  H  1.95117476  0.55169492  1.72982242
  H  3.08169326 -0.77486779  0.17046899
