10
opt_min/./Product_5482_0_opt.xyz
  O  2.24448500 -0.04640600 -0.24072700
  C  0.95191295  0.06348202 -0.58292394
  C -0.11176880 -0.68543768 -0.03646459
  H -0.02107601 -1.67488408  0.38887909
  C -0.80145493  0.41620611  0.68551236
  H -0.48284397  1.44921826  0.58043288
  N -1.37656976 -0.13075317 -0.53666013
  H -2.13276875 -0.78058294 -0.32759467
  H  0.76344259  0.86358649 -1.27777220
  H  2.38697132 -0.79323575  0.35681713
