14

C     -2.241359   -0.152641    0.719153
O     -1.035560   -0.562353    0.158139
C     -0.443949    0.444074   -0.597176
C      0.806866   -0.072289   -1.142811
C      1.943739   -0.147468   -0.512547
C      2.803440   -0.311202    0.461486
H      3.428276    0.521842    0.612951
H      2.880285   -1.181393    1.053476
H      0.842408   -0.429131   -2.130026
H     -1.101125    0.827745   -1.402366
H     -0.180811    1.323942    0.059517
H     -2.109857    0.715505    1.388298
H     -2.571855   -0.996852    1.386424
H     -3.020497    0.020220   -0.054519
