12

N     -1.542407   -0.096702    0.711568
C     -0.764170    0.148365   -0.544039
H     -1.373636    0.508531   -1.335861
C      0.264872    1.099584   -0.117047
H      0.219451    2.208018   -0.114800
C      1.375477    0.398434    0.265181
H      2.195226    0.693424    0.737355
C      1.091329   -0.949481   -0.315419
H      1.872539   -1.718333   -0.378319
N     -0.034755   -1.048566   -0.794423
H     -0.923184   -0.597205    1.365561
H     -2.380742   -0.646071    0.520244
