13

O      1.157003   -0.099743    3.031865
C     -0.040451   -0.344897    2.370650
C      0.037346    0.032879    0.955726
C      0.115777    0.364709   -0.222520
C      0.184144    0.764634   -1.629448
H      1.144151    1.185471   -1.994048
C     -0.659845   -0.039860   -2.597093
H     -1.322711   -0.818219   -2.192225
H     -0.202481   -0.153274   -3.598529
O     -1.000413    1.248430   -2.160333
H     -0.242883   -1.445806    2.479467
H     -0.888191    0.223767    2.807579
H      1.718554   -0.918090    3.033395
