13

C     -1.290926   -0.710477    0.007760
C     -0.068067   -0.118877   -0.649832
H      0.080054   -0.389047   -1.712625
C      1.159132    0.173175    0.115268
O      1.226344   -0.304231    1.413828
H      1.055005   -1.275927    1.462008
H      2.137664    0.137173   -0.413574
C      0.251648    1.275045   -0.260231
H     -0.263347    1.777899    0.591418
H      0.512146    1.973788   -1.068048
H     -1.029341   -0.971099    1.044976
H     -1.650095   -1.584631   -0.562810
H     -2.120215    0.017209    0.031862
