12

C     -2.384846    0.269327    0.093470
C     -1.062257    0.355969   -0.595147
C     -0.024345   -0.506764   -0.038162
C      1.184859   -0.067819    0.179575
C      2.594146   -0.047653    0.580065
H      3.376695   -0.361059   -0.159482
H      2.854797    0.019577    1.649051
O      1.953470    1.180280    0.028629
H     -0.248295   -1.550748    0.208956
H     -2.558168   -0.720598    0.583296
H     -2.512016    1.098058    0.828500
H     -3.174041    0.331429   -0.710981
