12

C      1.798244    0.419991   -0.233894
C      0.950033   -0.499298    0.166112
C     -0.496414   -0.444581   -0.199296
H     -0.827371   -1.118544   -1.009760
C     -1.462658   -0.268678    0.912067
H     -1.067815   -0.117155    1.935624
H     -2.492904   -0.636492    0.834317
N     -1.196584    0.798902   -0.080745
H     -0.755133    1.634099    0.325554
H      1.275983   -1.343980    0.785906
H      1.435085    1.233804   -0.842230
H      2.839533    0.341933    0.054115
