11

O      2.565561    1.009913    0.129680
C      1.704633    0.099818    0.246593
C      0.715081   -0.729654    0.193702
N     -0.463451   -0.606318   -0.553558
C     -1.578898    0.189859   -0.133496
H     -1.289881    0.906255    0.683181
H     -1.995424    0.827092   -0.947620
H     -2.376458   -0.512205    0.202850
H     -0.532494   -1.118982   -1.459942
O      0.914961   -1.827399    0.983953
H      2.336369    1.761622    0.750488
