12

C      1.496849   -0.643875   -0.118415
C      0.555274    0.283390    0.602933
H      0.595391    0.264593    1.709431
C     -0.052548    1.420940   -0.040409
H     -0.012251    2.446814   -0.380880
N     -0.786473    0.350246    0.033085
C     -1.998330   -0.314914   -0.229195
H     -2.080517   -1.379905   -0.227292
H     -2.911282    0.239666   -0.447149
H      2.081406   -0.113705   -0.904148
H      0.904306   -1.424831   -0.604524
H      2.208174   -1.128420    0.606562
