16

C     -2.060096   -0.023799   -0.185488
C     -0.944092    0.375346   -1.105381
H     -1.289997    0.559793   -2.156867
N      0.024199    1.344177   -0.563632
H     -0.123680    1.647982    0.412118
C      0.451145    0.013503   -0.888383
C      0.896338   -0.935571    0.174328
O      1.955275   -0.524206    0.892875
C      2.826875    0.219302    0.562158
H      2.944556    0.715652   -0.384244
H      1.201775   -1.887549   -0.346311
H      0.093697   -1.230198    0.877622
H      1.104130   -0.019875   -1.809606
H     -2.649640   -0.815737   -0.708922
H     -1.740762   -0.340722    0.806218
H     -2.689723    0.901901   -0.033607
