11

O      2.357021    1.487302    0.401041
C      2.111485    0.285099    0.203246
C      0.727767   -0.133950    0.047096
O     -0.316274    0.773215    0.113808
C     -1.639909    0.347084   -0.031246
H     -2.348617    1.193869    0.047596
H     -1.744881   -0.059859   -1.061652
H     -1.944820   -0.461115    0.650319
N      0.435035   -1.357916   -0.157188
H     -0.539072   -1.632077   -0.263968
H      2.902266   -0.441652    0.146776
