14

C     -1.711601    0.028945    0.593313
C     -0.635323    0.180763   -0.467599
H     -1.071947    0.565635   -1.417386
C      0.592548    0.875088   -0.059573
H      0.604904    1.348933    0.947995
H      0.930398    1.599418   -0.843279
C      1.327108   -0.386161   -0.176696
C      2.595300   -0.775798    0.006383
H      3.342801   -0.066234    0.316709
C      0.127453   -1.062073   -0.574949
H     -0.132708   -2.097509   -0.852917
H     -2.197918   -0.953166    0.401736
H     -1.270058   -0.050131    1.611902
H     -2.500956    0.792289    0.514361
