13

C      0.661788    1.308972   -0.642198
N      0.391175    0.252402    0.007378
C      1.257845   -0.910057    0.059448
H      0.894756   -1.631316   -0.681011
H      2.328641   -0.638082   -0.058476
H      1.167479   -1.367088    1.066540
C     -0.818558    0.177432    0.730936
C     -1.901870   -0.241628    0.142454
O     -1.866587   -0.613086   -1.191413
H     -2.856741   -0.320526    0.644309
H     -0.818123    0.470618    1.760621
H     -0.012265    2.131269   -0.644323
H      1.572459    1.381090   -1.194265
