12

C     -0.378309    1.690045   -0.578971
C     -0.285164    0.275485   -0.049914
C      1.076459   -0.386541   -0.070410
O      1.814214    0.002977    1.064527
H      2.668489    0.417701    0.798254
H      0.942385   -1.486124   -0.090352
H      1.612637   -0.126076   -1.005260
C     -1.468917   -0.634401   -0.147393
H     -1.295661   -1.726434   -0.253311
H     -2.352137   -0.207111   -0.650649
O     -1.109950   -0.022792    1.070160
H     -1.224046    2.203272   -0.086680
