15

C      2.666642    0.238270    0.260384
N      1.528530   -0.679935    0.251865
C      0.289329   -0.309172   -0.338787
N     -0.259475    0.660549   -1.170173
C     -1.125954   -0.355745   -0.680901
C     -2.105827   -0.004273    0.448348
O     -2.918665    1.009339   -0.038187
H     -2.753347    1.219901   -0.972376
H     -2.645485   -0.884362    0.790862
H     -1.527141    0.427650    1.296362
H     -1.432913   -1.190377   -1.334514
H      1.600680   -1.613376    0.673083
H      2.484918    0.933241    1.111485
H      2.581186    0.828048   -0.677667
H      3.617521   -0.279757    0.380214
