16

C      2.613128   -0.030684   -0.645235
C      1.330300    0.215612    0.067691
O      1.344924    0.673766    1.182051
C      0.040768   -0.106163   -0.602140
C     -1.125640    0.224910    0.306335
C     -2.445870   -0.092747   -0.351514
H     -2.373128   -1.037728   -0.940979
H     -3.179751   -0.272794    0.460835
H     -2.818706    0.743321   -0.974301
H     -1.144961    1.285234    0.593120
H     -1.062579   -0.395052    1.224137
H      0.009492   -1.199466   -0.804076
H     -0.046942    0.388984   -1.587267
H      2.437550   -0.464220   -1.646731
H      3.170783   -0.806715   -0.070216
H      3.250632    0.873740   -0.668833
