13

O      3.082213    0.212774    0.510957
C      2.059693   -0.427073    0.118843
C      0.726119    0.119619    0.219715
C     -0.409888   -0.593329   -0.388398
C     -1.723852    0.098572   -0.198818
H     -1.768558    1.080944   -0.707248
H     -2.009748    0.192450    0.859811
H     -2.502820   -0.531796   -0.680152
H     -0.205418   -0.677213   -1.475078
H     -0.513867   -1.626896    0.036987
C      0.548437    1.232126    0.845388
O      0.448656    2.331402    1.437856
H      2.269033   -1.411580   -0.295378
