10

C      1.251497    1.541390    2.024333
C      0.295749    0.977673    1.502923
C     -0.797754    0.338115    0.880930
C     -0.547774   -0.446466   -0.108965
C     -0.214153   -1.179126   -1.148703
N     -0.179775   -0.509092   -2.363458
O     -0.047273   -0.961812   -3.497354
H     -0.012573   -2.192583   -0.914323
H     -1.829177    0.413290    1.145305
H      2.081232    2.018611    2.479312
