15

C     -0.467695   -1.324214    0.152094
C     -0.481417    0.188025    0.241778
N      0.805693    0.648372   -0.262965
C      1.896321    0.130406    0.501635
H      2.394185   -0.743087    0.029055
H      1.593772   -0.198120    1.525814
H      2.710346    0.889212    0.649347
H      0.858518    1.694636   -0.223712
C     -1.565322    0.683566   -0.596308
N     -2.417833    1.092116   -1.254627
O     -3.402589    1.585877   -2.023191
H     -0.624304    0.449161    1.308954
H     -0.977796   -1.787172    1.015965
H     -0.910432   -1.611889   -0.802216
H      0.588554   -1.696887    0.191473
