13

C     -1.236937    0.804873    0.737232
C      0.200421    0.437719    0.449426
C      0.315881   -1.028739    0.215725
C      0.829744   -1.481892   -0.916693
H      0.902121   -2.549380   -1.060948
H      1.181646   -0.835418   -1.706721
H     -0.031307   -1.687970    0.995445
C      0.722239    1.160245   -0.718526
N      1.130345    1.712183   -1.648712
H      0.810682    0.751022    1.308982
H     -1.377605    0.958812    1.807555
H     -1.922245    0.014322    0.315630
H     -1.524985    1.744223    0.221607
