13

C     -1.954214   -0.350782    0.049338
C     -0.540416    0.114776   -0.057552
N     -0.105216    1.317915   -0.489336
H     -0.775067    2.066201   -0.803348
O      1.201176    1.364122   -0.443590
C      1.689369    0.245495    0.001019
N      2.952503   -0.055667    0.175424
H      3.190806   -1.019963    0.549866
C      0.613058   -0.581017    0.260066
H      0.670234   -1.587205    0.641511
H     -2.320832   -0.743991   -0.945126
H     -2.634628    0.453597    0.331312
H     -1.986772   -1.223480    0.730416
