11

C      0.592967    0.737105    1.796016
C      0.218356    0.650061    0.543795
C     -0.113190   -0.588295   -0.123566
O     -0.055391   -1.669568    0.485215
C     -0.522036   -0.566613   -1.534478
H     -0.742556    0.479684   -1.860313
H      0.364574   -0.923735   -2.128534
H     -1.387394   -1.243646   -1.662977
H      0.159079    1.596509   -0.018866
H      0.664177   -0.156529    2.379602
H      0.821414    1.685026    2.219935
