13

O      2.400653   -1.190985    0.713969
C      1.420727   -0.235931    0.980137
C      0.927105    0.469902   -0.161036
C     -0.347361    0.721452   -0.246642
C     -1.638778    0.757967   -0.324101
C     -2.368465   -0.299740   -0.931631
O     -3.180112   -1.044579   -0.328553
H     -2.271858   -0.549106   -2.004805
H     -2.145645    1.572301    0.066529
H      1.548077    0.792545   -0.935175
H      0.657992   -0.749224    1.602511
H      1.912876    0.491176    1.692132
H      3.084790   -0.735779    0.161151
