17

C      2.062749   -0.430328    0.439093
C      0.883635   -0.128438   -0.361288
H      1.307494   -0.086397   -1.505833
O     -0.015315   -1.155745   -0.423219
C     -1.335715   -0.700380   -0.314504
O     -2.218911   -1.506284    0.254120
H     -2.252084   -1.357395    1.217102
H     -1.685017   -0.631970   -1.476553
C     -1.277964    0.703632    0.136756
H     -2.042930    1.281300   -0.307371
H     -1.387077    0.745257    1.265593
C      0.158369    1.149878   -0.242610
H      0.562694    1.785800    0.618136
H      0.072276    1.756374   -1.069194
H      1.824593   -0.361637    1.464144
H      2.902295    0.348399    0.148068
H      2.440907   -1.412065    0.157560
