15

C      2.075724   -0.244324    0.081120
C      0.756513   -0.867060   -0.149241
C     -0.352691   -0.153628    0.016450
N     -0.330773    1.214621    0.414771
O     -0.719346    2.215014   -0.398420
H     -1.692293    2.333933   -0.434589
H      0.001473    1.427750    1.374424
C     -1.656909   -0.794269   -0.218519
H     -2.492500   -0.249873    0.276846
H     -1.656238   -1.812013    0.266119
H     -1.895934   -0.875786   -1.285480
H      0.692615   -1.884411   -0.447164
H      2.043578    0.294920    1.051619
H      2.382781    0.435598   -0.753665
H      2.844002   -1.040470    0.205729
