14

C     -1.533863   -0.181072    0.560508
N     -0.511898   -0.103554   -0.471452
H     -0.950689   -0.111694   -1.414543
C      0.443189   -1.146681   -0.335157
H      0.318395   -2.214298   -0.421344
C      1.605860   -0.574290   -0.064634
H      2.549338   -1.091077    0.099173
C      1.458631    0.871803   -0.012665
H      2.236714    1.592876    0.187551
C      0.193323    1.112220   -0.258053
O     -0.458474    2.343925   -0.321560
H     -2.233293    0.647692    0.375697
H     -1.037830   -0.002912    1.529618
H     -2.079402   -1.142938    0.546861
