15

C      2.314893   -0.266997    0.022267
C      0.788728    0.095615   -0.032226
C      0.022452   -0.749609    0.552662
H      0.436946   -1.632236    1.092702
C     -1.335428   -0.735831    0.267182
H     -1.512049   -1.401764   -0.707913
H     -2.079355   -1.230837    0.988204
C     -1.838283    0.689003   -0.131369
H     -2.929633    0.846444    0.035060
C     -0.996101    1.471159   -0.581347
H     -1.307586    2.461222   -0.918497
O      0.415644    1.327051   -0.685184
H      2.616884   -0.457272    1.074019
H      2.898724    0.672003   -0.276710
H      2.504166   -1.087950   -0.698850
