11

C     -1.822582    0.394085   -0.030826
C     -0.683814    0.062119    0.837796
C      0.166818   -0.841400    0.367932
N      1.099302   -1.521211   -0.178524
N      2.021026   -0.773250   -0.955825
N      2.710822    0.075979   -0.279909
H      3.405805    0.656687   -0.793301
H     -0.503631    0.490798    1.790278
H     -1.528377    0.806739   -1.006609
H     -2.442718   -0.536259   -0.130143
H     -2.422651    1.185713    0.474961
