12

C     -1.742745   -0.165774   -0.146955
C     -0.267478    0.090701   -0.028437
C      0.635087   -0.877543   -0.002583
H      0.482955   -1.950012   -0.058179
C      1.974994   -0.294409    0.119557
O      3.082486   -0.892094    0.175735
N      1.725601    1.121868    0.160052
C      0.446626    1.334295    0.075346
H     -0.063835    2.307896    0.078390
H     -1.931128   -0.848677   -0.976908
H     -2.283013    0.798057   -0.213336
H     -2.059550   -0.624309    0.817317
