14

C     -1.328412    0.434098    0.643186
C     -2.802761    0.081779    0.438366
H     -3.009312   -0.823681    1.069624
H     -3.435328    0.936302    0.695197
H     -2.998776   -0.169406   -0.624971
N     -0.588131   -0.399676   -0.296639
C      0.672158   -0.328059   -0.196956
C      1.957388   -0.492459    0.040886
C      3.268379   -0.150595   -0.101510
H      3.821954   -0.376739   -1.059061
H      3.687484    0.772932    0.380438
O      2.961848   -1.263756    0.712467
H     -1.190034    1.481942    0.320350
H     -1.016456    0.297318    1.679934
