17

C      2.343438   -0.070079   -0.080738
C      0.922809    0.360100   -0.319798
O      0.170792   -0.674347   -0.854187
C     -1.112458   -0.215123   -1.071858
C     -1.787134    0.221964    0.162114
C     -2.914619   -0.415541    0.493480
H     -3.426846   -0.119983    1.384438
H     -3.343607   -1.215898   -0.086209
H     -1.447508    1.014557    0.808706
H     -1.054980    0.649974   -1.802830
H     -1.672250   -1.013483   -1.603301
H      0.903846    1.216534   -1.050934
H      0.497879    0.761814    0.613287
C      2.868060   -0.043522    1.118672
H      2.268564    0.293350    1.948693
H      3.883320   -0.353436    1.274605
H      2.900693   -0.396882   -0.934139
