12

C     -1.777948   -0.462773    0.140846
C     -0.499725    0.187063   -0.172461
N      0.900456    0.125782    0.010572
C      1.905338   -0.651516    0.641072
H      2.604384   -1.182736    0.029545
H      1.933206   -0.682541    1.704671
C      0.335109    1.194175   -0.773705
H      0.350048    2.228660   -0.341748
H      0.639193    1.155055   -1.854139
H     -2.211891   -0.837440   -0.823165
H     -2.461666    0.262347    0.634680
H     -1.716504   -1.336075    0.803834
