13

C      1.407099    0.170925    0.360027
H      2.256345    0.259276   -0.327026
H      1.609253    0.462552    1.396235
C      0.922959   -1.293167    0.363408
C     -0.448463   -1.068133   -0.200304
H     -1.095891   -1.880569   -0.401937
C     -0.941330    0.129736    0.564547
H     -1.944268    0.421008    0.197928
H     -0.819368    0.104634    1.651102
C      0.155689    0.804637   -0.197662
H      0.126426    1.840426   -0.401447
N     -0.156815   -0.127587   -1.294035
H     -1.071636    0.176261   -1.710836
