16

C      3.036300    0.354386   -0.470288
C      2.055021   -0.513084   -0.568521
C      0.781472   -0.257585    0.118786
O     -0.301154   -0.185165   -0.755123
C     -1.434130    0.059200    0.027764
C     -2.691484    0.161427   -0.804736
H     -2.666376   -0.495748   -1.690268
H     -3.537285   -0.129664   -0.123232
H     -2.873121    1.226038   -1.055901
H     -1.345077    1.017492    0.592138
H     -1.540077   -0.780456    0.735616
H      0.566250   -1.131170    0.799755
H      0.847024    0.638352    0.750988
H      2.210482   -1.406583   -1.161050
H      3.980202    0.194103   -0.962524
H      2.911953    1.248459    0.109474
