16

C     -1.416788    1.075281    0.233047
C     -0.799413   -0.220319   -0.130337
C      0.614496   -0.276073   -0.606584
C      1.522618    0.273729    0.475556
O      2.842292    0.249229    0.096166
H      2.933847   -0.285443   -0.738902
H      1.198323    1.332137    0.673307
H      1.419254   -0.335275    1.390378
H      0.764657    0.258898   -1.561991
H      0.910623   -1.330233   -0.788842
C     -1.499229   -1.343389   -0.035295
H     -2.524333   -1.313386    0.308721
H     -1.101603   -2.316104   -0.286253
H     -2.377663    0.898126    0.770625
H     -0.798470    1.695298    0.891374
H     -1.688610    1.637522   -0.690970
