12

O      2.457167   -0.015266    1.260120
C      1.885296    0.118997    0.262770
C      0.453067    0.333417    0.214373
O     -0.030411    1.203717    1.182721
N     -0.426653    1.231825   -0.115418
C     -1.465499    0.237240   -0.378093
H     -1.981580    0.272322   -1.318156
H     -2.187334    0.180619    0.505824
C     -0.423356   -0.827782   -0.188033
H     -0.071243   -1.137507   -1.228523
H     -0.610338   -1.632044    0.503426
H      2.400884    0.034459   -0.701009
