14

C     -1.070070   -1.056079   -0.300286
C     -0.482005    0.134205    0.436988
O     -0.693219    0.034690    1.816599
C     -0.634576    1.444493   -0.172455
H     -1.355493    1.536822   -1.032790
H     -0.865091    2.218747    0.624657
O      0.686916    1.423929   -0.465355
C      0.898169    0.331482    0.023479
N      2.093482   -0.481298    0.149119
H      2.486028   -0.856215   -0.726803
H      2.451948   -0.617633    1.098980
H     -0.581491   -1.955895    0.129423
H     -0.781133   -1.026648   -1.365700
H     -2.153463   -1.130603   -0.215855
