15

C      0.911836   -1.071492   -0.067200
H      0.822929   -1.682321   -0.935995
H      1.574785   -1.548149    0.697481
C     -0.429188   -1.132815    0.614578
O     -0.654005   -1.783870    1.580473
C     -1.511130   -0.193836   -0.101075
H     -2.491713   -0.406369    0.200719
H     -1.402678   -0.408438   -1.263950
C     -0.979751    1.160289    0.147405
H     -1.674340    1.914794    0.379439
C      0.317946    1.398664    0.142724
H      0.640499    2.361946    0.378990
C      1.285368    0.341572   -0.300228
H      1.308244    0.511123   -1.471179
H      2.281198    0.538903   -0.002180
