11

C     -1.156337   -0.174674    0.317765
C      0.173225   -0.223158   -0.399675
C      1.262358   -0.308468    0.587716
O      1.009971   -0.329762    1.778624
H      2.311880   -0.355423    0.320465
C      0.301098    1.008238   -1.179671
N      0.418539    1.974468   -1.805648
H      0.157798   -1.099815   -1.094205
H     -1.004446    0.182488    1.346345
H     -1.629219   -1.174308    0.348696
H     -1.844865    0.500414   -0.220412
