10

O      1.860748    1.188143   -0.202773
C      1.337811    0.125235    0.022165
C      0.062624   -0.369891   -0.510717
C     -1.070394    0.221595    0.343516
H     -0.973523    1.309635    0.422046
H     -0.981672   -0.288697    1.326443
H     -2.018765   -0.074206   -0.121442
H     -0.015468   -1.459169   -0.413166
H     -0.096716   -0.113207   -1.584004
H      1.895356   -0.539438    0.717932
