17

C     -1.489047   -1.144915   -0.001270
C     -0.448243   -0.037204    0.227343
C     -1.020442    1.326951    0.258138
H     -1.714674    1.408252    1.122088
H     -1.636214    1.470111   -0.670706
H     -0.208189    2.086805    0.316912
C      0.710971   -0.119421   -0.749703
H      0.601541   -0.557916   -1.717953
C      1.397118   -0.621765    0.435720
H      1.946993   -1.601858    0.425429
C      1.930482    0.569971   -0.298456
H      1.819048    1.573682    0.164477
H      2.933156    0.413361   -0.767730
O      0.345976   -0.442775    1.278454
H     -2.496572   -0.726921   -0.057962
H     -1.194245   -1.758614   -0.860662
H     -1.477660   -1.837742    0.895879
