11

C      1.111271    0.661162    0.159209
H      2.171848    0.592415    0.447371
H      0.638672    1.637633    0.006826
C      0.532493   -0.542107   -0.651557
H      0.992562   -1.167570   -1.313888
C     -0.989286   -0.426693   -0.299071
O     -1.557675    0.805246   -0.543155
H     -1.823887    1.306829    0.257311
H     -1.566886   -1.359594   -0.354610
C      0.196263   -0.478482    0.718903
H      0.294625   -1.028839    1.572661
