11

C      1.239918    0.319824   -0.407435
H      2.244999    0.300558   -0.900617
C      0.299553    1.269856   -0.411774
C     -0.748909    1.052020    0.233155
H     -1.391951    1.655599    0.765813
C     -0.865938   -0.349187   -0.059675
H     -0.971607   -0.348450   -1.226621
H     -1.711282   -0.882946    0.443341
C      0.494596   -0.758080    0.252078
H      0.818050   -1.763981   -0.028572
H      0.592572   -0.495213    1.340308
