13

C     -1.695650    0.248094    0.259531
C     -0.764915   -0.591954   -0.601888
C      0.636281   -0.322768   -0.130459
C      1.817351   -0.658276    0.371330
H      2.389883   -1.517389    0.743889
C      1.631351    0.786569    0.033845
H      2.068119    1.150955   -0.897882
H      1.488153    1.476158    0.894595
H     -0.826574   -0.330688   -1.668674
H     -0.984843   -1.679274   -0.409273
H     -1.134323    0.953376    0.901473
H     -2.314512   -0.375714    0.926340
H     -2.310321    0.860909   -0.422828
