13

N     -2.510151    0.061778    0.638490
C     -1.141171    0.404872    0.419372
O     -0.698390    1.542472    0.691579
C     -0.213102   -0.630728   -0.151779
N      1.116731   -0.120397   -0.290946
C      2.502064   -0.362125   -0.589514
H      3.265735   -1.107456   -0.842508
C      2.131625    0.872981   -0.320021
H      2.475944    1.906941   -0.216910
H     -0.315236   -1.585659    0.387368
H     -0.666739   -0.853906   -1.179346
H     -3.222296    0.474864    0.028025
H     -2.725013   -0.603638    1.426189
