19

C      3.424785    0.013333    0.190773
O      2.110098    0.420297    0.082880
C      1.257180   -0.304643   -0.462782
C     -0.152691    0.096007   -0.595716
C     -1.047992   -0.909356    0.121737
C     -2.492584   -0.521125   -0.000295
H     -3.165714   -1.418842   -0.018016
H     -2.621153   -0.000487   -0.976565
H     -2.846651    0.133379    0.804788
H     -0.895027   -1.918452   -0.338837
H     -0.773235   -0.973861    1.191324
C     -0.398429    1.465224    0.005246
H     -1.467607    1.544666    0.286394
H      0.242877    1.641470    0.881873
H     -0.222438    2.238348   -0.784635
H     -0.429163    0.085220   -1.675916
H      1.543850   -1.268206   -0.859992
H      3.908560   -0.572059   -0.600364
H      4.025333    0.249088    1.044213
