16

C     -1.058267   -1.444683    0.105909
C     -0.576428   -0.060606    0.015587
C      0.661805    0.348488   -0.054519
C      1.840769   -0.577357   -0.053578
H      1.880806   -1.047511   -1.050090
H      1.624913   -1.342203    0.711825
H      2.766618   -0.003430    0.157611
C      0.720884    1.802096   -0.131670
H      1.638540    2.359768   -0.196722
C     -0.540709    2.183330   -0.101316
N     -1.414885    1.068358   -0.009308
H     -2.117478    1.044114   -0.777539
H     -1.910477    1.076971    0.929426
H     -2.061306   -1.582271   -0.388320
H     -0.318285   -2.127406   -0.350691
H     -1.136500   -1.697658    1.193395
