15

C     -2.965519    0.726388   -0.237364
N     -1.829349    0.020166   -0.791754
C     -0.988344   -0.510302    0.023767
C      0.178002   -1.235931   -0.443942
C      1.285265   -1.193095    0.282432
N      2.415317   -0.877858    0.780811
C      3.029761    0.389107    0.401032
H      2.244167    1.162664    0.266723
H      3.727791    0.750400    1.189724
H      3.518314    0.237656   -0.573441
H      0.213228   -1.802200   -1.334641
H     -1.123784   -0.432496    1.104333
H     -3.743222   -0.009250    0.051477
H     -3.361504    1.500411   -0.930157
H     -2.600124    1.274338    0.664100
