16

C      0.997629   -0.890961    0.724412
H      0.550018   -1.833463    0.328524
H      1.158704   -0.830425    1.812103
C      1.804822   -0.106161   -0.236057
H      1.956963   -0.492760   -1.253934
H      2.709275    0.441230    0.145344
C      0.470937    0.377577    0.114177
C     -0.714350    0.251897   -0.803059
C     -1.849967   -0.355477    0.010850
H     -2.768996    0.271479   -0.084411
H     -2.007493   -1.398310   -0.271229
H     -1.613566   -0.347727    1.107043
H     -1.035111    1.209931   -1.210152
H     -0.475761   -0.421692   -1.665996
C      0.414993    1.630819    0.989627
H      0.401901    2.494043    0.292758
