12

C     -0.497459   -0.903706    0.543961
H     -0.018249   -1.147012    1.533990
H     -1.267499   -1.638708    0.233867
C      0.333035   -0.304160   -0.531210
C      1.752776   -0.007498   -0.204744
O      2.582616   -0.094475   -1.090653
H      2.065965    0.278896    0.780937
H      0.098068   -0.589365   -1.561538
C     -0.694897    0.504914    0.196238
O     -1.819596    0.873818   -0.534858
H     -2.212885    1.713212   -0.223242
H     -0.321875    1.314084    0.857252
