12

C     -1.450088   -0.734307    0.417453
N     -0.440669    0.177045    0.909762
C      0.601930    0.654366    0.089852
C      0.968468    1.987667   -0.150889
N      1.263102    3.089187   -0.330593
C      1.311331   -0.269704   -0.520762
N      1.941555   -1.164261   -1.186505
H      1.499281   -1.361352   -2.123345
H     -0.439675    0.528214    1.913132
H     -2.336581   -0.609851    1.072218
H     -1.140909   -1.802218    0.519063
H     -1.777746   -0.494788   -0.609386
