9

C     -1.057472    0.516778   -0.384727
N     -0.090353   -0.500920   -0.020747
C      1.211389    0.050333   -0.046016
O      1.661946    0.564241    0.983416
H      1.864654    0.068139   -0.890373
H     -0.194633   -1.336760   -0.638161
H     -0.317296   -0.781830    0.961138
H     -2.079564    0.099724   -0.333874
H     -0.998670    1.320294    0.369343
