14

C     -2.247681    0.422529    0.324694
C     -0.963368   -0.284042    0.587176
O     -0.871627   -1.145254    1.444989
C      0.206955    0.085067   -0.221998
C      1.425248   -0.679431    0.124682
C      2.528582   -0.090847    0.549680
H      2.525174    1.010335    0.643976
H      3.432062   -0.582516    0.813290
H      1.412535   -1.750678    0.027552
H     -0.068460   -0.019126   -1.289459
H      0.381735    1.187423   -0.049427
H     -3.108037   -0.280284    0.459666
H     -2.301791    0.806457   -0.714452
H     -2.351327    1.320369    1.000944
