16

C      2.152636    0.481179   -0.636980
C      0.744715   -0.055691   -0.909623
C      0.079338   -0.221725    0.427198
C     -1.314742   -0.742152    0.343209
H     -1.721323   -1.219919    1.263223
C     -2.271459    0.155906   -0.460739
H     -1.831275    1.008566   -1.009527
H     -3.214939    0.377621    0.073461
C     -1.923579   -1.201158   -0.924030
H      0.705224   -0.921363    1.026462
H      0.150902    0.765530    0.948502
H      0.865829   -1.001792   -1.464577
H      0.168676    0.674975   -1.493950
H      2.570881    0.961773   -1.530802
H      2.051481    1.277465    0.134500
H      2.787637   -0.339217   -0.243450
