13

O      1.161337    1.909544    0.868820
C      0.561737    0.813716    0.116840
C      1.449316   -0.364164   -0.136301
H      1.825230   -0.558810    1.056036
H      2.401134   -0.219963   -0.497533
O      0.902709   -1.518886   -0.265382
C     -0.399763   -1.717602   -0.096488
C     -1.246695   -0.528091    0.111193
H     -2.260571   -0.761841   -0.512099
H     -1.500065   -0.455157    1.157607
C     -0.803690    0.766167   -0.441320
H     -0.775131    0.942802   -1.450267
H     -1.315547    1.692284    0.088894
