15

C      2.446386    0.177428   -0.302520
C      0.984845    0.502183   -0.169193
O      0.199846   -0.657969    0.075397
C     -1.163737   -0.494287    0.218158
C     -1.894986   -1.499186    0.633733
H     -2.965398   -1.475726    0.778382
H     -1.403363   -2.430191    0.852854
C     -1.826235    0.769454   -0.079888
O     -3.052689    0.947842    0.038859
H     -1.250506    1.638792   -0.431327
H      0.629553    0.917630   -1.138400
H      0.846644    1.278688    0.597170
H      2.935215    1.091968   -0.747834
H      2.908943   -0.083344    0.663361
H      2.605481   -0.683281   -0.988752
