16

C     -1.466705    1.061189   -0.743853
C     -0.374869    0.015370   -0.708257
C     -0.911124   -1.161520    0.072245
H     -1.440144   -1.812363   -0.654756
H     -1.700040   -0.842874    0.806116
H     -0.134819   -1.759476    0.554799
C      0.868073    0.566064   -0.124043
C      2.099285   -0.240719    0.032400
H      1.992409   -1.276807   -0.340402
H      2.478152   -0.206689    1.084534
H      2.940758    0.200824   -0.580801
O      0.902244    1.718697    0.247211
H     -0.132479   -0.325364   -1.732790
H     -1.434885    1.698000    0.162165
H     -1.246076    1.756306   -1.603948
H     -2.439778    0.609362   -0.927742
