16

C      2.209602   -0.530276   -0.253075
N      1.183975    0.270152    0.367055
C     -0.176830   -0.027302    0.133948
C     -0.929359   -1.092807   -0.139374
H     -0.676356   -2.129266   -0.271034
C     -2.225124   -0.369338   -0.199769
H     -2.683611   -0.371651   -1.227541
H     -2.923436   -0.695203    0.599387
C     -1.415182    0.834053    0.103369
H     -1.291271    1.561994   -0.723219
H     -1.524568    1.284142    1.116672
O      1.591274    1.279622    1.151699
H      1.430812    2.125119    0.624325
H      3.083872   -0.596523    0.435952
H      1.850817   -1.543227   -0.521419
H      2.495384    0.000512   -1.196976
