8

N      0.561584    1.163883    0.429069
C      0.279428    0.034663   -0.122940
O      1.327550   -0.628953   -0.751520
H      2.254069   -0.492531   -0.332116
C     -1.070835   -0.504774   -0.082082
O     -1.953064    0.146938    0.498468
H     -1.238008   -1.460989   -0.567608
H     -0.160725    1.741763    0.928729
