14

C     -1.680243    0.870090    0.408499
N     -0.880356    0.328907   -0.649994
C     -0.316101   -0.970008   -0.345287
N      0.544378   -0.940225    0.822213
C      1.687860   -0.135865    0.885396
C      2.828288    0.460418    0.733341
N      4.066443    0.711039    0.484963
H      0.336593   -1.523588    1.661512
H      0.359113   -1.218692   -1.209534
H     -1.081163   -1.745444   -0.213531
H     -0.186520    0.998618   -0.985768
H     -2.413599    0.175350    0.812207
H     -2.203485    1.756863    0.024080
H     -1.061210    1.232538    1.273216
