13

C      2.288439   -0.177632   -0.105498
N      1.367118    0.364454   -1.116477
C      0.134077    0.480130   -0.732639
C     -0.993988    0.483138   -0.091431
C     -1.848699   -0.709337   -0.117841
H     -1.479960   -1.398817    0.689900
H     -2.916711   -0.452085    0.044727
H     -1.692803   -1.200312   -1.106570
O     -1.365354    1.602763    0.600303
H     -0.866452    1.902826    1.429357
H      1.930949   -1.194111    0.107951
H      3.324323   -0.121220   -0.424448
H      2.119060    0.420204    0.822666
