17

C     -2.334976    0.229151    0.580204
C     -1.127870   -0.187084   -0.233643
O     -1.064786    0.685168   -1.325787
H     -1.038045    1.612027   -0.976902
C      0.101961   -0.056381    0.640393
C      1.359472   -0.452274   -0.091806
C      2.514545   -0.284388    0.867516
O      3.745268   -0.511584    0.276554
H      4.070848    0.378986   -0.045993
H      1.260747   -1.531351   -0.373586
H      1.522076    0.110754   -1.013220
H     -0.041724   -0.726680    1.508526
H      0.171159    0.977645    1.033050
H     -1.224069   -1.229799   -0.540595
H     -3.209911    0.369091   -0.087542
H     -2.093306    1.185166    1.082077
H     -2.611388   -0.568449    1.297494
