10

N      2.043445    1.581605    0.021307
C      1.243394    0.815268    0.344942
C      0.247866   -0.154914    0.734574
C     -0.473243   -0.603911   -0.517087
O     -1.100614    0.426532   -1.177086
H     -1.176886    1.263719   -0.659920
H      0.238517   -1.178152   -1.150618
H     -1.274042   -1.346747   -0.242783
H     -0.445969    0.265904    1.464740
H      0.697533   -1.069304    1.181931
