11

C     -1.262793   -0.557044    0.045278
C     -0.835769    0.864933    0.026558
C      0.454833    1.143578   -0.014713
C      1.416060    0.074325   -0.040584
C      2.214673   -0.827704   -0.061628
H      2.919961   -1.639849   -0.096120
H      0.778280    2.161381   -0.028671
H     -1.617196    1.616063    0.048040
H     -0.411985   -1.231780   -0.242862
H     -2.064314   -0.728267   -0.704656
H     -1.591751   -0.875635    1.069359
