17

C      0.983866   -0.095983   -1.244191
C      0.199938    0.770347   -0.268722
H      0.142398    1.840568   -0.581773
C     -1.040496    0.172031    0.257621
C     -1.490924   -1.125333   -0.375688
H     -0.945723   -2.000431    0.019784
H     -2.587961   -1.228174   -0.125599
H     -1.438702   -1.110911   -1.478599
H     -1.858312    0.945916    0.308172
C     -0.412392    0.066690    1.566952
H     -0.668119   -0.292094    2.584091
C      0.788456    0.644332    1.063589
C      1.958156    0.923931    1.665771
H      2.715909    1.368051    1.040843
H      1.002522    0.428382   -2.216938
H      2.057832   -0.181935   -0.911895
H      0.593553   -1.125387   -1.303419
