12

C     -1.987387   -0.477080   -0.212207
C     -0.680880   -0.352370   -0.134464
C      0.347733   -1.341474   -0.417736
N      1.516932   -0.848230   -0.227266
H      2.415556   -1.389012   -0.372305
C      1.448619    0.493191    0.195718
O      2.425762    1.263226    0.468259
C      0.033421    0.874606    0.275157
H     -0.222362    1.711431   -0.416111
H     -0.257837    1.123756    1.329451
H     -2.616543    0.344160    0.029569
H     -2.423014   -1.402204   -0.518066
