11

C     -1.824863    0.459752    0.304073
O     -0.482437    0.682715    0.493270
C      0.249867   -0.049119   -0.412651
H     -0.328163   -0.679375   -1.125841
C      1.602556   -0.392099   -0.032498
N      2.511930   -1.032081    0.618848
H      3.533614   -0.810532    0.441369
O      1.349750    0.606024   -1.006476
H     -2.168454    0.750227   -0.722584
H     -2.042760   -0.610215    0.512784
H     -2.401038    1.074702    1.025535
