15

C      2.464352    0.374124    0.094515
C      1.384327   -0.659408    0.412839
H      1.745350   -1.675423    0.632218
C      0.004004   -0.369057    0.076918
C     -1.219082   -0.235589   -0.734090
C     -2.419756    0.265917    0.005619
H     -2.780101    1.238060   -0.397090
H     -2.079997    0.492602    1.059145
H     -3.229052   -0.470360    0.100909
H     -1.399231   -1.204552   -1.247729
H     -0.985715    0.493847   -1.551663
N      0.415756   -0.172335    1.351942
H      2.995989    0.550875    1.063578
H      3.125884    0.033060   -0.708728
H      1.977274    1.338239   -0.158383
