10

O      1.506438    1.373996    0.758595
C      1.549276    0.205460    0.348785
C      0.370723   -0.542054   -0.106414
H      0.604284   -1.313249   -0.861636
C     -0.381115   -1.068029    1.082809
N     -1.431930   -0.372097    1.151940
C     -1.650336    0.469190    0.266311
H     -2.554298    1.107180    0.174016
O     -0.560062    0.454223   -0.575921
H      2.547020   -0.314622    0.311465
