14

C     -2.395683   -0.277867    0.551920
O     -1.273030    0.543156    0.543867
C     -0.126739   -0.148069    0.165383
C      1.068398    0.726562    0.156967
N      1.049465    1.977770    0.463296
H      1.882157    2.597303    0.459889
O      2.302813    0.200094   -0.197811
C      2.499169   -1.011833    0.029221
H      3.423714   -1.527535   -0.205983
H     -0.323662   -0.614851   -0.827988
H      0.028602   -0.946151    0.933746
H     -2.587159   -0.713008   -0.470288
H     -2.276140   -1.139247    1.248700
H     -3.271905    0.333677    0.850395
