14

C     -1.459573    0.276857    0.594097
C     -0.759273   -0.421336   -0.521605
C      0.700703   -0.670843   -0.256110
C      1.493189    0.568052   -0.025290
H      1.068591    1.467709   -0.536932
H      2.533524    0.386162   -0.369605
H      1.589851    0.782041    1.078944
H      0.838389   -1.338046    0.616140
H      1.125661   -1.200963   -1.134537
H     -0.884261    0.156233   -1.460842
H     -1.268987   -1.392358   -0.691507
H     -2.049996    1.162245    0.248987
H     -2.202147   -0.387018    1.116575
H     -0.725671    0.611264    1.341684
