15

C      2.245825    0.366390    0.346989
C      1.045784   -0.235480   -0.322539
C     -0.224064   -0.019230    0.409684
O     -0.347987    0.621609    1.430461
C     -1.447038   -0.645581   -0.169323
C     -2.510252    0.385693   -0.178987
O     -2.247212    1.504081    0.185660
H     -3.498526    0.118004   -0.507562
H     -1.760538   -1.525902    0.487301
H     -1.262757   -0.997989   -1.210596
H      0.979699    0.236013   -1.342083
H      1.232685   -1.313169   -0.464082
H      3.101733    0.216168   -0.376183
H      2.547211   -0.154864    1.262030
H      2.145436    1.444258    0.449229
