11

O      1.724337    1.502891    0.800512
C      0.900092    0.490876    1.255926
N      0.847147   -0.655131    0.410434
C     -0.476476   -0.918327   -0.132509
H     -0.626536   -1.979925   -0.468128
C     -1.046680    0.171564   -0.963647
H     -1.130997    0.824008   -1.809939
C     -1.632247   -0.152293    0.307766
H     -2.436417    0.159528    0.939767
H      1.523792   -0.691057   -0.352663
H      2.353983    1.247866    0.108311
