14

O      1.372993    1.532549    1.271548
C      1.182096    0.314512    0.638667
C      2.171046   -0.557477    0.674967
H      2.104717   -1.537928    0.203497
H      3.098165   -0.333175    1.179324
C     -0.095544    0.006284   -0.055957
N     -1.151511    0.068569    0.871010
C     -2.367826   -0.164592    0.505335
O     -2.581343   -0.477232   -0.836261
H     -1.893383   -1.082380   -1.274773
H     -3.209474   -0.121214    1.214747
H     -0.242945    0.852310   -0.793639
H      0.039923   -0.886637   -0.653661
H      1.573085    2.386409    0.756509
