10

C      1.979700    0.883213    0.328862
N      0.962324    0.109012    0.373231
C     -0.351106    0.509400    0.050768
O     -0.716662    1.694654    0.168095
C     -1.289701   -0.520687   -0.433486
H     -1.368472   -0.462107   -1.547019
H     -0.956334   -1.534027   -0.122095
H     -2.331179   -0.373576   -0.056423
H      1.103251   -0.883174    0.665285
H      2.968179    0.577293    0.572783
