14

C     -1.946571   -0.207521    0.156560
C     -0.532717    0.302594    0.085769
H     -0.446480    1.391861    0.343007
N      0.206452   -0.134271   -1.061130
O      1.053392    0.700271   -1.693475
H      0.967671    1.637557   -1.381847
C      0.553998   -0.631099    0.262889
C      1.912828   -0.232459    0.689824
O      2.356337    0.879020    0.495640
H      2.537260   -0.947746    1.191378
H      0.267555   -1.688538    0.503728
H     -2.283608   -0.423673    1.183419
H     -2.058081   -1.168422   -0.412170
H     -2.588035    0.522426   -0.363592
