12

C      2.556611    0.048264    0.338473
C      1.097163    0.231236    0.262513
C     -0.104713    0.369456    0.206577
C     -1.540887    0.553748    0.135028
C     -2.197040   -0.773399    0.080534
C     -2.082883   -1.567680    1.139197
H     -2.764920   -1.147283   -0.759407
H     -1.844941    1.203778   -0.721101
H     -1.889053    1.077940    1.045444
H      2.786108   -1.044674    0.238750
H      2.993137    0.491243    1.243758
H      2.991417    0.557371   -0.561995
