11

C     -1.214597   -0.381356    0.454598
H     -2.165626   -0.098681   -0.018078
H     -1.346649   -0.942200    1.414178
C      0.029505    0.398635    0.294133
O     -0.117272    1.648655   -0.281989
H      0.266273    2.295415    0.378732
C      1.264233   -0.402108   -0.117018
H      1.802891   -0.843144    0.738940
H      1.920883    0.075588   -0.862347
C     -0.113759   -0.854001   -0.459288
H     -0.325882   -0.896802   -1.541862
