14

C     -1.333018    0.127922   -0.607275
H     -1.371527    1.213068   -0.638654
H     -2.356457   -0.273004   -0.887707
C     -0.252916   -0.374103   -1.571482
C      0.955341   -0.385935   -0.614966
H      1.852736   -0.836114   -1.024152
C      1.002259    0.931045    0.074313
H      0.542046    1.793720   -0.366072
H      2.099474    1.108750    0.375755
N      0.359866    0.308500    1.230319
C     -0.929084   -0.339379    0.771552
H     -1.671684   -0.477557    1.559894
C      0.298223   -0.963725    0.575358
H      0.804740   -1.833190    1.123118
