14

C     -1.539190   -0.481280    0.630329
C     -0.501554   -0.081071   -0.399631
O     -1.153918    0.246813   -1.607239
H     -1.342576    1.208062   -1.660670
O      0.227760    1.021204    0.012955
C      1.575477    0.686737    0.045302
C      1.791910   -0.455657    1.011743
H      1.961431   -1.383943    0.419272
H      2.187914    1.536795    0.419675
H      1.966545    0.405653   -0.951895
H      0.207779   -0.906327   -0.582464
H     -2.547473   -0.556006    0.148895
H     -1.261503   -1.472641    1.032348
H     -1.572602    0.231662    1.481381
