12

C     -1.938194   -0.247785    0.139224
C     -0.488068    0.054815    0.083896
O      0.462805   -0.938181    0.384527
C      1.832572   -0.653449    0.241667
N      2.130662    0.234357   -0.651395
H      3.145477    0.447920   -0.759963
H      2.586054   -1.146278    0.840945
N     -0.102366    1.243150   -0.244099
H     -0.824390    1.983565   -0.468532
H     -2.061000   -1.336040    0.352502
H     -2.379896    0.373696    0.945849
H     -2.363657   -0.015769   -0.864622
