13

C      2.143490    0.538092    0.346300
O      0.847230    0.185703    0.783045
C      0.091643   -0.815214    0.201595
C     -1.145173   -0.538210   -0.147484
O     -1.992452   -1.475690   -0.741309
H     -2.711362   -1.111164   -1.365898
N     -1.618202    0.777766    0.099743
H     -1.549610    1.272997    1.002563
H     -2.071145    1.258839   -0.729408
H      0.500106   -1.815287    0.030988
H      2.518505    1.360762    0.977701
H      2.788299   -0.363819    0.554596
H      2.198670    0.725226   -0.727944
