12

C      1.187854   -1.191936    0.804403
C      0.830935   -0.169258   -0.226857
H      1.624733    0.149224   -0.918349
C     -0.470736   -0.316490   -0.919633
H     -0.738989   -0.980739   -1.626229
C     -1.159550   -0.014021    0.365676
H     -2.142688    0.440750    0.190758
H     -1.068171   -0.750453    1.168548
C     -0.038952    0.955467    0.226234
H      0.206011    1.716734    0.836732
O     -0.420483    1.077393   -1.113958
H      2.190035   -0.916672    1.212675
