9

N      1.684244    0.469323    0.369676
C      0.320052    0.150958    0.156712
C     -0.152044   -1.132533   -0.006333
H      0.434567   -2.064546    0.003845
O     -1.445576   -1.010059   -0.175949
N     -1.773854    0.247479   -0.125603
N     -0.717205    0.989577    0.077081
H     -0.676486    2.014071    0.160734
H      2.326303    0.335731   -0.460162
