11

C     -0.995852   -0.965782   -0.149434
N     -0.236064   -0.819814    1.072638
C      1.158212   -0.481886    0.792960
N      1.220895    0.455969   -0.307169
C      0.893403    1.811082   -0.200007
N      0.633231    2.937560   -0.127381
H      1.530827    0.085474   -1.230676
H     -0.622022   -0.033952    1.632308
H     -0.407142   -0.703428   -1.058450
H     -1.327969   -2.024295   -0.225257
H     -1.847519   -0.260928   -0.103702
