15

C     -0.074190    1.427550    0.063522
N     -0.200239   -0.016136    0.127390
C      0.579331   -0.812842   -0.771776
C      1.712736   -0.039608   -1.252020
N      2.614761    0.574933   -1.627622
H     -0.019248   -1.126676   -1.647789
H      0.958316   -1.697846   -0.243762
C     -0.253755   -0.498897    1.523569
H      0.339055   -1.401132    1.773618
C     -1.439983   -0.536341    0.660183
H     -1.789672   -1.544469    0.353799
H     -2.239968    0.197067    0.813883
H      0.700458    1.745684    0.790539
H     -1.016380    1.939983    0.397822
H      0.128779    1.788731   -0.961355
