14

C      0.786451   -0.748257   -0.006214
H      0.723437   -1.263859    1.009955
H      1.433298   -1.373925   -0.694055
C      1.297093    0.631899    0.102271
H      2.172308    0.750093   -0.421472
H      1.488280    0.857134    1.248030
C      0.236700    1.625623   -0.108261
O     -0.809815    1.468116   -0.036264
C     -1.473144    0.299430    0.299675
H     -2.463083    0.234113    0.110899
H     -1.205521    0.064196    1.383816
C     -0.621686   -0.733881   -0.555889
H     -0.469084   -0.161573   -1.578052
H     -1.095234   -1.649109   -0.754439
