16

C     -1.185353   -1.285637   -0.369728
C     -0.656481    0.064486    0.041972
C      0.757947    0.379073   -0.177021
C      1.894764   -0.379083    0.413245
H      1.623037   -1.393421    0.731184
H      2.673222   -0.487927   -0.395311
H      2.323178    0.167971    1.274443
N      1.075984    1.380627   -0.931730
H      2.070179    1.621960   -1.100954
C     -1.570457    1.176106    0.293594
H     -1.160975    2.197592    0.265649
H     -2.624926    1.060337   -0.019293
O     -1.154831    0.369460    1.408283
H     -2.283594   -1.314496   -0.172408
H     -0.724253   -2.104352    0.185370
H     -1.057441   -1.452696   -1.447297
