8

C     -0.746002    0.355516   -0.641383
N     -1.535765   -0.352317    0.345680
H     -2.110866   -1.047707   -0.179105
H     -0.887753   -0.780939    1.028294
C      0.627031    0.604126   -0.118142
N      1.363396   -0.320823    0.347831
H      2.310961   -0.084921    0.697669
H      0.978997    1.627064   -0.152009
