17

C      2.779820    0.650541   -0.163947
C      1.319966    0.781508   -0.629061
C      0.717708   -0.588643   -0.400727
C     -0.770211   -0.605549   -0.436349
C     -1.407794    0.295712    0.624916
C     -2.884374    0.224465    0.527680
O     -3.447499    0.755066   -0.392592
H     -3.426078   -0.300536    1.278396
H     -1.126808    1.371934    0.448946
H     -1.032617    0.032755    1.619882
H     -1.202620   -0.347678   -1.407741
H     -1.069521   -1.644866   -0.125134
H      1.097989   -1.034180    0.539992
H      1.093651   -1.223828   -1.249770
H      3.111264   -0.341093   -0.595664
H      3.423851    1.430969   -0.580300
H      2.823272    0.543424    0.941473
