16

C     -0.965289    1.269535   -0.281227
C     -0.133017    0.023927   -0.206227
C     -1.041473   -1.145223   -0.606527
H     -1.580681   -0.828941   -1.523843
H     -1.772677   -1.262057    0.220988
H     -0.439651   -2.048689   -0.777217
C      0.462248   -0.236901    1.089982
H     -0.044732   -0.366909    2.027054
O      1.833968   -0.292149    0.913571
C      2.145256   -0.106035   -0.277795
H      3.154108   -0.091981   -0.724497
N      1.000181    0.106044   -1.092406
H      0.985700    0.284359   -2.120578
H     -0.615593    2.099413    0.319211
H     -0.960673    1.585070   -1.358323
H     -2.027675    1.010538   -0.059290
