10

O      2.702209   -0.633176   -0.294678
C      2.053857   -0.386774    0.930463
N      0.868227    0.057925    0.861926
C     -0.274387    0.477352    0.486126
C     -1.304273   -0.499895    0.179588
N     -2.506357   -0.080352   -0.021566
H     -2.718432    0.958219    0.039770
H     -1.081598   -1.538057    0.120361
H     -0.416694    1.539067    0.412022
H      2.677447    0.105690   -0.988191
