16

C     -2.069407    0.450860    0.323602
C     -0.570813    0.425891    0.003590
C      0.156683    1.099069    0.867435
H      1.217665    1.154529    0.742609
H     -0.324970    1.602326    1.714391
C     -0.177812   -0.351759   -1.149366
C      1.173651   -0.804718   -1.354161
C      2.223462   -0.891529   -0.591558
H      3.170951   -1.287060   -1.019242
H      2.310579   -0.654398    0.446255
H      1.373890   -1.174087   -2.421587
H     -0.837200   -1.288400   -1.156791
H     -0.468529    0.242808   -2.084365
H     -2.219831   -0.228685    1.182433
H     -2.644276    0.212587   -0.566839
H     -2.314045    1.492566    0.606472
