17

C      2.501140   -0.393529   -0.563231
O      1.257234   -0.562416    0.045478
C      0.519127    0.594837   -0.024762
H      1.010894    1.446555   -0.534753
C     -0.947505    0.548819   -0.109359
C     -1.559228   -0.829657   -0.269869
O     -2.963365   -0.744402   -0.338977
H     -3.309342   -0.753366    0.576197
H     -1.235499   -1.298370   -1.205126
H     -1.251004   -1.495991    0.558242
H     -1.538318    1.347047   -0.603895
C     -0.331643    0.930760    1.186344
H     -0.284937    0.245594    2.046224
H     -0.333389    2.000925    1.482546
H      3.101737    0.406694   -0.089160
H      3.072669   -1.343910   -0.534130
H      2.291429   -0.099591   -1.621768
