12

C      1.569366   -0.139184   -0.138419
C      0.188561   -0.175534   -0.134262
O     -0.574047   -1.220706    0.410202
C     -1.527531   -0.392825   -0.160433
H     -2.515495   -0.535565   -0.220440
C     -0.781255    0.752056    0.440608
H     -0.971093    1.715635   -0.059366
H     -0.741431    0.827526    1.527338
O     -0.635678   -0.297707   -1.238200
H      1.991932   -0.177218    0.903987
H      1.987297    0.703887   -0.706061
H      2.009376   -1.060364   -0.624955
