8

O      2.164723   -0.446906    0.416342
C      1.199468    0.100209   -0.045898
C     -0.169432   -0.488640   -0.038537
H     -0.195734   -1.501054    0.448045
C     -1.253142    0.384746    0.234803
H     -2.044842    1.055141    0.537034
N     -1.027915   -0.185627   -1.054882
H      1.326874    1.082131   -0.496908
