13

O     -2.268200    1.543317    0.030678
C     -1.240108    0.819432    0.039262
C     -1.193075   -0.646746   -0.077136
H     -1.678488   -1.123032    0.830370
H     -1.686310   -0.996668   -1.007482
C      0.254697   -0.959709   -0.007418
H      0.507261   -1.641270    0.851984
H      0.641693   -1.406294   -0.964437
C      0.948025    0.301638    0.140929
O      2.344380    0.427719    0.242968
H      2.878257    0.030752   -0.517566
C      0.122508    1.289384    0.167140
H      0.369360    2.361477    0.270709
