10

C      1.218010   -0.270724   -0.836510
C      2.341734   -0.155677   -1.303452
H      3.317266   -0.039046   -1.700850
N     -0.072767   -0.423163   -0.314210
C     -0.582431    0.489211    0.667903
C     -1.539367    0.133080    1.485523
H     -1.992690   -0.829053    1.479289
H     -1.898255    0.847769    2.212961
H     -0.140648    1.459419    0.690137
H     -0.650852   -1.211817   -0.654969
