13

C      1.709523    0.183077    0.101403
N      0.353757    0.199411   -0.091757
C     -0.518380   -0.858104   -0.606692
H     -0.644318   -0.764285   -1.708381
H     -0.204694   -1.910503   -0.327584
C     -1.809590   -0.498150    0.240798
H     -2.275930   -0.968876    0.787240
C     -1.760528    0.786384   -0.128498
C     -0.548181    1.272282    0.259057
H     -0.465019    2.141459    0.686867
H      1.864825   -0.353713    1.157215
H      2.207157   -0.419784   -0.614510
H      2.091378    1.190802    0.244843
