17

C      2.751343   -0.416648    0.086593
C      1.550864   -0.723422   -0.768102
C      0.534366    0.365477   -0.784996
C     -0.403803    0.318724    0.398609
H      0.123569    0.211491    1.363567
O     -1.362512    1.324929    0.406337
C     -2.470553    0.516265    0.221920
H     -3.161739    0.444772    1.094462
H     -2.989899    0.659949   -0.741453
C     -1.530105   -0.678767    0.193999
H     -1.502615   -1.158362   -0.820291
H     -1.672117   -1.406205    1.003550
H      0.956093    1.378651   -0.836189
H     -0.090227    0.238456   -1.697994
H      2.636195   -0.754295    1.135510
H      3.019676    0.653202    0.080868
H      3.611463   -0.974218   -0.336391
