11

C     -1.165087    0.055622   -0.860091
O     -0.288780    0.694341   -1.734885
H     -0.648042    0.777074   -2.644095
C     -0.465258   -0.358824    0.393435
C      1.039041   -0.327253    0.105040
H      1.244680   -0.935132   -0.794481
H      1.311618    0.721161   -0.034499
H      1.517656   -0.780808    0.999122
C     -0.797181    0.457087    1.542310
N     -1.044076    1.113420    2.465053
H     -0.704569   -1.416687    0.658922
