10

C      1.361551   -0.406604    0.009615
C      0.211321    0.213576   -0.192498
C     -1.048804   -0.473379    0.168099
H     -0.873279   -1.459515    0.643709
H     -1.719625   -0.602983   -0.722503
H     -1.605604    0.217756    0.845457
O      0.143162    1.485732   -0.730693
H     -0.132795    2.311771   -0.191187
H      1.406063   -1.410179    0.434687
H      2.258009    0.123825   -0.264684
