14

C     -0.099852    1.264531   -0.304430
H     -0.427580    1.759020   -1.221404
H      0.367345    1.957430    0.427928
C      0.673884   -0.045618   -0.477349
C      1.891388   -0.254520    0.344184
O      1.988829    0.281141    1.416663
H      2.676435   -0.884324   -0.028430
H      0.617188   -0.556632   -1.464661
C     -0.668769    0.029386    0.232970
O     -0.618634   -0.177851    1.623388
H     -0.805759   -1.161254    1.736380
N     -1.806780   -0.633909   -0.379332
H     -1.515641   -1.539175   -0.813797
H     -2.272054   -0.038224   -1.092109
