17

C      2.141063   -0.978722    0.578931
C      0.937894   -0.082235    0.685517
H      0.686556    0.225782    1.712097
C      0.843290    0.936866   -0.441368
H      0.624262    1.967086   -0.062013
H      1.539753    0.879779   -1.275018
C     -0.179715   -0.146881   -0.270643
C     -1.535140    0.258930    0.165745
O     -1.733666    1.547544    0.614780
H     -2.111672    2.216981   -0.070357
C     -2.547702   -0.569589    0.137178
H     -2.484956   -1.597605   -0.199233
H     -3.513758   -0.226965    0.464943
H     -0.148112   -0.942308   -1.063396
H      2.040471   -1.744230   -0.217094
H      3.005100   -0.316403    0.281053
H      2.436334   -1.428030    1.555617
