13

C      1.171961    0.802568    0.098485
H      0.919800    1.653882   -0.548900
H      2.035078    0.947588    0.761959
C      0.084228   -0.112101    0.449120
O     -0.112119   -0.656948    1.687560
H     -1.032136   -0.405432    1.984787
C      1.028651   -0.559878   -0.555373
H      1.852457   -1.259150   -0.428894
O      0.053923   -0.729030   -1.521653
C     -0.951270   -0.417505   -0.598308
O     -1.647291    0.748287   -0.910840
H     -1.818202    1.269735   -0.078642
H     -1.585080   -1.282015   -0.339300
