13

N     -1.222982   -0.006574    2.315099
C     -1.817266   -0.131419    1.169602
O     -1.147225    0.018933   -0.035244
C      0.244809   -0.033707   -0.073244
C      0.801028    0.149716   -1.467929
N      2.194567    0.092776   -1.479067
C      3.370959    0.056565   -1.479271
H      0.495882    1.085401   -1.935198
H      0.395640   -0.687236   -2.094001
H      0.688978   -0.913636    0.434591
H      0.617263    0.854659    0.517330
H     -2.868138   -0.360096    1.203817
H     -1.753514   -0.125382    3.208002
