11

C      2.513754    0.125790    0.384781
C      1.260959   -0.168001    0.700595
N     -0.009626   -0.332110    0.737418
C     -0.812554    0.144681   -0.342992
C     -2.209986   -0.320914   -0.180292
O     -2.477542   -1.004971    0.789237
H     -2.996890   -0.061980   -0.910652
H     -0.832497    1.272166   -0.264423
H     -0.396639   -0.106816   -1.341316
H      3.065387   -0.622874   -0.158467
H      2.895633    1.075028    0.681941
