15

O      1.121797   -0.801584   -1.659249
C      1.348636    0.183932   -0.723542
C      2.114577    1.180314   -0.999572
H      2.727851    2.013056   -1.169069
C      0.706001    0.087972    0.598558
H      1.321554    0.532608    1.417982
C     -0.766341    0.051024    0.754046
C     -1.694023    0.223663   -0.412744
H     -1.607862    1.282058   -0.749333
H     -2.739423    0.095118   -0.032726
H     -1.496133   -0.500879   -1.229721
H     -1.158408    0.492570    1.703988
C     -0.001688   -1.225807    0.911040
H     -0.020947   -1.993530    0.106584
H      0.144409   -1.620516    1.936856
