13

O      1.003607   -1.986713    0.916833
C      0.939931   -1.312961   -0.078824
C      0.162066   -0.028404   -0.060652
C      0.885882    1.193797   -0.587477
O      1.382429    1.937608    0.538104
H      2.236694    2.307307    0.235168
C     -1.069092   -0.005896    0.714874
H     -1.326940   -0.956584    1.276888
H     -1.403336    0.892563    1.267024
C     -1.251818   -0.124340   -0.735746
H     -1.436695   -1.075763   -1.225546
H     -1.602184    0.767020   -1.280315
H      1.479456   -1.607635   -0.980331
