10

C     -1.655482    0.482487    0.273757
O     -0.790251   -0.494780    0.825889
C      0.345285   -0.815560    0.110630
O      0.260461   -1.887834   -0.753708
C      1.449765   -0.155675    0.228604
O      2.596331    0.600626    0.410741
H      3.496349    0.142266    0.315858
H     -2.520271    0.638843    0.949959
H     -1.157965    1.433575    0.053668
H     -2.024222    0.056052   -0.689579
