16

C      1.819376    0.455550   -0.547334
C      1.057813   -0.559366    0.229437
C     -0.201964   -0.055977    0.846550
H     -0.099214    0.316240    1.905991
C     -1.314393    0.504276    0.054157
C     -1.148603    0.802270   -1.412921
H     -2.060060    1.305319   -1.795330
H     -1.984310    1.219074    0.572652
C     -1.428766   -0.903230    0.522363
H     -1.353869   -1.682112   -0.237749
H     -2.050223   -1.154505    1.408853
H      1.720762   -0.924383    1.067363
H      0.894145   -1.467849   -0.393812
H      2.653871    0.876062    0.085364
H      1.203165    1.307666   -0.887475
H      2.292270   -0.039034   -1.418107
