11

O      2.463834   -0.274663    0.894637
N      1.276986   -0.268437    1.083619
C      0.460472   -0.213845   -0.092817
H      0.965937   -0.580577   -1.017810
C     -0.896834   -0.770131    0.006207
H     -1.151163   -1.110344    1.066194
H     -1.138564   -1.574618   -0.738039
O     -1.475779    0.434134   -0.201263
C     -0.279936    1.051511   -0.310531
H     -0.062399    1.579649   -1.272580
H     -0.162555    1.727323    0.582381
