10

C      1.771079    0.152245    0.064029
N      0.502004    0.252588    0.075291
N     -0.471751   -0.731174   -0.205489
H     -0.234885   -1.712178   -0.470153
C     -1.742362   -0.115957   -0.053767
H     -2.692072   -0.608061   -0.200100
N     -1.584401    1.119590    0.285360
N     -0.221714    1.407651    0.381264
H      2.390257    1.003264    0.304089
H      2.283847   -0.767968   -0.180524
