17

C      2.112961   -0.295665   -1.078318
C      0.918894    0.333914   -0.377012
C      0.201236   -0.457565    0.370267
C     -0.977031   -0.012420    1.113731
C     -2.205460   -0.753561    0.584079
H     -2.310427   -1.745509    1.048297
H     -3.117848   -0.128608    0.663375
H     -2.024482   -0.951322   -0.510593
H     -1.126935    1.032314    1.285714
H     -0.827117   -0.465282    2.163410
H      0.477138   -1.540087    0.467488
C      0.638417    1.714124   -0.576301
O     -0.275697    2.420157   -0.128368
H      1.348362    2.266933   -1.242788
H      2.486351    0.374508   -1.864631
H      2.895478   -0.561643   -0.348527
H      1.786163   -1.230290   -1.569824
