19

C      2.463775    0.517365    0.128529
C      1.524143   -0.407291   -0.598383
C      0.113957    0.014702   -0.513914
H     -0.256207    0.420850   -1.531547
C     -0.840003   -1.098849   -0.142368
H     -0.303611   -1.676706    0.699954
H     -1.071056   -1.740746   -0.977997
C     -2.039742   -0.399573    0.429667
H     -2.917908   -0.574727   -0.212470
H     -2.229970   -0.683464    1.499446
C     -1.728609    1.078730    0.438256
H     -2.199240    1.654219    1.217892
H     -1.982545    1.481305   -0.610445
C     -0.218320    1.121507    0.422207
H      1.841958   -0.348642   -1.688217
H      1.628041   -1.419779   -0.248068
H      2.458565    0.195041    1.219752
H      2.269871    1.580908    0.016393
H      3.486900    0.285149   -0.211457
