12

O      2.230616    0.217965   -0.194558
C      1.068659   -0.192301    0.483363
C     -0.089238   -0.182608   -0.495692
H      0.188941   -0.365009   -1.541329
C     -1.425130   -0.593156    0.042803
H     -2.039584   -1.266031   -0.589612
H     -1.462077   -0.852759    1.124459
C     -1.181363    0.796902   -0.304536
O     -1.510635    1.965017   -0.412207
H      1.163294   -1.232604    0.857714
H      0.896647    0.493587    1.329407
H      2.159870    1.210997   -0.299812
