13

C      1.947977   -0.580558   -0.049863
C      0.597096    0.045661   -0.056137
O      0.158422    0.680116   -1.202792
H     -0.058184    1.686105   -1.220827
C     -0.217909    0.028502    0.988753
O     -1.486233    0.641096    0.917428
C     -2.422838    0.225163   -0.013620
O     -2.086657   -0.710433   -0.776907
H     -3.411216    0.633523   -0.139018
H      0.135968   -0.467027    1.870521
H      2.082780   -1.305708    0.765747
H      2.714985    0.217211   -0.038895
H      2.045809   -1.093651   -1.044390
