15

O      2.445445   -0.551395    0.592109
C      1.850437   -0.153028   -0.508863
C      0.368081    0.047401   -0.572745
H      0.150549    0.341917   -1.710952
O     -0.404888   -0.988477   -0.361552
C     -1.506960   -0.577722    0.374233
H     -2.354300   -0.748474   -0.341678
H     -1.714310   -1.038791    1.344294
C     -1.424963    0.946642    0.603849
H     -2.167868    1.519891    0.016374
H     -1.617651    1.133211    1.695888
C     -0.095001    1.282746    0.066081
H      2.277138    0.893118   -0.837476
H      2.052368   -0.780929   -1.457495
H      2.141924   -1.326112    1.097933
