13

C     -1.556376    0.161207   -0.466256
C     -0.294431   -0.611198   -0.019656
H     -0.600797   -1.703340   -0.081389
O      0.718373   -0.363212   -0.892406
C      1.757319    0.159096   -0.201956
H      2.017756    1.186988   -0.553633
H      2.713338   -0.413035   -0.301574
C      1.396680    0.261195    1.235624
N      0.063922   -0.247785    1.302977
H     -0.572821    0.534085    1.631818
H     -1.525487    0.372496   -1.537678
H     -2.460456   -0.439447   -0.247420
H     -1.657021    1.102949    0.131549
