14

C      1.896333   -0.236878    0.045304
C      0.604903    0.484823   -0.080805
C     -0.736295   -0.102316    0.025523
N     -1.083857   -1.455629    0.266339
H     -1.717444   -1.737111   -0.535329
H     -1.701501   -1.551589    1.128110
H     -0.228210   -2.027579    0.324394
C     -1.548768    0.902493   -0.151616
C     -0.996913    2.064308   -0.358733
H     -1.559110    2.974490   -0.519457
O      0.373048    1.839003   -0.320857
H      2.711896    0.427934   -0.355278
H      2.116047   -0.439276    1.112217
H      1.869872   -1.142673   -0.579813
