16

C     -0.428580    1.758083   -1.033452
C      0.316659    0.568493   -0.547838
C     -0.249309   -0.785402   -0.557972
C     -1.501632   -0.912498    0.268521
H     -1.637985   -0.117644    1.006090
H     -1.444172   -1.869595    0.827182
H     -2.388920   -1.024523   -0.414671
H      0.510770   -1.520082   -0.231924
H     -0.474982   -1.031175   -1.623409
N      1.515390    0.715785   -0.093624
C      2.275144   -0.379154    0.382765
O      3.374089   -0.643749   -0.162224
H      1.974130   -1.018410    1.197852
H      0.307442    2.529322   -1.331534
H     -1.066962    2.208465   -0.234423
H     -1.081080    1.522082   -1.908462
