19

C     -1.148670    0.988444   -0.064782
C     -1.205834   -0.502652   -0.169707
C     -2.317236   -0.984580    0.750468
H     -2.065383   -0.623630    1.766737
H     -3.288056   -0.540385    0.392672
H     -2.410372   -2.078618    0.694016
C      0.031330   -1.193283    0.144518
C      1.123896   -0.691709   -0.397827
C      2.157951   -0.064410   -0.909438
C      2.736902    0.985407   -0.094042
H      3.451434    0.514628    0.639050
H      2.022731    1.608378    0.458747
H      3.359093    1.645634   -0.753243
H      2.438339   -0.411012   -1.866688
H      0.222326   -2.036882    0.738177
H     -1.477453   -0.747769   -1.232986
H     -2.194588    1.363375   -0.264180
H     -0.925777    1.294708    0.971478
H     -0.510631    1.474356   -0.802972
