15

C      1.573287    1.000933    0.800874
C      0.373730    0.193729    0.574279
H      0.234356   -0.587842    1.337564
C     -0.925906    1.022060    0.457621
C     -1.869206   -0.013131   -0.152674
H     -2.909955    0.260964   -0.339638
C     -1.105223   -1.001219   -0.835729
H     -1.406690   -1.682511   -1.593651
C      0.352694   -0.486911   -0.825489
H      0.441985    0.355369   -1.552492
H      1.082257   -1.262630   -0.924392
O     -1.652690   -1.305535    0.471819
H      1.541636    2.016625    0.360377
H      1.828350    1.031584    1.892975
H      2.441374    0.458516    0.328558
