18

C     -2.413112   -0.967569   -0.215208
C     -1.485241    0.097178    0.313554
N     -0.102304   -0.328270    0.339120
C      0.824832    0.504490    0.056743
O      2.160398    0.128716    0.072027
C      2.552853   -1.211448    0.176436
H      3.681165   -1.215755    0.163880
H      2.235716   -1.696273    1.115243
H      2.271416   -1.805613   -0.733075
C      0.496670    1.908359   -0.298379
H      1.392317    2.568390   -0.151518
H     -0.271199    2.316883    0.406398
H      0.203341    2.023129   -1.353366
H     -1.642858    0.981226   -0.345385
H     -1.768728    0.309713    1.368721
H     -2.498052   -0.968354   -1.306820
H     -2.196652   -1.952760    0.223582
H     -3.440561   -0.692042    0.168048
