10

C     -1.657747    0.065176    0.383965
N     -0.217621   -0.084865    0.122763
N      0.408393   -0.985521   -0.742257
C      1.665180   -0.721691   -0.615110
N      1.990218    0.204424    0.189447
H      2.982599    0.479630    0.350007
N      0.795985    0.681731    0.723469
H     -1.833433    0.099466    1.477615
H     -1.982945    1.040127   -0.051296
H     -2.150631   -0.778477   -0.112784
