15

O      1.230189    2.188594   -0.358101
C      0.310129    1.210907   -0.238823
C     -0.951818    1.133574    0.195707
H     -1.432747    2.009480    0.625385
C     -1.487299   -0.250378    0.165341
H     -2.338256   -0.278725   -0.569874
H     -1.875548   -0.548505    1.163923
C     -0.398652   -1.177415   -0.246845
H     -0.632222   -2.049536   -0.856939
C      0.902055   -1.199002    0.496062
H      1.716409   -1.867878    0.272278
H      0.924069   -0.815162    1.540414
C      0.699880   -0.230165   -0.619188
H      1.167199   -0.211169   -1.593916
H      2.166611    2.085382    0.024575
