16

N      2.491013    0.490658   -0.845464
C      1.424213    0.360302   -0.091237
O      1.153066    1.464319    0.693038
H      1.399491    2.414020    0.427584
C      0.678180   -0.882425   -0.164084
C     -0.704429   -0.833822   -0.690550
C     -1.680627    0.012066    0.044310
O     -1.358965    1.361496    0.109342
H     -1.713316    1.808549   -0.697158
H     -1.867237   -0.397236    1.079469
H     -2.707130   -0.018022   -0.421594
H     -1.114907   -1.886522   -0.637812
H     -0.692621   -0.611569   -1.798362
H      0.631884   -1.413528    0.829124
H      1.258441   -1.602857   -0.813862
H      2.802944   -0.265428   -1.479865
