9

O      2.188529   -0.484016   -0.151883
C      0.972266   -0.262931   -0.285179
N      0.247261    0.963033   -0.138994
H      0.689284    1.871807    0.113435
C     -1.123539    0.688612   -0.397209
H     -1.957141    1.373652   -0.378551
C     -1.157452   -0.597002   -0.667321
C     -0.033860   -1.256064   -0.637974
H      0.174651   -2.297092   -0.821982
