13

O      2.861482   -0.000982   -0.389805
N      1.933963   -0.757667    0.251461
C      0.609182   -0.234590    0.067102
C     -0.058341    1.041947   -0.193662
H      0.086808    1.833845    0.576410
H      0.234599    1.383592   -1.229773
C     -1.390606    0.373670   -0.181041
H     -1.937250    0.399207   -1.168513
H     -2.041921    0.735302    0.660217
C     -0.688396   -0.912469    0.083799
H     -0.814662   -1.598548   -0.802981
H     -0.958882   -1.411437    1.045946
H      2.164025   -0.851870    1.280839
