11

C     -0.946747    0.462009    0.810154
H     -1.434808    0.226966    1.771500
H     -0.642079    1.512565    0.655206
C     -1.163665   -0.381704   -0.402560
H     -1.863574   -1.246788   -0.365994
H     -1.124971    0.155538   -1.395784
C      0.116440   -0.572129    0.330272
C      1.319462   -0.013214   -0.293647
C      2.307110    0.449130   -0.811901
H      3.182895    0.874357   -1.260708
H      0.249938   -1.466730    0.963462
