15

C     -2.434452    0.130893    0.356598
C     -1.255369    0.081087   -0.599357
H     -1.570053    0.034895   -1.673774
O     -0.238373    0.948934   -0.290747
C      0.599775   -0.064157    0.054589
N      1.952965   -0.043632    0.524938
N      2.942078    0.236058   -0.421863
H      2.729981    1.131297   -0.891768
H      3.884383    0.344422    0.021287
H      2.112991   -0.233713    1.519219
C     -0.306174   -0.955624   -0.214090
H     -0.274000   -2.054396   -0.145022
H     -2.115108   -0.201883    1.365830
H     -2.807407    1.157519    0.434069
H     -3.221237   -0.511701   -0.039908
