19

C      2.998830   -0.622505   -0.550921
O      1.618325   -0.644764   -0.589924
C      0.958772    0.132444    0.117265
C     -0.511560    0.110808    0.077653
C     -1.025779    1.475910   -0.364943
H     -0.515438    2.296932    0.165829
H     -0.926310    1.522916   -1.459147
H     -2.100646    1.522878   -0.040805
C     -1.058572   -0.931203   -0.867082
H     -1.759792   -0.481164   -1.588169
H     -1.622397   -1.673389   -0.265588
H     -0.258087   -1.499076   -1.383155
C     -1.001378   -0.125196    1.498983
H     -1.676297    0.680378    1.848773
H     -0.161636   -0.172001    2.225934
H     -1.510293   -1.130547    1.507357
H      1.442507    0.827360    0.763942
H      3.521657   -1.503060   -0.898817
H      3.588095    0.213281   -0.197187
