12

O      2.044964    1.369023    0.019824
C      0.992768    0.651520   -0.023923
N     -0.282846    1.136852   -0.375830
H     -0.485840    2.131870   -0.634238
C     -1.195129    0.038482   -0.308700
H     -1.560153   -0.108300   -1.361599
H     -2.064615    0.254519    0.366387
C     -0.414844   -1.146087    0.102313
H     -0.811800   -1.499481    1.090307
N      0.929556   -0.732051    0.269086
H      1.558138   -1.260911   -0.396247
H      1.289800   -0.835436    1.252620
