11

C      1.130877   -0.639740    0.031427
C     -0.040455    0.263008   -0.297302
C      0.199284    1.671676   -0.078812
N      0.390579    2.786135    0.101361
O     -0.964944   -0.113456   -1.239484
C     -1.376889   -0.326910    0.072162
H     -2.053794    0.370747    0.572086
H     -1.433292   -1.405696    0.339511
H      1.330099   -0.483841    1.128820
H      2.015561   -0.420452   -0.575248
H      0.802973   -1.701472   -0.054522
