15

C     -2.287988    0.915260   -0.156102
C     -1.370955   -0.263394   -0.181786
C     -1.089066   -1.449742   -0.728335
H     -1.290563   -2.268098   -1.426916
C     -0.193478   -0.927752    0.340228
N      1.133710   -0.580545   -0.089945
C      1.495157    0.778096    0.159748
N      2.934106    0.885392    0.134558
H      3.379176    0.139094    0.692292
H      3.272398    1.797418    0.485177
H      1.822372   -1.254736    0.298239
H     -0.265583   -1.450524    1.308124
H     -1.760113    1.839531   -0.513960
H     -3.204749    0.743951   -0.746906
H     -2.574423    1.096048    0.878681
