14

O      2.427590    1.123972    1.113685
C      1.612340    0.319677    0.331752
O      0.279966    0.330613    0.781989
C     -0.429088   -0.500724   -0.069970
C     -1.891780   -0.585125    0.298307
C     -2.470987    0.817996    0.215892
H     -1.847063    1.542213    0.757906
H     -2.052104   -1.031419    1.294087
H     -2.388285   -1.222769   -0.464796
H      0.046882   -1.503575   -0.099225
H     -0.327547   -0.081988   -1.091578
H      2.027790   -0.691939    0.299584
H      1.646459    0.705484   -0.720933
H      3.365827    0.777584    1.054612
