12

O      2.213750    0.151079   -0.671788
C      1.268896    0.004442    0.334315
H      1.665478   -0.370900    1.300691
C      0.221810    1.008631    0.399944
H      0.190446    2.054843    0.655816
N     -0.762736    0.088594   -0.004184
C     -2.189023    0.170441   -0.236126
O     -2.813426   -0.840201   -0.599172
H     -2.716988    1.096570   -0.098115
C      0.121647   -0.829912   -0.077193
H     -0.000873   -1.879489   -0.361127
H      2.801020   -0.654097   -0.643061
