12

N     -2.188882    0.072647   -0.788989
C     -1.031132    0.338752   -0.032668
O     -0.849825    1.527609    0.666184
C     -0.076950   -0.558529    0.025728
N      1.088041   -0.305110    0.779517
C      2.123567    0.184672    0.214236
H      2.178525    0.427666   -0.829127
H      3.035528    0.385980    0.790591
H      1.108307   -0.515388    1.795204
H     -0.158990   -1.508070   -0.498734
H     -2.156089    0.085074   -1.815929
H     -3.072100   -0.135303   -0.306012
