13

C      1.657860   -0.384815   -0.665058
C      1.177946   -0.161266    0.708906
C     -0.093781    0.104256    0.914855
C     -0.992740    0.170640   -0.214495
C     -2.252986    0.433496   -0.013030
H     -2.915090    0.482211   -0.846720
H     -2.613853    0.596927    0.971577
H     -0.593137   -0.000548   -1.202091
H     -0.488834    0.276123    1.918387
H      1.842674   -0.209759    1.549523
H      1.485800    0.524211   -1.313956
H      1.062368   -1.191116   -1.184371
H      2.723774   -0.640360   -0.623527
