15

O      1.868226   -0.157644   -1.018416
C      0.705313   -0.005844   -0.246951
C      0.395491    1.374783    0.228919
H      0.624310    1.448185    1.300703
H      0.964954    2.124633   -0.356125
C     -1.058432    1.543801   -0.098817
C     -1.671469    0.168496   -0.129602
H     -2.002334   -0.125740    0.892680
H     -2.551840    0.086120   -0.781286
C     -0.531870   -0.713194   -0.569825
H     -0.622582   -1.336226   -1.474976
C      0.348059   -1.195250    0.562382
H      0.909974   -2.135568    0.450485
H     -0.009624   -1.038841    1.610021
H      2.631824   -0.037711   -0.369193
