13

O      1.613283    1.209938   -0.418555
C      1.719877    0.100600    0.386030
C      1.039929   -0.995926    0.167072
O      0.162289   -1.100642   -0.903470
C     -1.146036   -0.516837   -0.853600
H     -1.715880   -0.700351   -1.806327
C     -1.840617   -0.397451    0.420568
H     -2.369326   -0.660975    1.293431
C     -1.285016    0.818361   -0.239729
H     -1.215181    1.862798   -0.078670
H      1.125176   -1.878279    0.807637
H      2.393492    0.145691    1.228917
H      1.518011    2.113073   -0.003305
