10

C      2.787845   -0.169997    0.255218
C      1.508518   -0.406997    0.238383
C      0.237675   -0.662944    0.071326
N     -0.697110    0.356685   -0.271078
C     -2.103607    0.122482   -0.195094
H     -2.431192   -0.290676   -1.179614
H     -2.601406    1.093400    0.001226
H     -0.298068    1.281761   -0.579686
H     -0.121425   -1.679005    0.195646
H      3.718770    0.355290    0.231417
