13

C      0.237316   -0.096553   -0.756589
O      0.928809    0.022919    0.425512
C      2.301429    0.329297    0.522468
H      2.667811    0.380499    1.541946
H      2.863093   -0.437478   -0.044776
H      2.504287    1.322442    0.029431
C     -1.075881   -0.198572   -0.722610
C     -1.730981   -0.179736    0.567041
N     -3.017071   -0.280119    0.591384
H     -3.611663   -0.372882   -0.243551
H     -1.144733   -0.084447    1.460181
H     -1.662297   -0.296383   -1.661336
H      0.739879   -0.108987   -1.709102
