15

C     -1.024962    0.948437    0.112096
H     -1.803551    1.233869   -0.640808
H     -1.348143    1.143762    1.159085
C      0.359741    1.405299   -0.245655
H      0.390400    2.010617   -1.186584
H      0.904343    1.906811    0.583576
C      0.703474   -0.045065   -0.464121
C      1.713716   -0.566904    0.501427
O      2.175885    0.163723    1.359593
H      2.019202   -1.603210    0.415981
H      1.034172   -0.271840   -1.496586
C     -0.657672   -0.480938   -0.111358
C     -1.320100   -1.635816   -0.017868
H     -2.360122   -1.660321    0.277221
H     -0.786383   -2.548423   -0.246000
