14

C      2.562755    0.418572    0.336269
C      1.248418    0.357219    0.154514
C      0.473346   -0.813367    0.491295
C     -0.815838   -0.875214    0.315191
C     -1.605314    0.234589   -0.239931
O     -2.246727   -0.195134   -1.432335
H     -2.639946    0.635748   -1.840265
H     -1.130252    1.190916   -0.354906
H     -2.445644    0.395342    0.518136
H     -1.385093   -1.785676    0.581869
H      0.978402   -1.712584    0.920941
H      0.764539    1.213289   -0.259222
H      3.159628   -0.384434    0.743974
H      3.081727    1.320733    0.064470
