11

O      2.164532    1.356783    0.295809
C      1.111941    0.642307    0.161452
C     -0.212980    1.180006   -0.091364
O     -0.469666    2.409187   -0.205868
C     -1.103370    0.015201   -0.172379
H     -1.482548   -0.033270   -1.233889
H     -1.958359    0.075746    0.539418
C     -0.251393   -1.145911    0.037688
H     -0.615577   -2.210650    0.038812
C      0.993728   -0.796518    0.225498
H      1.823693   -1.492881    0.404822
