14

C     -0.523737    1.447040    0.375115
C     -0.091480   -0.003347    0.335715
C     -1.278411   -0.942943    0.287941
H     -1.377452   -1.470957    1.253025
H     -2.212739   -0.440103    0.032745
H     -1.069584   -1.674517   -0.530205
C      0.764817   -0.257386    1.516434
O      1.889577   -0.554363    1.097439
C      1.977369   -0.552703   -0.267861
H      2.880670   -0.785958   -0.885451
N      0.825174   -0.231823   -0.732471
H     -0.895670    1.808713   -0.605969
H      0.371736    2.048312    0.637384
H     -1.260270    1.610036    1.187472
