12

O     -1.280200    1.607274   -0.031350
C     -0.593613    0.458841    0.419808
C     -1.321959   -0.745265   -0.191105
H     -0.898712   -0.869500   -1.209910
H     -2.381860   -0.495461   -0.259238
H     -1.158314   -1.605767    0.461277
C      0.765835    0.529606   -0.110192
C      1.703802   -0.144849    0.499438
C      2.799656   -0.536949    1.025342
H      3.822182   -0.700163    1.304913
H     -0.664797    0.451252    1.509109
H     -0.792019    2.050980   -0.770322
