13

O      2.765767    0.739374   -0.234775
O      1.998794   -0.335059   -0.395022
C      0.924978   -0.621535    0.434248
C     -0.275494   -0.189536    0.066595
C     -1.592415   -0.295299    0.660934
H     -1.951896   -1.360539    0.613044
H     -1.672184    0.138833    1.685378
O     -2.155665    0.395781   -0.352204
C     -0.961567    0.535289   -0.966215
H     -0.614830    1.574048   -1.186334
H     -0.949951   -0.071256   -1.915623
H      1.101750   -1.177265    1.335359
H      3.382713    0.667165    0.539101
