14

C      2.461673    0.431909    0.434481
N      1.063750    0.061464    0.370970
C      0.493687   -1.198031    0.709374
H      0.972952   -2.092809    1.066957
C     -0.782853   -1.099186    0.507719
N     -1.189367    0.030471    0.082541
C     -2.582936    0.306093   -0.192753
H     -3.114348    0.565044    0.762739
H     -3.106924   -0.579680   -0.613970
H     -2.695268    1.193345   -0.873496
N     -0.051626    0.836908   -0.031729
H      2.975732    0.316348   -0.530516
H      2.580747    1.464225    0.851407
H      2.974781   -0.236101    1.157588
