11

C      2.139699    0.261176   -0.157289
C      0.935221   -0.070034   -0.516854
O      0.267374   -1.136035    0.096484
C     -1.087796   -1.074845    0.342290
N     -1.793250   -0.093080    0.030272
C     -2.386837    1.032824   -0.024233
H     -2.204933    1.732917    0.807735
H     -1.560888   -1.905920    0.823245
H      0.406709    0.453127   -1.290352
H      2.642177   -0.285474    0.623477
H      2.642523    1.085345   -0.638944
