13

C     -2.177956    0.826965    0.427254
O     -0.812955    0.670646    0.580518
C     -0.246032   -0.210875   -0.308855
C      1.212219   -0.277153   -0.027660
O      2.062193   -1.083391   -0.759318
C      3.282927   -1.146174   -0.532459
H      3.720417   -0.562164    0.256438
O      1.724129    0.406122    0.895360
H     -0.433085    0.078967   -1.378069
H     -0.685130   -1.233491   -0.168625
H     -2.516806    1.554694    1.193304
H     -2.648653   -0.142094    0.701522
H     -2.481267    1.117948   -0.594922
