15

C     -1.661666    0.026545    0.399174
C     -0.535159    0.516753   -0.481652
O      0.099419    1.633488    0.076771
H      0.098595    1.580033    1.062334
C      0.478676   -0.576224   -0.743474
N      1.138558   -0.986246    0.463023
C      2.010035    0.028202    1.018783
H      2.398542    0.727380    0.239357
H      1.662442   -1.859648    0.316240
H     -0.079371   -1.467055   -1.122158
H      1.175016   -0.293768   -1.546857
H     -0.951295    0.882261   -1.457516
H     -1.388988   -0.979404    0.771719
H     -1.838823    0.765143    1.206682
H     -2.605982    0.002542   -0.202426
