13

N      0.998802    0.844073    0.104610
H      1.801448    1.533902    0.192326
C     -0.362013    1.369143    0.148655
O     -0.840564    2.374180    0.377463
C     -1.173549    0.116110   -0.192231
H     -1.085710    0.179464   -1.463586
H     -2.267766    0.113940   -0.048519
C     -0.356850   -1.040028    0.116743
H     -0.613444   -2.024839   -0.044375
H     -0.385642   -1.023755    1.363586
C      1.099462   -0.592586   -0.025511
H      1.364048   -0.823488   -1.097905
H      1.821778   -1.026115    0.568746
