11

C     -0.851020   -1.015544    0.027127
C     -0.115490    0.250583    0.413147
C      1.353305    0.139303    0.507042
N      2.032136   -0.199264   -0.530462
H      3.059418   -0.286939   -0.501864
C     -0.620925    1.508564   -0.148747
H     -0.940892    2.375598   -0.649961
O     -0.768321    1.150817    1.179435
H     -0.872324   -1.136331   -1.079581
H     -0.369216   -1.856948    0.532075
H     -1.906672   -0.929838    0.347618
