14

C      0.550437   -0.866274    0.426005
H      0.994460   -1.843697    0.120080
H      0.241970   -0.934608    1.515596
C      1.495612    0.290703    0.296880
H      2.204419    0.392104    1.152201
H      2.073444    0.131577   -0.664800
O      0.731510    1.402528    0.095660
C     -0.554900    1.092110   -0.164525
H     -0.927641    1.632549   -1.029718
H     -1.242391    1.294463    0.715522
C     -0.608418   -0.415229   -0.395998
C     -1.911582   -1.036567    0.000676
H     -2.691805   -0.519658   -0.595282
H     -0.355114   -0.620001   -1.472300
