14

C     -0.791312    1.897877   -0.036601
C      0.166575    0.989135   -0.032767
C     -0.025967   -0.474899    0.009470
C     -1.372332   -1.096581    0.053700
H     -1.877529   -1.072796   -0.944799
H     -1.259374   -2.145415    0.388826
H     -2.036710   -0.607549    0.801636
C      1.168819   -1.033526   -0.000774
H      1.372306   -2.092146    0.022638
C      2.160963    0.029955   -0.049163
H      3.256248   -0.114697   -0.068149
N      1.573531    1.172192   -0.066786
H     -1.821706    1.616275   -0.007838
H     -0.513512    2.932174   -0.069392
