11

C     -0.219218    1.370214    0.340037
C      1.035844    1.077931    0.116369
H      1.798264    1.863711    0.216293
C      1.359935   -0.284160   -0.236759
H      2.411090   -0.516217   -0.463838
N      0.480200   -1.167807   -0.266618
C     -0.927802   -0.948796    0.029890
H     -1.680130   -1.549439   -0.551059
H     -1.012023   -1.251518    1.150533
C     -1.137165    0.540118   -0.021878
H     -2.108993    0.865963   -0.312969
