14

C     -2.011315    0.402376    0.398875
C     -0.575179    0.409788    0.005263
O      0.294703    1.311743    0.190392
C      1.570896    0.787938    0.096708
O      2.796883    1.347402    0.074167
N      1.388528   -0.637308    0.087760
H      1.131141   -0.880877    1.060448
H      2.165587   -1.157412   -0.321706
C      0.159638   -0.675913   -0.694480
H     -0.345540   -1.642060   -0.671774
H      0.436063   -0.315113   -1.698162
H     -2.611825    0.614100   -0.479700
H     -2.234072   -0.649862    0.697072
H     -2.165508    1.085198    1.255138
