13

C     -1.685937   -0.163511    0.431701
C     -0.339575   -0.594611   -0.157555
C      0.618151    0.555142    0.080807
C      1.954038    0.235886   -0.455079
O      2.674746   -0.486549    0.236655
H      2.265400    0.625262   -1.409972
H      0.712097    0.675581    1.181514
H      0.166921    1.446921   -0.396075
H      0.066704   -1.479143    0.335866
H     -0.434291   -0.806587   -1.238667
H     -1.537612    0.594528    1.250721
H     -2.257898   -1.008430    0.810004
H     -2.202744    0.405513   -0.385435
