16

C     -1.545323   -0.610810   -0.026849
C     -0.215305    0.087271   -0.227498
C     -0.409901    1.559298   -0.319868
H     -1.172040    1.810765   -1.101212
H      0.508003    2.147928   -0.414628
H     -0.887948    1.892156    0.645995
C      0.610742   -0.574344   -1.272932
C      1.673153   -0.927456   -0.248582
H      2.620536   -0.443741   -0.529081
H      1.766588   -2.012769   -0.041355
C      0.840053   -0.263084    0.792072
H      0.491585   -0.909361    1.621970
H      1.354251    0.629743    1.237797
H     -1.473118   -1.443573    0.696027
H     -2.352859    0.114924    0.217316
H     -1.808418   -1.056947   -1.029173
