8

N     -1.285102    0.161102   -0.363924
C     -0.270100   -0.702974    0.125978
N      0.976517   -0.102387    0.204879
C      1.996401    0.409368    0.266654
H      2.956056    0.896167    0.334475
H     -0.537719   -1.351474    0.952644
N     -1.746916    1.094281    0.576045
H     -2.089138   -0.404082   -0.767916
