15

O      2.598007   -0.342043    0.235968
C      1.321008    0.192441    0.333140
C      0.298159   -0.562141   -0.522870
H      0.734448   -0.941648   -1.446869
O     -0.199725   -1.536500    0.272244
C     -1.209652   -1.224205    0.838710
C     -1.787418    0.050380    0.345835
H     -1.869325    0.843052    1.073384
H     -2.770097   -0.220844   -0.143907
C     -0.844286    0.396484   -0.774369
H     -1.256534    0.266613   -1.795669
H     -0.464148    1.430975   -0.710703
H      0.974367    0.109234    1.405241
H      1.294078    1.272718    0.112325
H      3.181116    0.265486    0.777540
