14

C      2.265760    0.409504   -0.031165
N      1.294226   -0.661462    0.042770
C     -0.107027   -0.411670    0.068670
C     -0.981229   -1.133976    0.725660
C     -2.221161   -0.753045    0.631867
H     -3.053453   -1.243402    1.113374
N     -2.201201    0.393754   -0.208012
H     -3.026921    0.962757   -0.500602
N     -0.855278    0.617310   -0.571101
H     -0.461109    1.368152   -1.177604
H      1.682665   -1.635149    0.076274
H      2.853430    0.488833    0.925094
H      1.833074    1.392406   -0.219515
H      2.978226    0.205987   -0.875708
