16

C      0.388873    1.303358    0.925369
C      0.451051    0.038264    0.211293
C      1.505764   -0.455311   -0.361292
C      2.719986   -0.910654   -0.502845
H      3.279268   -1.468414    0.191248
H      3.130231   -0.657547   -1.433321
C     -0.743288   -0.769445    0.114005
C     -1.789465    0.033379   -0.589673
N     -3.003081   -0.275340   -0.375999
H     -3.798228    0.237944   -0.830353
H     -1.497501    0.832414   -1.243629
H     -0.605654   -1.721782   -0.445593
H     -1.163362   -1.083241    1.095033
H     -0.558991    1.825346    0.611811
H      1.279853    1.916703    0.604007
H      0.404545    1.154327    2.029938
