12

N      3.039784   -0.657590    0.279107
C      2.001686   -0.431602   -0.041793
C      0.648545   -0.134606   -0.436251
O      0.435480    0.784016   -1.468243
C     -0.010604    1.085686   -0.190489
H      0.430810    1.930547    0.355261
C     -1.219192    0.362553    0.357027
H     -1.284723    0.511644    1.467258
H     -2.141805    0.578095   -0.200333
C     -0.526970   -0.941889   -0.022126
H     -0.994016   -1.449610   -0.904064
H     -0.378997   -1.637244    0.804647
