10

O     -2.147085   -1.594797    0.048960
C     -0.959077   -0.882410    0.020725
N      0.206278   -1.452023   -0.015546
C      1.408285   -0.690785   -0.043839
H      2.388958   -1.136679   -0.074134
C      1.331707    0.602448   -0.032975
N      0.259245    1.251689    0.001243
H      0.318298    2.293722    0.006634
N     -0.948912    0.548069    0.030102
H     -1.857696    1.060765    0.058831
