19

C      2.961143    0.138151   -0.300737
C      1.595551    0.045576    0.339689
C      0.746713   -1.024566   -0.279951
C     -0.593441   -1.009410    0.455080
C     -1.499622   -0.093752   -0.337089
C     -2.710298    0.316502    0.480630
O     -3.510844    1.155420   -0.288415
H     -2.980374    1.542415   -1.027662
H     -3.306654   -0.595562    0.681876
H     -2.444442    0.835371    1.400286
H     -1.822708   -0.611581   -1.258229
H     -0.944994    0.855484   -0.554569
H      0.597543   -0.865015   -1.352352
H      1.184602   -2.037354   -0.148033
H      1.042383    0.992890    0.335208
H      1.755307   -0.237203    1.415659
H      2.925922    0.083634   -1.406076
H      3.367673    1.143789   -0.004916
H      3.636539   -0.634789    0.145710
