10

O      1.689197   -0.085518   -0.606038
C      0.631272    0.004016    0.284122
H      1.027851    0.103465    1.317176
C     -0.208549   -1.246487    0.196459
N     -1.492066   -0.731247   -0.188609
H     -2.365794   -1.284949   -0.357111
N     -1.423960    0.641987   -0.313098
C     -0.269371    1.112976   -0.063411
H      0.033770    2.145422   -0.091885
H      2.377650   -0.659664   -0.177605
