14

C      0.729428    0.816911    1.009632
C      0.191312    0.028398   -0.122749
N      1.003343   -0.424846   -1.015431
O      2.344856   -0.231334   -0.998282
H      3.040826   -0.955109   -0.893386
C     -1.252024   -0.242873   -0.240968
C     -1.534440   -1.060290   -1.474432
H     -1.882193   -0.378224   -2.293392
O     -1.674137   -0.988123    0.877594
H     -1.719888   -0.410179    1.662989
H     -1.809498    0.697304   -0.302289
H      0.052525    1.698551    1.149344
H      0.801299    0.208395    1.928755
H      1.708592    1.241419    0.712615
