12

C     -0.536375   -0.970498    0.387482
H     -0.710010   -1.402576    1.385552
H     -0.440880   -1.712671   -0.436747
C      0.464474    0.153202    0.351889
C      1.567091   -0.002625   -0.630813
O      1.677721    0.863948   -1.506710
H      2.229193   -0.836057   -0.569031
H      0.893672    0.320173    1.360820
C     -0.571783    1.132180   -0.006473
H     -0.566286    2.183037   -0.199385
C     -1.467788    0.148644    0.021249
H     -2.539028    0.123243   -0.157832
