12

O      2.577819   -0.127165   -0.840561
N      1.907485   -0.105694    0.314745
C      0.500238   -0.112306    0.155357
C     -0.547249    0.935346    0.261894
H     -0.358411    1.732019   -0.456063
H     -0.676781    1.338107    1.292849
N     -1.587932   -0.008109   -0.056707
H     -2.138942    0.173570   -0.915854
C     -0.592383   -1.060290   -0.170087
H     -0.525967   -1.532787   -1.177539
H     -0.804242   -1.831882    0.606137
H      2.246365    0.599191    0.985830
