14

C      2.491963    0.697521    0.656520
N      1.325924    0.288366    0.246018
C      1.139996   -0.980635   -0.361640
O      0.030085   -1.205222   -0.905189
C     -1.000945   -0.275532   -0.932553
C     -1.828334   -0.170327    0.298354
O     -2.826849    0.779992    0.174072
H     -2.476359    1.644496    0.503046
H     -1.129667    0.029953    1.135017
H     -2.295817   -1.165648    0.480679
H     -1.237516    0.356948   -1.758279
H      1.891608   -1.756756   -0.382974
H      2.526394    1.679893    1.105682
H      3.389516    0.076950    0.551120
