14

C     -1.578294   -0.416712   -0.283438
C     -2.432931    0.482495    0.133795
H     -2.140931    1.223334    0.843214
H     -3.435019    0.484397   -0.232534
C     -0.177498   -0.403313    0.241686
O      0.683815   -0.227003   -0.864539
C      1.976570   -0.220201   -0.331289
O      2.178050    0.784756    0.579575
H      1.956505    1.679231    0.262280
H      2.693938   -0.146974   -1.191337
H      2.096465   -1.195023    0.190503
H      0.056548   -1.355766    0.775431
H     -0.008236    0.485689    0.883274
H     -1.868984   -1.174908   -1.006621
