15

C     -2.650960    0.895367   -0.265700
O     -1.424086    0.486592   -0.843203
C     -0.644639   -0.413227   -0.120175
C     -1.167974   -1.448285    0.508410
H     -2.233515   -1.662309    0.501451
H     -0.493528   -2.098092    1.046498
C      0.767843   -0.180505   -0.076282
C      1.971706    0.037168   -0.046406
C      3.403693    0.312690   -0.000381
H      3.676104    0.741833    0.972679
H      4.012118   -0.603427   -0.145516
H      3.689800    1.022669   -0.811802
H     -3.190916    1.608234   -0.919252
H     -3.276791   -0.013050   -0.093322
H     -2.438855    1.314342    0.746100
