9

O      2.317531    0.798349    0.229872
C      1.345768   -0.068633   -0.202212
N      1.201539   -1.326853   -0.756893
N      0.067930   -0.584746   -0.499416
C     -1.336122   -0.371712   -0.487187
N     -1.856090    0.803974   -0.390877
H     -2.889871    0.952949   -0.382527
H     -2.018774   -1.205176   -0.559649
H      3.168090    1.001847   -0.316769
