12

O      2.606030    0.139954    0.708766
C      1.335886    0.338496    0.169574
C      0.209177   -0.574059    0.422045
C     -1.013912   -0.121345   -0.272753
C     -2.083193    0.160145    0.423836
H     -2.072313    0.062538    1.497708
H     -2.976519    0.490463   -0.079721
H     -1.031270   -0.021949   -1.343399
H      0.053663   -0.602032    1.524943
H      0.429578   -1.614405    0.044960
O      1.138589    1.337604   -0.564121
H      3.404284    0.404591    0.115932
