14

C      1.940049   -0.231449    0.017664
C      1.166596    0.832646   -0.638112
N     -0.106238    0.773031   -0.606157
C     -0.699026   -0.341270    0.075444
C     -2.168726    0.051608    0.278663
H     -2.723578   -0.748280    0.792162
H     -2.559361    0.292968   -0.727384
H     -2.142167    0.999849    0.857686
H     -0.696524   -1.220987   -0.569509
H     -0.241496   -0.512957    1.069877
H      1.710833    1.643749   -1.133832
H      1.409450   -1.200124    0.077590
H      2.235876    0.041474    1.068274
H      2.874311   -0.380259   -0.562366
