17

C      2.814522    0.586738    0.220540
C      1.443164    0.257226    0.704867
C      0.392832    0.191209   -0.098641
C     -0.945323   -0.151148    0.505169
H     -1.048476    0.076387    1.570917
C     -2.148779   -0.071662   -0.383857
O     -1.921706    0.533206   -1.609214
H     -2.134373    1.485230   -1.549175
H     -3.110369    0.198117    0.132321
C     -1.537537   -1.410416   -0.079515
H     -2.150707   -2.063909    0.585777
H     -0.995418   -1.970223   -0.860760
H      0.517691    0.380790   -1.148444
H      1.320080    0.067351    1.758360
H      3.549797   -0.016589    0.801570
H      2.926658    0.232587   -0.838466
H      3.027944    1.675108    0.288552
