16

C     -2.073886   -0.184448   -0.361550
C     -0.921582    0.416916   -1.103644
H     -1.157992    0.648258   -2.170926
N     -0.172120    1.406060   -0.333069
H     -0.453107    1.603579    0.626529
C      0.472024    0.206709   -0.747976
C      0.865604   -0.861374    0.226684
C      2.345604   -0.930817    0.471195
O      2.959260    0.311953    0.485176
H      3.213559    0.566278   -0.433239
H      0.573010   -1.844265   -0.247652
H      0.353422   -0.823775    1.187121
H      1.233544    0.361004   -1.553592
H     -2.707451   -0.804484   -1.022472
H     -1.802151   -0.737099    0.542102
H     -2.727738    0.665506   -0.021811
