11

N      2.070438    0.586352    0.033137
C      1.239593   -0.522248    0.288124
O      1.532480   -1.364477    1.331026
C      0.198198   -0.745554   -0.462275
O     -0.990920   -0.718733   -0.892193
C     -1.978948    0.043902   -0.181129
H     -2.808888    0.286340   -0.876111
H     -1.561641    0.992761    0.201585
H     -2.406032   -0.588961    0.650810
H      3.007031    0.498742   -0.435318
H      1.698688    1.531875    0.342344
