11

C      2.092402   -0.019531    0.419613
C      0.816117   -0.157745    0.039971
O      0.056264   -1.180663   -0.448983
C     -1.086897   -0.368994   -0.527574
O     -2.108230   -0.766253    0.335132
H     -2.795233   -0.070175    0.425609
H     -1.438204   -0.213348   -1.580762
C     -0.310165    0.749066   -0.007495
O     -0.445324    1.966115    0.296595
H      2.756195   -0.864034    0.360916
H      2.463074    0.925563    0.782808
