15

C     -1.181886   -1.161318   -0.590345
C     -0.568035    0.206307   -0.263072
C     -1.664398    1.189784    0.062572
O     -1.835843    2.207105   -0.577906
H     -2.348289    1.018728    0.893847
C      0.345137    0.147341    0.869337
C      1.636086    0.085166    0.594309
C      2.881470    0.021994    0.202837
H      3.359329    0.955564    0.078055
H      3.254500   -0.968837    0.058634
H      0.145751    0.145727    1.904757
H     -0.083746    0.570268   -1.167020
H     -0.364170   -1.757866   -1.050365
H     -1.586454   -1.644575    0.316575
H     -1.989454   -1.015388   -1.332214
