12

N     -1.932308   -0.708479   -0.622816
C     -0.552241   -0.384748   -0.303153
N      0.462833   -1.030336   -0.694490
C      1.672073   -0.483576   -0.227885
O      2.853217   -0.866511   -0.422179
N      1.323177    0.644582    0.549076
H      1.997443    1.301965    1.059122
C     -0.111398    0.748273    0.528870
H     -0.522781    0.702121    1.559871
H     -0.332335    1.730290    0.048138
H     -2.542354    0.010749   -1.017457
H     -2.315327   -1.664330   -0.457096
