12

N      2.192684    0.310703    0.157737
C      0.942221    0.131463    0.009593
C     -0.133300    0.945487   -0.644440
H      0.097949    1.329381   -1.623779
H     -0.328511    1.810827    0.099571
C     -1.094700   -0.134540   -0.415211
H     -1.681155   -0.527183   -1.279589
C     -0.107313   -0.896194    0.297813
H      0.128233   -1.972181    0.113586
N     -1.359738   -0.537761    0.915829
H     -1.265589    0.174975    1.681061
H      2.609219   -0.634977    0.687827
