13

O      1.564969    2.037856   -0.387637
C      0.842024    1.127721   -0.350478
C      1.534133   -0.265615    0.241000
H      2.573559   -0.268247    0.473925
C      0.711663   -1.169765    0.226274
H      0.797176   -2.262212    0.527394
C     -0.660762   -0.751388   -0.250083
H     -1.269372   -1.393708   -0.878083
C     -1.322534    0.316948    0.549734
H     -0.914227    0.554404    1.523805
H     -2.433590    0.404918    0.495382
C     -0.448633    0.623921   -0.593941
H     -0.974406    1.045166   -1.577290
