14

N      3.052130    1.061169   -1.310259
C      2.119125    0.879521   -0.618306
C      0.952235    0.657267    0.228346
H      1.133563    0.645693    1.310216
C     -0.044845   -0.320777   -0.365693
C     -0.543420   -1.318468    0.602113
C     -1.320190   -1.007658    1.636561
H     -1.644669    0.002093    1.845378
H     -1.656770   -1.777772    2.314296
H     -0.255613   -2.354351    0.453434
H      0.108958   -0.699836   -1.391998
C     -0.375633    1.113069   -0.254339
H     -1.178371    1.390227    0.428223
H     -0.346500    1.729824   -1.176658
