16

C     -1.473602   -0.990565   -0.927751
C     -0.599357    0.180068   -0.570420
N     -0.894294    0.704793    0.731175
H     -1.073412    1.730522    0.670074
H     -1.738115    0.273665    1.180643
C      0.872354   -0.159705   -0.714285
H      1.138441   -0.717656   -1.634848
C      1.781897    0.987431   -0.365366
O      2.153179    2.112859   -0.660670
C      1.768425   -0.242083    0.437128
H      2.676020   -0.886772    0.319219
H      1.405824   -0.222194    1.479076
H     -0.799896    0.974779   -1.346732
H     -1.605382   -1.697992   -0.074674
H     -1.116013   -1.474315   -1.844620
H     -2.496070   -0.572835   -1.135071
