13

N      2.343935   -0.644661    0.442910
C      1.152416   -0.262100   -0.014272
C     -0.138949   -0.843817   -0.438253
C     -1.199040   -0.310095    0.421646
C     -2.200799    0.378518   -0.110979
H     -2.253572    0.558171   -1.185828
H     -3.015121    0.798725    0.474829
H     -1.203397   -0.454446    1.495088
H     -0.370335   -0.567587   -1.497745
H     -0.182168   -1.966808   -0.315617
C      2.171757    0.747623    0.280821
H      2.151231    1.314567    1.245980
H      2.744041    1.251909   -0.514093
