19

C     -2.648143    0.342044   -0.144200
C     -1.979113   -0.885326    0.433560
C     -0.636116   -1.138745   -0.261981
O      0.138203   -0.029194   -0.047936
C      1.397250   -0.101093   -0.618825
C      2.099448    1.173399   -0.293419
C      3.221647    1.209283    0.389435
H      3.709822    2.137701    0.612210
H      3.637667    0.262419    0.720725
H      1.656087    2.100008   -0.639775
H      1.942423   -0.983997   -0.265370
H      1.364682   -0.164105   -1.725447
H     -0.789448   -1.421416   -1.302334
H     -0.165848   -1.981634    0.324332
H     -1.835909   -0.729411    1.518932
H     -2.665517   -1.742569    0.289716
H     -1.885767    1.141527   -0.263328
H     -3.188118    0.109814   -1.073176
H     -3.373252    0.701294    0.642990
