12

N     -1.809781    0.401114   -0.293952
C     -0.420427    0.158761   -0.084468
C      0.584238    0.974881   -0.184451
H      0.514579    2.019760   -0.456908
N      1.825416    0.348331    0.106690
H      2.777700    0.773711    0.100248
C      1.595587   -1.043490    0.435231
C      0.114837   -1.170243    0.309682
H     -0.352116   -1.510415    1.257353
H     -0.150552   -1.958827   -0.444945
H     -2.463158   -0.356143   -0.537761
H     -2.216323    1.362559   -0.206718
