15

C      2.053927    0.111161    0.269390
N      0.827493    0.719565   -0.092775
C     -0.213282   -0.171674   -0.498196
H     -0.034901   -0.591567   -1.521342
C     -0.693488   -1.190132    0.438644
H     -0.142422   -1.323931    1.394743
H     -0.891005   -2.201624   -0.034192
O     -1.914481   -0.527760    0.550003
C     -1.533974    0.448201   -0.310263
N     -2.137203    1.520356   -0.775337
H     -3.097624    1.780610   -0.505635
H      0.532451    1.530682    0.452074
H      2.705163    0.877018    0.738939
H      2.569913   -0.267164   -0.652648
H      1.969434   -0.713742    0.999693
