10

C      1.821412   -0.551775    1.362547
C      0.870398   -0.488911    0.601714
C     -0.268958   -0.408653   -0.278543
H     -0.602913   -1.427747   -0.614864
C     -0.231605    0.558970   -1.337249
H      0.349250    0.714543   -2.258379
O     -1.218952    1.230886   -0.749592
C     -1.328062    0.471040    0.183462
H     -2.029694    0.513664    1.051428
H      2.639126   -0.612018    2.039475
