11

O     -2.057282    0.738343   -0.039649
C     -1.228642   -0.371309   -0.032316
C      0.135518   -0.083667    0.437726
C      1.174088   -0.299920   -0.352865
O      2.474045   -0.034676    0.071679
H      2.826706    0.899631   -0.165075
H      1.055631   -0.690295   -1.357845
H      0.290823    0.305962    1.433009
H     -1.223367   -0.792532   -1.059163
H     -1.705568   -1.146894    0.620528
H     -1.741951    1.475356    0.539802
