11

N      2.380540    0.310349    0.055142
C      1.096217    0.187935    0.061341
C      0.409029   -0.964479   -0.546209
H      1.042352   -1.708798   -1.001521
N     -0.851499   -1.039519   -0.514761
C     -1.667884   -0.046437    0.091049
H     -2.401235   -0.492609    0.820989
H     -2.271476    0.420311   -0.766340
C     -0.909095    1.053021    0.664627
O      0.316441    1.149073    0.647044
H      2.856611    1.131154    0.488639
