11

N      1.696346   -0.287272    0.133856
C      0.315649    0.018607    0.089560
C     -0.866711   -0.871087   -0.003311
H     -0.964879   -1.539671    0.870539
H     -0.878577   -1.454446   -0.944857
O     -1.956547    0.016856   -0.007484
C     -1.543034    1.164922    0.064923
C     -0.264049    1.358630    0.128729
H      0.300925    2.278550    0.196671
H      1.947035   -1.203597   -0.245736
H      2.213841    0.518509   -0.282890
