15

C     -1.505254    1.387959    0.358160
C     -0.536764    0.252218    0.135633
C     -1.035853   -0.895270   -0.646315
H     -1.263072   -0.533144   -1.690986
H     -2.047639   -1.151527   -0.227256
H     -0.365437   -1.761864   -0.639446
N      0.609544    0.375690    0.631655
C      1.683030   -0.533424    0.565948
C      2.670538   -0.164665   -0.471444
N      3.452088    0.112216   -1.284726
H      2.255544   -0.451708    1.536820
H      1.401578   -1.588536    0.450865
H     -1.586588    2.016779   -0.545855
H     -1.218960    1.963629    1.260237
H     -2.512755    0.971646    0.566711
