12

C     -1.653588    0.066572   -0.280492
C     -0.438119   -0.279953    0.535330
H     -0.790780   -0.684273    1.503489
C      0.354175    0.961090    0.716144
N      1.511969    0.737168    0.206059
H      2.340653    1.403164    0.154968
C      1.575421   -0.578231   -0.317141
H      2.443986   -1.027833   -0.806843
N      0.452033   -1.182112   -0.134284
H     -1.327305    0.555878   -1.231488
H     -2.248258   -0.814265   -0.554163
H     -2.220187    0.842795    0.272495
