10

C     -1.749533    0.264277    0.139849
C     -0.552884    0.325863    0.656871
N      0.457857   -0.554027    0.227153
C      1.779757   -0.159264   -0.119616
O      2.090081    1.054706   -0.634278
H      2.588500   -0.867477    0.035201
H      0.205511   -1.583712    0.160459
H     -0.325411    1.050537    1.417964
H     -1.965867   -0.461050   -0.617626
H     -2.528011    0.930147    0.459843
