13

C     -1.444669   -0.357480   -0.319596
C     -0.216293   -0.180580    0.509079
C      0.979574    0.023857   -0.392771
O      2.155283    0.194423    0.330331
H      2.827524   -0.526758    0.139133
H      1.032070   -0.800187   -1.106843
H      0.809251    0.962354   -0.965130
C     -0.300199    1.007261    1.441918
H     -0.458265    1.917306    0.828634
H     -0.023502   -1.091100    1.112147
H     -1.235687   -0.279022   -1.406481
H     -1.962358   -1.326168   -0.082919
H     -2.162729    0.456093   -0.087501
