13

C      1.976920    0.345989    0.086477
C      1.317549   -0.937363    0.531600
N     -0.019473   -1.081556    0.025561
C     -0.845960    0.085281    0.342648
C     -2.219754   -0.073434   -0.182573
O     -2.528034   -1.075324   -0.785007
H     -2.952990    0.696859   -0.034131
H     -0.842309    0.150034    1.459185
H     -0.397642    1.020367   -0.090604
H      0.055226   -1.234139   -1.007203
H      1.669664    1.208026    0.724836
H      3.071061    0.271584    0.164810
H      1.715743    0.623676   -0.951113
