10

N      2.169582   -0.313207    0.380967
C      3.318479   -0.395577    0.509915
C      0.788160   -0.193677    0.213864
N     -0.129654   -0.902977    0.851185
C     -1.375166   -0.559070    0.476391
H     -2.287443   -0.998270    0.857602
C     -1.198168    0.440181   -0.464885
H     -2.006574    0.939395   -0.970116
N      0.133517    0.646269   -0.608615
H      0.587268    1.336932   -1.246307
