19

C     -2.752345    0.598750   -0.286255
C     -1.620254   -0.108350    0.382125
C     -0.640061   -0.728532   -0.585483
C      0.420922   -1.390206    0.221560
C      1.663905   -0.993856    0.075552
C      1.957183    0.097496   -0.888555
C      2.812534    1.164412   -0.231184
H      3.781800    1.193922   -0.783103
H      2.317765    2.163650   -0.371288
H      2.969243    0.906851    0.816992
H      2.484813   -1.424110    0.623849
H      0.146180   -2.173575    0.902076
H     -0.242899    0.032947   -1.261095
H     -1.103136   -1.515219   -1.207233
H     -1.080883    0.629314    1.007149
H     -1.952586   -0.919841    1.081388
H     -3.179312    0.083283   -1.149608
H     -2.423468    1.651350   -0.526469
H     -3.559400    0.731715    0.475691
