15

C      2.195406    0.760972    0.213935
C      0.892396    0.221951    0.686238
C      0.100569   -0.495240   -0.375074
H      0.665311   -1.059561   -1.118566
C     -1.053586   -1.214296    0.288468
H     -0.971932   -2.004757    0.905804
C     -1.606408    0.136916    0.608483
H     -2.688753    0.181253    0.776337
H     -0.977178    0.766954    1.271374
C     -1.162897    0.146558   -0.822031
H     -1.282006    0.895913   -1.486421
O     -1.704002   -1.130104   -0.916948
H      2.006543    1.810484   -0.155877
H      2.710721    0.138003   -0.525391
H      2.875817    0.844955    1.102767
