11

C     -1.745280    0.296528   -0.142508
C     -0.735106   -0.624329    0.329360
C      0.492190   -0.407369   -0.059236
C      1.713650   -0.065885   -0.436886
O      2.354245    0.788470    0.392976
H      3.021472    0.417306    1.058133
H      2.003641   -0.517426   -1.337530
H     -0.869665   -1.453869    0.953634
H     -1.504888    0.824849   -1.067402
H     -2.687367   -0.287273   -0.352924
H     -2.042890    1.028998    0.662382
