10

O     -1.640055   -0.183782    1.069783
C     -0.714970   -0.623923    0.115225
H     -0.759669   -1.670044   -0.221262
C     -0.500557    0.405613   -0.965730
O     -1.010650    1.015731   -1.923232
C      0.570279    0.041564   -0.013184
C      1.823153    0.275145    0.340538
H      2.467549    0.985573   -0.158482
H      2.240228   -0.268625    1.175318
H     -2.475308    0.022748    0.581025
