11

O      1.871501    0.899626    0.336470
C      1.145457   -0.296099    0.194784
C     -0.154278   -0.083961    0.957409
C     -1.221369    0.344802   -0.041849
O     -1.765520   -0.858509   -0.537268
H     -2.217332   -1.271345    0.255558
H     -0.777250    0.923453   -0.862928
H     -1.978424    0.931427    0.516802
H      0.907310   -0.455064   -0.874143
H      1.705029   -1.172187    0.564309
H      2.484876    1.037857   -0.413315
