11

C     -1.661188   -0.128950    0.481958
C     -0.335755   -0.885583    0.433316
C      0.715194   -0.064276   -0.177593
C      1.600964    0.625133   -0.670677
N      2.588248    1.388721   -1.193520
C      3.435985    2.061602   -1.663261
H     -0.412637   -1.810333   -0.170963
H     -0.032124   -1.231064    1.458531
H     -1.510259    0.923674    0.257030
H     -2.348011   -0.664268   -0.203396
H     -2.040419   -0.214654    1.544404
