10

C      0.080688   -0.019348    0.594401
C     -1.080300   -0.227644   -0.343724
H     -1.328312   -1.306473   -0.407161
H     -0.847803    0.207392   -1.328752
H     -1.997114    0.275982    0.044285
C      1.322251    0.346101   -0.129614
O      1.964394   -0.506794   -0.719171
H      1.719254    1.362507   -0.175438
H      0.324820   -0.936320    1.184368
H     -0.157878    0.804597    1.280807
