17

O      0.763286    2.358497   -0.437958
C      1.209863    1.118961   -0.054244
C      0.168652    0.104965    0.115437
C     -1.275013    0.311076   -0.088763
C     -2.053237   -0.958465    0.177837
H     -2.952478   -1.057839   -0.427453
H     -1.376718   -1.810140   -0.101891
H     -2.224499   -1.041073    1.266877
H     -1.409824    0.512166   -1.193402
H     -1.683228    1.156257    0.503947
O      0.537089   -1.041851    0.465861
C      1.851378   -1.353653    0.685632
H      2.551353   -1.280510   -0.126503
H      2.148250   -1.670575    1.692787
H      1.922558    0.763736   -0.829181
H      1.820800    1.182025    0.892587
H      0.001767    2.706423    0.055172
