15

C      1.293767    1.096484    0.834913
C      0.809984    0.157027   -0.257394
H      1.274404    0.325498   -1.254857
C      0.379208   -1.216526    0.062869
H      0.538807   -1.558304    1.109033
H      0.515382   -2.008357   -0.677972
C     -0.665287   -0.216551   -0.202801
O     -1.405178    0.197768    0.910081
H     -2.087471   -0.520735    1.071447
N     -1.337394   -0.110143   -1.461537
H     -1.820097   -0.947318   -1.786164
H     -1.800452    0.787284   -1.609093
H      2.031712    1.825764    0.422137
H      0.446890    1.684908    1.241114
H      1.825725    0.503200    1.598223
