15

C     -1.814862    0.221644   -0.571384
C     -0.405981   -0.182571   -0.514300
C     -0.025614   -1.210333    0.514970
H     -0.014222   -0.774547    1.554505
H     -0.641887   -2.114464    0.435655
H      1.068229   -1.461839    0.293796
C      0.440757    1.064292   -0.277296
C      1.680706    0.834360    0.401962
C      2.725375    0.627930    0.970854
H      3.692557    0.421815    1.488097
O      0.026365    2.151484   -0.666294
H     -0.130900   -0.574231   -1.552479
H     -2.297433    0.131363    0.461798
H     -2.362679   -0.434067   -1.271555
H     -1.940411    1.299165   -0.815232
