11

N      1.891028   -0.037541   -0.173835
C      0.464716   -0.075123   -0.039904
C     -0.307566    0.977217   -0.090714
C     -1.584780    0.754103    0.050991
H     -2.381262    1.485026    0.039322
C     -1.689958   -0.690462    0.226638
H     -2.602626   -1.250495    0.373965
O     -0.371414   -1.153838    0.160098
H      2.073735    0.619869   -0.969423
H      2.249991    0.356483    0.737789
H      2.258136   -0.985240   -0.314928
