9

C     -1.914937   -0.142187    0.933886
C     -0.997567   -0.414776    0.023634
C      0.135268   -0.437055   -0.617985
C      1.159623   -0.314583   -1.402009
C      2.053402    0.801343   -1.420548
N      2.773549    1.709296   -1.420105
H      1.358977   -1.114701   -2.098085
H     -1.918228   -0.722112    1.846607
H     -2.650087    0.634775    0.788945
