9

O     -1.868107   -1.330475    0.677832
C     -0.681970   -0.720787    0.248972
N      0.421352   -1.260605   -0.099802
N      1.368799   -0.303680   -0.463651
H      2.362006   -0.447736   -0.793038
N      0.808070    0.962995   -0.331412
C     -0.531122    0.735975    0.131961
H     -1.287877    1.196888   -0.536642
H     -0.591151    1.167426    1.165779
