16

C     -2.656980   -0.046200   -0.553779
N     -1.482133   -0.395161   -0.759285
C     -0.408865    0.258830   -0.134957
H     -0.719530   -0.009571    1.025700
C      0.574466    1.222968   -0.271560
H      0.470179    2.070691    0.525556
H      0.639952    1.618035   -1.237357
C      1.943289    0.570144    0.036530
H      2.833969    1.130099    0.269852
C      1.766302   -0.738705   -0.049165
H      2.725725   -1.343510    0.176124
C      0.490681   -1.123951   -0.434892
H      0.343323   -1.065126   -1.637033
H     -0.056826   -1.982201   -0.114678
H     -3.259206   -0.879106   -1.166438
H     -3.204345    0.712766   -0.131742
