11

C      1.718078   -0.483276   -0.335068
C      0.820174    0.028741    0.483794
O      1.172593    0.192582    1.813369
C     -0.516669    0.434662    0.090036
O     -0.756501    1.737298   -0.254427
H     -1.391756    1.790211   -1.004254
N     -1.622368   -0.450873    0.036280
H     -1.376039   -1.377615   -0.356248
H     -2.165569   -0.493423    0.922193
H      2.697167   -0.772487   -0.010127
H      1.420891   -0.605818   -1.385549
