17

C     -1.947793    0.694497    0.663956
C     -1.476778   -0.716688    0.397013
H     -2.040501   -1.544136    0.823369
N     -1.019284   -0.878505   -1.009160
H     -1.302070   -1.785588   -1.456973
C     -0.022824   -0.902957    0.032514
C      0.844371    0.294627    0.246192
N      2.204025    0.073949   -0.181431
C      3.103290    1.074746    0.323327
H      3.713253    1.508836   -0.483163
H      2.528387   -0.888982   -0.161876
H      0.825664    0.658454    1.291904
H      0.430329    1.140513   -0.362629
H      0.452525   -1.881713    0.302062
H     -3.054613    0.660535    0.710784
H     -1.696109    1.399881   -0.153744
H     -1.541873    1.092530    1.614594
