11

N      1.944894   -0.043570    0.006987
C      0.554802   -0.038636    0.336646
O      0.055945   -0.142911    1.480071
C     -1.322636   -0.101095    1.450148
C     -1.754983    0.038558    0.217410
H     -2.797906    0.104183   -0.133856
C     -0.556651    0.091971   -0.624238
H     -0.486509    1.007503   -1.243677
H     -0.466928   -0.828859   -1.278371
H      2.305651    0.725913   -0.570608
H      2.524322   -0.813058    0.359489
