8

C      0.462049    0.628424    0.039819
C     -0.778717   -0.197685   -0.026583
H     -1.494138    0.206451   -0.797306
H     -0.564693   -1.233918   -0.334154
H     -1.328014   -0.194336    0.932934
N      1.602858    0.053593    0.071409
H      1.734142   -0.972067    0.053867
H      0.366513    1.709538    0.060013
