10

C     -1.291989   -0.139018    0.335495
C      0.016090    0.554315    0.166299
O     -0.011226    1.772219    0.136287
C      1.290808   -0.154163    0.039100
H      1.857586    0.290364   -0.809584
H      1.107428   -1.227155   -0.246630
H      1.913195   -0.163474    0.932709
H     -1.541094   -0.131079    1.411327
H     -1.234684   -1.177458   -0.023696
H     -2.106114    0.375448   -0.215486
