15

C      2.572865   -0.454957   -0.088994
N      1.275763    0.107016   -0.064547
C      0.919835    1.342261   -0.183472
H      1.582089    2.186311   -0.327390
N     -0.497223    1.459097   -0.098991
C     -1.042180    0.320562    0.071041
C     -2.473134   -0.047420    0.212832
H     -2.627980   -1.115918    0.057764
H     -2.885318    0.285781    1.197869
H     -3.013202    0.471441   -0.630413
C      0.069373   -0.669994    0.109234
H     -0.106590   -1.384939   -0.719747
H      0.100526   -1.163483    1.102512
H      3.098286   -0.567422   -1.014917
H      3.026890   -0.768337    0.830316
