9

O     -1.480959    1.611361    0.166315
C     -0.711908    0.630917    0.055873
N      0.625783    0.671511    0.156356
H      1.179732    1.546823    0.341846
N      1.115541   -0.532279   -0.011075
H      2.126288   -0.768067    0.020189
N      0.136433   -1.370213   -0.220059
C     -1.006910   -0.684991   -0.185303
H     -1.984000   -1.105063   -0.324143
