15

C     -1.175958    1.145022   -0.552151
C     -0.327609    0.038419   -0.011297
C     -1.133038   -1.154514    0.456418
H     -1.582900   -1.632523   -0.437247
H     -1.869059   -0.879467    1.223952
H     -0.379848   -1.891988    0.851317
C      0.680478   -0.457887   -0.981944
C      1.909288   -0.296987   -0.533832
H      2.826084   -0.588614   -1.076346
C      1.832159    0.322375    0.778838
H      2.711510    0.564970    1.371038
C      0.574649    0.508240    1.066870
H     -0.592193    1.654877   -1.349237
H     -1.384665    1.922328    0.214381
H     -2.088895    0.745748   -1.020761
