13

N      2.318622    0.126335    0.186679
C      0.901942   -0.011051    0.172488
C      0.010848    0.859323    0.654282
C     -1.326250    0.302281    0.421702
O     -2.027778    1.203205   -0.380541
H     -1.810800    2.135316   -0.174632
H     -1.840366    0.141374    1.391403
N     -1.179080   -0.958982   -0.231027
H     -1.597110   -0.975513   -1.202589
C      0.211396   -1.145647   -0.381995
H      0.707722   -2.021111   -0.850706
H      2.829319   -0.153153    1.031969
H      2.801533    0.497624   -0.637034
