13

C     -0.721361   -1.228314   -0.239632
C     -0.424886    0.226612   -0.128568
C      0.793966    0.697119   -0.306986
O      1.813146   -0.228620   -0.608178
O      2.758047   -0.383043    0.340436
H      2.347007   -0.272768    1.215202
H      1.060126    1.739100   -0.237728
C     -1.484668    1.146256    0.179684
O     -1.237197    2.359049    0.272199
H     -2.479582    0.790974    0.328645
H     -0.463060   -1.787098    0.680251
H     -0.154784   -1.700000   -1.084406
H     -1.806753   -1.359269   -0.410919
