14

C     -2.339846    1.162762    0.118351
C     -1.622320    0.145101    0.597157
N     -0.204199    0.189833    0.659602
C      0.453256   -0.914422    0.547124
O     -0.257635   -2.097601    0.369891
H     -1.155413   -2.107919   -0.139317
O      1.829019   -0.847541    0.610671
C      2.550492    0.309080    0.166946
H      3.628154    0.113858    0.322309
H      2.186715    1.226350    0.631823
H      2.366698    0.337242   -0.946479
H     -2.188448   -0.715023    0.934365
H     -1.829141    2.055783   -0.236143
H     -3.417331    1.142498    0.065013
