14

C     -0.038901   -0.073285   -0.317504
C      1.417455    0.152645    0.067412
H      2.017505    0.441640   -0.819006
H      1.810851   -0.853156    0.376290
H      1.540127    0.883431    0.862849
C     -0.625324   -1.220113    0.421927
H     -0.955092   -2.060633   -0.252861
H     -1.435327   -0.975043    1.116081
H      0.185759   -1.689375    1.051257
C     -0.846352    1.194599   -0.238433
H     -0.933708    1.603236    0.771882
H     -0.312206    1.939037   -0.900397
H     -1.814613    1.014186   -0.730885
H     -0.010174   -0.357169   -1.408613
