17

C     -2.092759   -0.615681   -1.424916
C     -1.157797    0.207068   -0.571234
C     -1.088097   -0.488996    0.794572
C     -0.147929    0.349006    1.634676
C      1.149975    0.342452    0.916864
C      2.206629    0.357796    0.336874
C      3.471351    0.379766   -0.332681
H      3.903422    1.247458   -0.801309
H      4.032342   -0.538866   -0.370770
H     -0.060300   -0.099863    2.639067
H     -0.492635    1.399488    1.714378
H     -2.117875   -0.495408    1.227418
H     -0.703917   -1.492601    0.599598
H     -1.617818    1.203624   -0.440952
H     -0.152729    0.306966   -0.988490
H     -1.997457   -1.712315   -1.226451
H     -3.134405   -0.349893   -1.109902
