16

C      1.812344    0.235614   -0.828017
C      0.513367    0.728279   -0.258411
C     -0.630390   -0.215124   -0.476348
C     -0.430462   -1.561385    0.133584
H      0.143786   -1.569457    1.066165
H     -1.449214   -1.975158    0.377920
H     -0.021414   -2.276863   -0.637307
O     -1.733328    0.355833    0.145700
C     -1.965569    1.537100   -0.013988
H     -2.829995    1.964886    0.478936
H     -0.876376   -0.318044   -1.547430
H      0.653811    0.941332    0.804185
H      0.261666    1.673461   -0.807398
H      2.278219   -0.572268   -0.232438
H      1.739670   -0.046809   -1.896835
H      2.533884    1.098604   -0.765442
