13

C      1.304660    0.020558    0.890826
H      1.593604    1.061637    1.247156
N      1.305466   -0.145059   -0.609196
H      1.660829   -1.100927   -0.881881
H      1.720908    0.660572   -1.102787
C      0.117273   -0.066539    0.133405
C     -0.969808   -1.032756    0.213570
H     -0.953084   -1.713651   -0.716535
H     -0.954177   -1.634424    1.145884
O     -1.909125   -0.042651    0.113325
C     -0.948579    0.916600   -0.023771
H     -1.072407    1.328527   -1.108303
H     -0.895561    1.748114    0.698308
