10

O      2.920604   -0.351207   -0.504415
C      1.678135   -0.190879   -0.603522
C      0.453667   -0.062918   -0.186028
C     -0.441187    1.026425    0.163097
H     -0.100861    1.698182    0.987897
H     -0.744626    1.602663   -0.760752
O     -1.462762    0.179135    0.469280
C     -0.687592   -0.898417    0.160905
H     -1.075026   -1.412498   -0.752029
H     -0.540352   -1.590485    1.025567
