16

C     -1.061772   -1.472189   -0.076329
N     -0.601005   -0.310290    0.668228
H     -0.433199   -0.603393    1.659795
C     -1.620859    0.668618    0.582559
C     -1.185608    1.757958   -0.010222
H     -1.702383    2.686223   -0.234125
C      0.192294    1.504897   -0.341082
H      0.846761    2.232433   -0.852229
C      0.510542    0.292879    0.064209
C      1.889959   -0.265016   -0.139836
H      2.669688    0.469680    0.149225
H      2.059662   -1.167778    0.464952
H      2.025597   -0.499322   -1.234307
H     -0.367879   -2.328263    0.049641
H     -2.036249   -1.771958    0.392204
H     -1.185550   -1.194479   -1.142682
