17

C      0.792371   -0.140545   -1.865728
C      0.496397   -0.155360   -0.406200
H      1.350972   -0.558536    0.144519
C      0.151408    1.187987    0.174582
H      0.993708    1.872655    0.266539
H     -0.728191    1.651213   -0.312912
C     -0.306910    0.740007    1.564261
H     -0.560293    1.467304    2.318741
C     -0.828517   -0.614650    1.444695
H     -1.627148   -1.042674    2.049013
C     -0.744673   -0.946216   -0.044138
H     -0.656002   -2.015220   -0.244175
H     -1.645985   -0.513173   -0.524035
C      0.559403   -0.428772    2.119244
H      0.025544    0.343093   -2.480351
H      0.938232   -1.198291   -2.197792
H      1.789683    0.351180   -2.006264
