16

C      1.974756   -0.100904    0.587452
O      0.943681   -0.601121   -0.141098
C     -0.228403    0.051000   -0.174007
C      0.035070    1.450735   -0.753339
H      0.219655    1.337601   -1.849998
C     -0.975087    0.232552    1.095711
H     -0.362271    0.259195    2.009329
H     -1.736971   -0.562975    1.251608
H     -1.551632    1.194112    1.101463
C     -1.129411   -0.668681   -1.159640
H     -1.342098   -0.048030   -2.063394
H     -0.677878   -1.612993   -1.533505
H     -2.108839   -0.937916   -0.693381
H      2.834431   -0.799956    0.467770
H      1.796178   -0.063062    1.683724
H      2.308820    0.870443    0.171307
