9

C      1.573331   -0.059574   -0.091777
O      2.687387   -0.405179    0.382720
C      0.319791    0.284053   -0.159944
C     -0.779620   -0.706343   -0.020651
H     -0.424051   -1.710410   -0.380673
H     -1.650927   -0.372304   -0.646716
H     -1.027281   -0.762143    1.049031
O     -0.034327    1.605771   -0.367934
H     -0.664303    2.126128    0.235944
