10

C      1.546754   -0.173752   -0.176770
N      0.271365   -0.336617   -0.086645
C     -0.695554    0.696516    0.187618
H     -0.477357    1.193346    1.169590
H     -0.606225    1.479267   -0.581688
N     -1.976371    0.028606    0.188348
N     -1.814846   -1.206620   -0.046661
N     -0.463925   -1.505567   -0.226082
H      1.985454    0.803268   -0.043790
H      2.230704   -0.978448   -0.383920
