14

C     -1.036359    0.525157   -0.355368
H     -1.557524   -0.321219   -0.773977
H     -1.557318    1.075701    0.437008
C     -0.393506    1.488631   -1.392274
H     -0.970027    1.580111   -2.313796
H     -0.095188    2.427398   -0.902473
C      0.702498    0.467039   -1.503789
H      0.447811   -0.400709   -2.169570
C      2.042949    0.641721   -1.057294
H      2.885937    0.191389   -1.650202
H      2.267394    1.711830   -0.778196
C      1.649749   -0.109952    0.134904
H      2.204695   -0.675188    0.884829
C      0.403952    0.156942   -0.049674
