12

C      1.435775   -0.235083   -0.032418
C     -0.070527   -0.062424   -0.114900
N     -0.822253   -1.284469   -0.187685
H     -1.412017   -1.364710    0.669710
H     -1.346347   -1.402998   -1.074101
O     -0.479544    0.918164   -1.004536
C     -0.701177    1.149823    0.357615
H     -0.164658    1.989708    0.815067
H     -1.778830    1.118844    0.618493
H      1.641132   -0.663772    0.976386
H      1.968351    0.736175   -0.166477
H      1.730096   -0.899258   -0.857155
