11

C     -1.215646   -0.479905    0.170996
N     -0.267930    0.449782    0.689654
C      0.878516    0.646797   -0.171414
N      1.544121   -0.580206   -0.349502
C      2.080591   -1.608102   -0.505952
H      0.602576    1.003742   -1.182728
H      1.534040    1.420466    0.276895
H     -0.674156    1.328528    1.031039
H     -1.010260   -0.669702   -0.900611
H     -1.216819   -1.457288    0.728301
H     -2.255031   -0.054112    0.213323
