13

C      1.434227   -0.260363   -0.120646
H      2.463412   -0.244833    0.389963
H      1.702142   -0.524994   -1.179376
C      0.718948    1.003969    0.003193
H      1.353332    1.887919    0.143368
C     -0.612007    1.006489   -0.045996
H     -1.144943    1.934080    0.062548
C     -1.318143   -0.284729   -0.285904
H     -2.362842   -0.136093   -0.023756
H     -1.157495   -0.532833   -1.361908
N     -0.715127   -1.296790    0.503978
H     -1.018933   -1.076972    1.514241
C      0.657430   -1.474849    0.400296
