15

C      2.394093    0.421990   -0.216612
C      1.139534   -0.378104   -0.250818
O      1.198913   -1.554898   -0.556779
C     -0.152432    0.268460    0.086315
C     -1.314792   -0.684673    0.001002
C     -2.549706    0.053701    0.353824
O     -2.536200    1.227634    0.649333
H     -3.476163   -0.492341    0.339925
H     -1.108162   -1.497687    0.749513
H     -1.418970   -1.095374   -1.005168
H     -0.327944    1.117583   -0.625557
H     -0.078993    0.731107    1.089974
H      2.928883    0.361816   -1.193102
H      3.097991    0.042716    0.576784
H      2.203949    1.478070    0.001367
