12

O      3.348379    0.144140    0.483545
N      2.347583   -0.469234   -0.041016
C      1.076953   -0.038131    0.095805
C      0.317258    1.142420   -0.144996
H      0.776020    2.038251   -0.552803
C     -0.931047    0.578525    0.083080
H     -1.728085    1.215189    0.598342
C     -1.420912   -0.731317   -0.523692
H     -2.260269   -1.155153   -0.238761
H     -1.005426   -0.866001   -1.629750
C     -0.307768   -0.659738    0.428045
H     -0.212685   -1.198954    1.442200
