14

C      2.656675    0.196534    0.625377
N      1.779402   -0.721583    0.817104
C      0.375437   -0.479755    0.677668
O     -0.467348   -0.702677    1.548605
C     -1.738321   -0.388579    1.175545
H     -2.609667   -0.519921    1.818900
C     -1.689482    0.135995   -0.201891
H     -1.984585    1.220824   -0.218451
H     -2.320088   -0.453450   -0.904193
C     -0.232355    0.073176   -0.545165
H      0.184506    1.094973   -0.771718
H     -0.091076   -0.605991   -1.418485
H      2.439710    1.217564    0.347297
H      3.697190   -0.067109    0.750721
