13

O      2.299637   -1.086356   -0.353385
C      1.175825   -0.533339   -0.173326
N      1.005456    0.858924   -0.355001
H      1.889048    1.483170   -0.403462
C     -0.292117    1.415631   -0.363292
H     -0.565928    1.383855   -1.520190
H     -0.330430    2.481076   -0.199184
C     -1.371740    0.670987    0.231193
C     -1.153706   -0.736309    0.600209
H     -1.985744   -1.421823    0.513815
H     -0.968737   -0.735149    1.780371
N      0.116254   -1.354569    0.171212
H      0.182182   -2.426098    0.071040
