14

C     -1.980572    0.614100    0.331147
N     -1.247339   -0.406770   -0.379819
C      0.148612   -0.234173   -0.185512
C      1.064479   -1.116859   -0.480693
C      2.300576   -0.780714   -0.230817
H      3.140096   -1.407406   -0.423920
N      2.231487    0.530265    0.319523
H      3.047077    1.105561    0.634370
N      0.866472    0.873968    0.347025
H     -1.490493   -1.341758    0.034171
H     -1.506795   -0.423127   -1.388411
H     -2.920779    0.789974   -0.269266
H     -1.413509    1.563197    0.363878
H     -2.239311    0.233742    1.328323
