15

O      2.041312   -1.222817   -1.171303
C      2.475673   -0.360073   -0.416477
C      1.806794    0.671582    0.323318
C      0.519274    0.894504    0.322939
C     -0.407609    0.077277   -0.468884
C     -1.395787   -0.599673    0.422365
C     -2.684964   -0.416465    0.331176
H     -3.100980    0.254817   -0.418079
H     -3.378525   -0.921705    0.992108
H     -0.991956   -1.274504    1.176963
H      0.024148   -0.610419   -1.154496
H     -1.035280    0.781665   -1.127441
H      0.118534    1.736835    0.948057
H      2.422606    1.362552    0.967995
H      3.586759   -0.373577   -0.275142
