12

N     -1.634572   -0.843047    0.796493
C     -0.868944    0.192874    0.134756
N      0.492421    0.143978    0.491428
C      1.613914    0.087003    0.786768
O      2.951659   -0.000011    1.125285
H      3.225610    0.288822    2.077909
N     -1.013719    0.091119   -1.301375
C      0.265526    0.472994   -1.886253
H      0.249551    1.579618   -1.955183
H     -1.733715    0.741176   -1.645055
H     -1.046443   -1.663843    1.062300
H     -2.501287   -1.090682    0.312926
