13

C      1.835854   -0.234647    0.419770
C      0.644006    0.072728   -0.524598
H      0.906862    0.741992   -1.386799
O     -0.069965   -1.011378   -0.864425
C     -0.619721    0.125532   -0.084639
C     -1.918732    0.579369   -0.619859
H     -2.202037    0.966590   -1.620255
O     -2.462005    0.230438    0.549070
C     -1.442214   -0.159054    1.115717
H     -1.261456   -0.506896    2.083341
H      2.337578    0.750467    0.698220
H      2.660499   -0.748992   -0.227203
H      1.591330   -0.806149    1.360670
