15

C      2.519521   -0.396970   -0.086382
C      1.437641    0.007033    0.545002
C      0.345111    0.629779   -0.264195
C     -0.931299   -0.180875   -0.114083
O     -0.845883   -1.508037   -0.527829
H     -1.450016   -1.621443   -1.318641
C     -2.207400    0.542539   -0.319569
H     -3.018454    1.042616   -0.814351
C     -1.786704    0.161733    1.034441
H     -2.121120    0.232901    2.050814
H      0.176048    1.646429    0.185146
H      0.604228    0.685983   -1.321787
H      1.326272   -0.100745    1.616349
H      2.639368   -0.294694   -1.146774
H      3.312686   -0.846249    0.481860
