15

N      2.449712    1.143896    0.455799
C      1.536728    0.108599    0.197012
O      0.213061    0.355474   -0.121901
C     -0.721480   -0.728837   -0.087813
C     -2.096291   -0.218119   -0.471280
O     -2.499423    0.776830    0.435566
H     -3.151443    1.391961   -0.003878
H     -2.071318    0.203599   -1.498949
H     -2.812578   -1.039558   -0.468803
H     -0.800941   -1.090363    0.957969
H     -0.451771   -1.532354   -0.786407
N      1.921654   -1.108177    0.252870
H      2.912120   -1.313097    0.490833
H      3.412144    1.088669    0.083016
H      2.159825    1.961478    1.019066
