11

C     -0.465985   -1.045883    0.593271
C     -0.526262    0.304663    0.006555
O     -1.744053    0.965504   -0.085320
H     -1.901758    1.583719   -0.863951
C      0.617888    0.831604   -0.414194
C      1.850640    0.122791   -0.303593
N      2.853792   -0.449323   -0.233049
H      0.533375    1.834698   -0.843527
H      0.366261   -1.036022    1.338634
H     -1.421227   -1.350092    1.016834
H     -0.162671   -1.761659   -0.211659
