14

O      3.184520   -1.741732    2.009157
N      2.335813   -1.050589    1.735339
C      1.286363   -0.172531    1.409856
C      0.189622    0.776440    1.060189
C     -0.258124    0.082860   -0.380472
C     -1.228089    1.031542   -0.952047
O     -1.676657    0.325826   -2.148708
H     -0.862724   -0.073936   -2.555826
H     -2.034046    1.275552   -0.296269
H     -0.708072    1.968438   -1.338429
H     -0.767435   -0.886963   -0.031906
H      0.622291   -0.150402   -0.929376
H     -0.647817    0.592871    1.637783
H      0.564358    1.723936    0.780708
