13

C     -1.738971   -0.409622   -0.157329
H     -1.775736   -1.120602   -0.986463
H     -2.714066   -0.160082    0.218275
C     -0.719754    0.701753   -0.124336
H     -1.191337    1.745947    0.260025
O      0.351919    0.869312   -1.032039
C      1.612985    0.556360   -0.688623
H      2.528630    1.021573   -0.888187
C      1.653532   -0.611766    0.080360
H      2.737098   -0.904235    0.353573
O      0.514407   -1.183643    0.399799
C     -0.644585   -0.346867    0.715521
H     -0.614124   -0.158128    1.849423
