14

C     -1.997851    0.027998   -0.148496
C     -0.812517    0.979606   -0.297482
N      0.346897    0.275351   -0.824892
C      1.233498   -0.267635   -0.057377
N      2.366198   -0.955827   -0.530133
H      3.204974   -1.036635    0.060049
H      2.355544   -1.378929   -1.467707
C      1.028427   -0.148076    1.352153
N      0.844763   -0.063452    2.507920
H     -1.149851    1.782062   -0.979934
H     -0.521038    1.417774    0.678065
H     -2.691679    0.116643   -0.999588
H     -2.577074    0.272086    0.764065
H     -1.630291   -1.020965   -0.056644
