14

C      2.699742    0.106066    0.098036
C      1.543385    0.943324   -0.239543
C      0.399031    0.840827    0.387881
N     -0.684341    0.413645    0.939858
C     -1.380899   -0.606608    0.232547
O     -0.803124   -1.634540   -0.207444
C     -2.848760   -0.387416    0.039853
H     -3.164479   -0.888238   -0.915467
H     -3.395397   -0.894275    0.863384
H     -3.113935    0.673282    0.057912
H      1.607804    1.670095   -1.025404
H      3.439774    0.762313    0.639377
H      2.466208   -0.735912    0.756708
H      3.234990   -0.262563   -0.817827
