9

N     -1.023388   -0.191411   -0.388959
C      0.289175    0.053176    0.083646
C      0.634891    1.360063    0.579064
N      0.924318    2.410444    0.983747
C      1.238295   -1.025949    0.050446
N      2.022136   -1.900687    0.027337
H     -1.674760    0.430394    0.174719
H     -1.295119   -1.163275   -0.126861
H     -1.115549    0.027246   -1.383140
