9

N     -1.246096    0.738553    0.299888
H     -2.133116    1.256124    0.505740
C     -1.012257   -0.657391    0.544275
C      0.392667   -0.876734    0.075774
H      0.400421   -1.534525   -0.833611
H      1.055819   -1.281162    0.868338
C      0.820096    0.452835   -0.397867
H      1.832727    0.610565   -0.810434
N     -0.110261    1.291735   -0.252102
