17

C      1.697720   -0.564558   -0.280582
C      1.251508    0.517798    0.632260
C     -0.199006    0.918085    0.465569
H     -0.503238    1.669138    1.260960
O     -0.578204    1.377441   -0.737162
C     -1.514140    0.410884   -0.883802
H     -2.548688    0.881662   -0.860972
H     -1.396851   -0.268834   -1.766751
C     -1.184462   -0.187139    0.433967
C     -0.598238   -1.583961    0.277805
H     -1.346508   -2.154181   -0.335606
H     -1.990813   -0.141583    1.206320
H      1.360807    0.154400    1.680308
H      1.849912    1.441011    0.527855
H      2.734461   -0.277947   -0.632399
H      1.109306   -0.650770   -1.219573
H      1.856433   -1.541447    0.231805
