10

O      0.540200    1.273575   -1.450665
C      0.387181    0.508780   -0.502880
C      1.076381   -0.608841    0.123681
H      1.140045   -1.545347   -0.492364
H      2.111680   -0.401469    0.496966
O      0.110903   -0.737862    1.064358
C     -0.596470    0.295341    0.543455
C     -1.982012   -0.138888    0.019769
H     -2.007418    0.197384   -1.041879
H     -0.780489    1.157326    1.239559
