14

C     -0.619988   -0.221260    0.685813
H     -1.015303   -0.619339    1.632602
C     -1.274185   -0.445429   -0.614253
H     -2.240141   -0.959649   -0.704444
C     -1.196414    0.940354   -0.016541
H     -0.530622    1.646934   -0.556512
H     -2.132652    1.362088    0.375891
O     -0.113713   -1.006120   -1.113308
C      0.621105   -0.798827    0.058984
C      1.684558    0.260730   -0.042232
H      2.687391   -0.136317   -0.248394
H      1.416928    0.943196   -0.863010
H      1.724204    0.780627    0.931210
H      0.988832   -1.746987    0.474195
