17

C      0.128063   -0.585812   -1.583487
C      0.019834    0.068788   -0.201264
N      1.296167    0.099009    0.377796
C      1.643886   -0.229057    1.529900
H      0.935482   -0.600274    2.256479
H      2.677015   -0.149649    1.836151
C     -1.015839   -0.677333    0.596396
H     -1.861279   -0.993700   -0.047209
H     -1.419992   -0.119872    1.444821
H     -0.581021   -1.624604    1.010749
C     -0.459352    1.502678   -0.367236
H     -1.445867    1.544053   -0.847617
H     -0.587015    1.913857    0.662773
H      0.302732    2.134199   -0.863981
H     -0.798425   -0.351990   -2.180116
H      0.143937   -1.689365   -1.496107
H      1.021675   -0.240928   -2.128047
