15

C      2.401741   -0.302428    0.587434
N      0.988713   -0.140627    0.456806
C      0.407347    0.361829   -0.550861
C     -1.083209    0.449834   -0.507687
C     -1.694868   -0.881412   -0.195641
H     -2.625196   -0.737402    0.366260
H     -0.978116   -1.543109    0.340035
H     -1.952802   -1.396714   -1.146847
C     -1.481058    1.484519    0.441154
N     -1.782441    2.309516    1.179109
H     -1.410434    0.788628   -1.508703
H      0.997782    0.699345   -1.382945
H      2.777709    0.454737    1.299998
H      2.842806   -0.247725   -0.404259
H      2.592025   -1.298991    1.026148
