13

C     -1.520481    0.478663    0.246853
C     -0.657383   -0.635195   -0.328695
C      0.655225   -0.647309    0.362125
O      0.871075   -1.400603    1.278814
C      1.691645    0.298169   -0.110997
H      1.667136    0.274188   -1.221592
H      2.686647    0.066815    0.297550
H      1.455343    1.352249    0.155538
H     -0.508423   -0.481846   -1.415783
H     -1.202338   -1.610308   -0.157752
H     -0.886167    1.096564    0.934125
H     -2.361224    0.050586    0.795187
H     -1.891054    1.158027   -0.550887
