11

C      1.985837    0.320164   -0.820367
N      0.904733    0.827343   -0.007581
C     -0.187407   -0.023048    0.208810
C     -1.170891   -0.768118    0.409522
N     -2.260200   -1.578884    0.628225
N     -3.364386   -1.049050    1.041148
H     -3.494996   -0.047823    1.223296
H      0.888810    1.795820    0.417891
H      1.574961    0.198033   -1.853654
H      2.279904   -0.673708   -0.371316
H      2.843636    0.999270   -0.780143
