12

C      1.350109   -0.147495    0.258570
C      0.083002   -0.183162   -0.547599
H      0.186925   -0.286468   -1.633899
C     -1.121274   -0.754871    0.094076
H     -1.389871   -1.723002    0.189014
O     -1.861825    0.226639   -0.570851
C     -0.810622    0.966468   -0.108203
H     -0.601061    1.940017   -0.247296
C     -0.947917    0.242600    1.194262
H      1.371462   -0.829702    1.107535
H      1.536071    0.883243    0.682211
H      2.205000   -0.334268   -0.417819
