10

O     -0.513597    1.412482   -0.001645
C      0.112541    0.286674    0.777684
C      1.346873   -0.145494    0.118774
C      2.364506   -0.503599   -0.420908
H      3.277345   -0.835083   -0.888716
H      0.204586    0.563447    1.841018
C     -1.145918    0.063623    0.165261
O     -1.316945   -0.595658   -1.026132
H     -2.246795   -0.501118   -1.319401
H     -2.082596    0.254724    0.754064
