17

C     -2.697870    0.109568   -0.208991
C     -1.310457   -0.244272   -0.705812
O     -0.420148    0.083898    0.279470
C      0.905701   -0.184513   -0.031665
C      1.643560    1.140743    0.058933
H      1.689923    1.465674    1.124226
H      2.631566    1.106293   -0.425146
H      1.000158    1.892942   -0.458751
C      1.522955   -1.171187    0.953888
O      2.370215   -0.553198    1.848933
H      3.139546   -0.095555    1.424481
H      1.037606   -0.623861   -1.031904
H     -1.333440   -1.332502   -0.945891
H     -1.158574    0.308393   -1.654414
H     -3.480252   -0.501291   -0.699631
H     -2.701717   -0.009070    0.895074
H     -2.838773    1.204678   -0.422801
