16

C      1.991315   -0.400833   -0.598611
H      1.968920   -1.452333   -0.941668
H      2.880935    0.162342   -0.875314
C      1.399162   -0.119681    0.730189
H      1.695899    0.759093    1.335561
H      1.053587   -0.969430    1.319409
C      0.665709    0.267440   -0.539487
C     -0.577821   -0.502713   -0.820432
C     -1.755593    0.445244   -0.682322
O     -1.793601    0.958492    0.601475
H     -2.569701    0.558547    1.102431
H     -2.695243   -0.057152   -0.916554
H     -1.599288    1.277466   -1.402543
H     -0.696718   -1.307511   -0.097563
H     -0.608886   -0.955546   -1.829798
H      0.641324    1.336575   -0.841895
