14

C     -1.376925    0.490383    0.556902
H     -0.909562    0.693717    1.545635
H     -2.292276    1.075746    0.392457
C     -0.465116    0.619091   -0.630656
H     -0.668423    1.344041   -1.429484
C      0.799829   -0.193717   -0.618247
C      1.434160   -0.242267    0.766369
H      0.914514   -0.929234    1.447554
H      2.498800   -0.460768    0.606587
H      1.370380    0.777206    1.206849
H      1.453252   -0.049208   -1.496598
C     -0.525098   -0.836457   -0.849992
H     -0.772178   -1.298207   -1.816799
C     -1.461356   -0.990326    0.319421
