11

C      2.425515    1.400544    0.121233
C      2.054582    0.181377    0.320293
C      1.613551   -1.032612    0.170649
C      0.174572   -1.255257    0.301495
C     -0.724946   -0.363238   -0.082587
C     -2.109306    0.044617   -0.237738
H     -2.679431   -0.449371   -1.022037
H     -2.659433    0.557807    0.605434
O     -0.987061    0.870332   -0.634381
H     -0.134244   -2.196841    0.733364
H      3.026201    2.242641   -0.179898
