13

C     -1.864292   -0.532974    0.288003
C     -0.412105   -0.238515    0.146494
N      0.568909   -1.075571    0.145636
C      1.812736   -0.356136   -0.044069
H      2.629640   -0.828889    0.543648
H      2.062337   -0.166486   -1.088086
O      1.436998    0.890936    0.528713
C      0.238964    1.061290   -0.184071
H      0.520115    1.031239   -1.250063
H     -0.336828    1.928308    0.121945
H     -2.417804    0.417070    0.098966
H     -2.055884   -0.847626    1.375824
H     -2.182785   -1.282646   -0.398455
