15

C      2.990217   -0.236839    0.025072
C      1.694505   -0.362319    0.146806
C      0.836348    0.643380   -0.453731
C     -0.466764    0.533114   -0.341279
C     -1.127408   -0.556072    0.362146
C     -2.474690   -0.520737    0.385015
O     -3.204273    0.474166   -0.213013
H     -3.157806    1.448445   -0.021093
H     -3.011833   -1.308790    0.895937
H     -0.645131   -1.363662    0.851258
H     -1.060184    1.335417   -0.823397
H      1.260908    1.500149   -1.003888
H      1.321097   -1.211973    0.690823
H      3.406948    0.587570   -0.504588
H      3.638066   -0.961850    0.457030
