14

C      2.253497    0.173664    0.133716
N      1.094853   -0.669000    0.070093
C     -0.227716   -0.120283   -0.042855
N     -0.515939    1.115599   -0.260329
N     -1.896496    1.306662   -0.312278
H     -2.346491    2.267066   -0.484352
C     -2.508091    0.197518   -0.129053
C     -1.507138   -0.863364    0.067971
H     -1.638289   -1.245953    1.108696
H     -1.585870   -1.676213   -0.681311
H      1.132950   -1.725948    0.101129
H      1.960611    1.194172    0.372423
H      2.790884    0.197493   -0.838125
H      2.993234   -0.151413    0.894276
