11

C     -1.556171   -0.115356    0.435090
H     -2.389318   -0.820396    0.155505
H     -1.810505    0.890401    0.795433
C     -0.263160   -0.393336   -0.178919
C      0.830090    0.632359   -0.276040
O      1.986357    0.045236    0.277419
H      2.293234   -0.643140   -0.368765
H      0.599773    1.512817    0.357439
H      1.032357    0.903692   -1.324346
H     -0.180788   -1.216836   -0.930862
O     -0.541870   -0.795442    1.153873
