12

O      1.996936    0.762569   -0.312578
C      0.760640    0.266172   -0.017145
C     -0.355927    0.970050    0.049937
H     -0.429594    2.046192   -0.124141
C     -1.491241    0.085465    0.395641
H     -1.914240    0.380994    1.373736
H     -2.272320    0.089680   -0.397138
O     -0.952476   -1.166048    0.521317
C      0.397973   -1.119015    0.284417
H      1.021829   -1.524484    1.095335
H      0.583961   -1.717072   -0.655478
H      2.654458    0.925497    0.433868
