12

C     -1.357637   -0.824608   -0.112331
C     -0.163198    0.002522    0.093695
C      1.155945   -0.524444   -0.202624
N      2.129284   -0.328844    0.581631
H      3.097215   -0.679814    0.425449
H      1.299786   -1.087020   -1.101769
N     -0.257936    1.182625    0.526394
C     -0.343774    2.450989    0.561091
H     -0.520652    2.990356   -0.380933
H     -1.548579   -1.377568    0.851733
H     -2.270111   -0.205941   -0.341611
H     -1.220343   -1.598253   -0.900725
