14

O      2.002283    0.076395   -0.915028
C      0.992648    0.345309    0.017397
C     -0.202737   -0.499332   -0.231923
H      0.044227   -1.494160   -0.697895
C     -1.423678   -0.453348    0.570183
H     -1.454450    0.174629    1.480738
H     -2.052974   -1.364490    0.637147
C     -1.423454    0.218417   -0.747682
H     -1.454986    1.317180   -0.732732
H     -1.885616   -0.237696   -1.638983
C      1.590645    0.169479    1.391901
H      2.115265    1.115757    1.653355
H      0.724832    1.411939   -0.097492
H      2.427995   -0.780079   -0.688986
