12

O      2.966743    0.242976    0.821736
C      1.706626    0.092707    0.308150
C      0.572169    0.091274   -0.343237
C     -0.547557   -0.745793    0.193897
C     -1.704513    0.192366    0.495302
H     -1.419030    0.837667    1.366889
H     -2.604889   -0.372712    0.814339
H     -1.933682    0.865886   -0.329211
H     -0.248852   -1.239766    1.139174
H     -0.903494   -1.459429   -0.575365
O      0.395220    0.838747   -1.500675
H      3.721260    0.656078    0.256771
