11

O      1.028243    1.932616   -0.052926
C      0.508613    0.825926    0.010669
C      1.204022   -0.476748    0.007732
H      1.865819   -0.563462    0.910035
H      1.800298   -0.624826   -0.926331
C      0.150125   -1.501389    0.100673
N     -1.086962   -0.856348    0.155270
H     -1.750418   -1.254784   -0.555472
C     -0.919748    0.547698    0.103893
H     -1.305819    1.048344    1.024964
H     -1.494172    0.922973   -0.778507
