13

C     -1.497151   -0.603191   -0.650363
C     -0.516840    0.230562    0.129828
O     -0.646227    0.242488    1.496148
H     -0.824382    1.152857    1.824521
C      0.873824    0.251381   -0.478354
C      1.960603    0.090545    0.482575
O      2.978772   -0.476185    0.168562
H      1.857343    0.477518    1.476075
H      1.015928   -0.161669   -1.496928
O      0.041914    1.361922   -0.453151
H     -1.245512   -1.666990   -0.454717
H     -2.542118   -0.466317   -0.316566
H     -1.456154   -0.432922   -1.727629
