10

N      2.224953    0.015255   -0.128485
C      0.919707   -0.054240   -0.056313
N      0.036069    0.954025    0.048413
H      0.279442    1.966303    0.087853
N     -1.188256    0.502788    0.095667
H     -2.087815    1.036020    0.176179
C     -1.117171   -0.833118    0.020811
H     -1.981257   -1.499065    0.035769
N      0.181473   -1.185839   -0.073326
H      2.732856   -0.902127   -0.206568
