12

O      1.174337   -1.451540   -0.450640
C      0.991763   -0.087333   -0.394260
C     -0.498295    0.218928   -0.329793
C     -1.105117   -0.397505    0.869732
C     -1.120019   -1.718172    1.033402
H     -1.556697    0.195130    1.654298
C     -0.747802    1.655596   -0.294946
N     -0.944182    2.800893   -0.254762
H     -0.961334   -0.203045   -1.247357
H      1.462608    0.412368   -1.254215
H      1.427310    0.374080    0.533970
H      1.877429   -1.799400    0.134569
