15

C      1.269051    0.550763    1.327269
C      0.392943    1.009195    0.204171
N      0.597758    0.459682   -1.115920
H      0.500827    1.152047   -1.882657
H      1.267551   -0.317465   -1.258191
C     -0.643979    0.138142   -0.393510
C     -0.744940   -1.304865    0.077590
H      0.259958   -1.700437    0.282671
H     -1.261781   -1.901029   -0.707083
H     -1.352386   -1.355399    0.990282
C     -1.865075    0.712510   -0.958496
N     -2.838563    1.185033   -1.406442
H      0.674985    0.546279    2.273774
H      1.659513   -0.464732    1.112906
H      2.084137    1.290277    1.453637
