15

C     -1.964598   -0.887078    0.333444
C     -0.805708   -0.458563   -0.525846
H     -0.924361   -0.849496   -1.559643
C     -0.658387    0.995932   -0.639889
H     -1.393819    1.737474   -0.971885
N      0.659712    1.316255   -0.230617
H      1.130433    2.263035   -0.178219
C      1.297520    0.095395    0.122401
N      2.657786   -0.037601    0.596984
H      3.398465   -0.545812    0.080405
H      2.903323    0.399704    1.503019
C      0.489666   -0.925660   -0.035550
H     -2.205612   -1.946092    0.032939
H     -1.727741   -0.864307    1.409003
H     -2.856679   -0.293188    0.063454
