12

C      1.454308    0.603312    0.865172
C      0.364410   -0.241447    0.297032
C     -0.535074    0.038622   -0.603385
O     -0.889414    1.146836   -1.398750
H     -1.109022    1.983918   -0.881705
C     -1.126563   -1.293286   -0.526008
H     -2.174235   -1.369462   -0.180361
H     -0.994957   -1.824904   -1.507678
O     -0.136967   -1.512053    0.425152
H      2.199064    0.886090    0.093886
H      1.944349    0.059437    1.712585
H      1.004100    1.522937    1.290473
