15

C      0.302644   -1.573901   -0.050075
C     -0.039983   -0.137629    0.275037
N      0.865767    0.773334   -0.423925
C      2.219083    0.489402    0.003809
H      2.876081    1.376371   -0.004688
H      0.563982    1.747862   -0.215863
C     -1.452874    0.174785   -0.161045
O     -1.764471    1.486947    0.157627
H     -1.173099    1.817880    0.875525
H     -2.156039   -0.549653    0.291127
H     -1.494977    0.070521   -1.277903
H      0.030100    0.015579    1.354090
H     -0.584646   -2.212587    0.062430
H      0.686878   -1.613258   -1.085360
H      1.121556   -1.865653    0.652312
