17

C     -2.040017   -0.593229    0.509794
C     -0.963024   -0.445227   -0.574506
C     -0.154327    0.751831   -0.373617
O     -0.755367    2.014951   -0.380611
H     -1.756249    2.139389   -0.378986
C      1.127452    0.687109   -0.184940
C      1.945671   -0.516678   -0.141126
O      2.548829   -0.542109    1.142956
H      3.042318    0.319469    1.306984
H      1.463202   -1.474743   -0.245204
H      2.798876   -0.415406   -0.843203
H      1.681073    1.633818   -0.039165
H     -0.474778   -1.396151   -0.659460
H     -1.532571   -0.289705   -1.540464
H     -3.057766   -0.460242    0.094961
H     -1.887944    0.166627    1.303063
H     -1.985378   -1.579704    1.003524
