13

C     -1.702267    0.088288   -0.306356
C     -0.390578    0.624366    0.191825
C      0.564679   -0.551401    0.413145
C      1.905114   -0.072023    0.916087
O      2.787215    0.190845   -0.153053
H      2.475782   -0.286298   -0.983992
H      0.127850   -1.283282    1.110347
H      0.725297   -0.998102   -0.579782
H      0.097326    1.312446   -0.534011
H     -0.488212    1.205595    1.135105
H     -1.560685   -0.922794   -0.749020
H     -2.186295    0.748498   -1.051289
H     -2.355227   -0.056140    0.590993
