13

C     -1.103900   -0.269711    0.310353
N     -2.094523    0.654523   -0.153506
H     -2.555798    1.075977    0.696210
H     -1.704921    1.438373   -0.723090
C     -0.161645   -0.697681   -0.747657
C      1.120665   -0.438273   -0.563927
C      2.219473    0.143141    0.286120
H      2.460947   -0.406941    1.235696
H      2.133956    1.251138    0.360872
O      2.446253   -0.466310   -0.945245
H     -0.517891   -1.202107   -1.632182
H     -1.662134   -1.186306    0.663209
H     -0.580483    0.104176    1.213147
