17

O     -2.456457    0.895371    0.517433
C     -2.501528   -0.584117    0.608946
H     -2.866604   -1.022570   -0.345651
H     -2.988437   -0.845300    1.554301
C     -1.218792    0.079928    0.655245
C     -0.370375    0.333596   -0.558494
C      0.911808   -0.418640   -0.564647
C      1.814567   -0.108790    0.598436
O      2.170324    1.237950    0.639019
H      2.979227    1.378777    0.089933
H      2.762072   -0.679899    0.428857
H      1.412705   -0.453857    1.568980
H      1.468475   -0.128642   -1.487319
H      0.754065   -1.508570   -0.637156
H     -0.922765    0.071284   -1.485124
H     -0.181038    1.426379   -0.618844
H     -0.767247    0.327099    1.632825
