12

N      1.667966   -0.440191    0.055209
C      0.277822   -0.176156   -0.329257
C     -0.805105   -1.047502    0.065405
H     -0.890568   -2.120400    0.210618
C     -1.604000    0.014843    0.357717
H     -2.629051    0.013409    0.733764
C     -0.529697    0.956599    0.036172
H     -0.248366    1.783699    0.760937
N      0.114535    0.900180   -1.258526
H      0.829911    1.608204   -1.370460
H      2.070767   -0.035415    0.837164
H      1.745786   -1.457272   -0.098742
