8

O     -1.349124   -1.099572   -1.625463
C     -1.466734   -0.313883   -0.517141
C     -0.399015   -0.265398    0.244427
C      0.715517   -0.177089    0.924329
C      1.614609    0.831735    0.539653
O      2.362369    1.651135    0.239723
H      0.803185   -0.891474    1.694026
H     -2.280806    0.264546   -0.170719
