17

C     -1.555263    0.710429    0.365567
H     -1.001250    1.230702    1.222055
H     -2.662179    0.923939    0.302524
C     -1.187898   -0.600788   -0.202865
H     -1.978359   -1.201179   -0.694947
C     -0.845310    0.688843   -0.897358
H     -1.513839    0.954404   -1.802754
C      0.503457    1.042585   -1.120745
C      1.698948    0.626811   -0.169639
H      2.290488    0.067262   -0.707592
H      1.917980    1.536230    0.464876
C      0.936290   -0.318120    0.911583
H      0.472367    0.028482    1.711724
H      1.885757   -0.850189    1.356253
C      0.251647   -1.254149   -0.071246
H      0.669732   -1.328518   -1.030979
H      0.117433   -2.256744    0.363543
