12

N     -1.940344   -0.623359   -0.110867
N     -0.585994   -0.200735   -0.055439
C      0.471592   -1.144218   -0.042965
H      0.251797   -2.212455   -0.076167
C      1.705661   -0.782517    0.006998
C      2.038075    0.458291    0.048158
H      3.107732    0.691070    0.089524
N      1.025980    1.445711    0.038254
C     -0.234687    1.176560   -0.010370
H     -1.013006    1.908080   -0.018653
H     -2.333122   -0.700430    0.861966
H     -2.493683   -0.015998   -0.730441
