12

C     -1.684867   -0.383803   -0.102530
C     -0.221481   -0.276433   -0.065522
C      0.733185   -1.144443   -0.050758
C      1.948867   -0.669102    0.104941
H      2.831466   -1.228947    0.173697
O      1.831646    0.718982    0.155023
C      0.477805    1.065025    0.040113
H      0.257122    1.580021   -0.865253
H      0.074042    1.509446    0.940038
H     -2.081942   -0.421732    0.927663
H     -2.115166    0.528304   -0.589865
H     -2.050677   -1.277319   -0.667547
