15

C      1.016395    0.291618    1.215752
C      0.387487    0.092655   -0.143654
C     -1.081114    0.300517   -0.158235
O     -1.573222    1.513096    0.188798
H     -1.881779    2.054554   -0.601455
N     -1.938643   -0.748649   -0.525208
H     -2.730650   -0.834294    0.177853
H     -1.467431   -1.663173   -0.628941
C      1.107961    0.258352   -1.367065
H      2.173515    0.539867   -1.388959
N      0.805986   -1.131970   -0.895265
H      1.640176   -1.634603   -0.515739
H      1.874729   -0.398224    1.300663
H      1.384266    1.332883    1.334816
H      0.282325    0.027370    2.006638
