11

C      3.001733    0.998777   -0.832282
C      1.991061    0.352659   -0.602615
C      0.813111   -0.422729   -0.315692
N     -0.254674    0.157384    0.145405
C     -1.468813   -0.545324    0.456263
C     -2.469168    0.456661    0.831550
N     -3.258624    1.263894    1.134029
H     -1.253187   -1.250773    1.268628
H     -1.785582   -1.080578   -0.465665
H      0.803165   -1.480584   -0.477974
H      3.880979    1.550613   -1.045816
