17

C     -1.488552   -0.534094   -1.469785
C     -0.857838    0.132757   -0.394722
C     -1.373701    0.051463    1.106346
H     -2.410523    0.333036    1.165242
H     -0.797693   -0.569831    1.705209
C     -0.649720    1.229767    0.328045
H     -0.875257    2.244588    0.346555
C      0.570421    0.559969   -0.218386
C      1.550936   -0.068803    0.679622
C      2.727129   -0.562146    0.252695
H      3.518775   -1.014429    0.655603
H      2.936138   -0.330311   -0.929642
H      1.354670   -0.158042    1.808750
H      1.045872    0.837108   -1.247680
H     -1.124151   -1.483549   -1.795650
H     -2.521413   -0.756972   -1.063175
H     -1.605093    0.089486   -2.353865
