13

C      1.821045   -0.229715   -0.752401
H      2.545013   -0.776390   -1.442462
C      0.682253   -0.550468   -0.243892
C      0.632350    0.772401    0.449740
H      0.711097    0.636951    1.589798
O      1.783064    0.981952   -0.170537
C     -0.719739    1.185398    0.065255
H     -1.060760    2.188560   -0.097274
C     -1.489186    0.116578   -0.054716
H     -2.577392    0.041599   -0.334914
C     -0.621514   -1.114106    0.199766
H     -1.056444   -1.869424   -0.480780
H     -0.649786   -1.383336    1.272418
