17

C      1.452582    0.362443    0.685505
H      0.959872    0.161083    1.680045
H      2.480847    0.630501    0.758910
C      1.193319   -1.016369   -0.091179
H      2.149935   -1.037321   -0.714751
H      1.164666   -1.812865    0.550221
O      0.178839   -0.688170   -1.027421
C     -1.058213   -1.090206   -0.458563
H     -1.172383   -1.955155    0.034189
H     -1.754020   -1.095732   -1.410497
C     -1.603297    0.224346    0.227307
H     -1.324543    0.033660    1.315866
H     -2.638876    0.397320    0.139019
C     -0.704540    1.323972   -0.233816
H     -1.129165    2.139452   -0.763503
C      0.616587    1.337279   -0.053731
H      1.188391    2.085761   -0.637601
