15

C     -0.909840    1.369327    0.285493
H     -0.818204    2.086409    1.125385
H     -1.481143    1.796000   -0.574298
C     -1.123351   -0.044549    0.681201
C     -1.907297   -0.994858   -0.179330
H     -2.510915   -0.473591   -0.962647
H     -2.540461   -1.669371    0.431970
H     -1.172350   -1.663935   -0.696820
H     -1.068871   -0.307684    1.753515
C      0.144444    0.420746    0.019349
C      1.298760    0.084866   -0.421336
C      2.507114   -0.224701   -0.786713
O      3.541167   -0.140020    0.114180
H      3.407391    0.299271    1.009798
H      2.633557   -0.537909   -1.799748
