19

C     -0.419401   -0.493928   -1.127085
H     -0.964220   -1.425595   -1.384344
H      0.192058   -0.107643   -1.946697
C     -1.155011    0.590589   -0.351731
C     -2.623766    0.336868   -0.203434
H     -3.151034    1.181727    0.289557
H     -2.850494   -0.623520    0.303120
H     -3.047237    0.235868   -1.236344
H     -0.899227    1.650485   -0.556655
C     -0.131599   -0.243360    0.300919
C      1.208168    0.382870    0.603046
O      1.409633    0.588523    1.958178
H      1.288033   -0.207566    2.505551
C      2.355200   -0.441184    0.017471
H      2.195192   -1.502367    0.232199
H      3.282617   -0.053688    0.519381
H      2.470337   -0.205165   -1.055909
H      1.240196    1.393660    0.122167
H     -0.399446   -1.056574    1.010611
