13

C     -1.423825   -0.227724   -0.146320
H     -2.108599   -0.714674    0.596160
H     -1.960404    0.114153   -1.068787
C     -0.190079   -0.999958   -0.466487
H     -0.067289   -1.244588   -1.541610
H     -0.083677   -1.944911    0.116042
C      0.664021    0.079717    0.057304
C      1.954535    0.343172    0.217086
H      2.675815   -0.392539   -0.101334
H      2.310206    1.259615    0.650774
C     -0.558720    0.859649    0.381350
H     -0.587394    1.049654    1.473976
H     -0.624590    1.818434   -0.168153
