11

C     -1.606084    0.275383    0.200768
C     -0.213523   -0.268615   -0.002216
C      0.689957    0.870270   -0.310704
O      1.882010    0.860535    0.089354
C      2.340318   -0.205186    0.809870
N      2.730305   -1.114247    1.448397
H     -0.229360   -1.018203   -0.828736
H      0.187562   -0.783186    0.889460
H     -2.396934   -0.463299   -0.023089
H     -1.683724    0.695571    1.216735
H     -1.700526    1.150976   -0.498950
