15

O      1.075169    0.144173   -1.883841
C      1.807400    0.193335   -0.707364
C      3.086007    0.518724   -0.801664
H      4.084796    0.744130   -0.617249
C      1.257720   -0.088546    0.606657
C      0.027038   -0.422460    0.860473
C     -1.034298   -0.580157   -0.106469
C     -2.203497    0.389382    0.160888
H     -1.862933    1.431194    0.186976
H     -2.677483    0.175710    1.135401
H     -2.961723    0.190628   -0.623885
H     -0.773654   -0.491804   -1.158618
H     -1.566874   -1.595845    0.018930
H     -0.231857   -0.603129    1.918020
H      1.974189   -0.005334    1.464842
