12

C     -2.332726    0.265801    0.108751
C     -1.197410   -0.029059    0.675477
N      0.049693    0.402073    0.180568
C      1.134617   -0.494233   -0.085662
C      2.361228   -0.192645    0.269104
H      2.574368    0.731094    0.765279
H      3.159189   -0.874851    0.061847
H      0.913755   -1.425363   -0.586810
H      0.169277    1.433795    0.005125
H     -1.216111   -0.632527    1.566484
H     -3.276988   -0.056494    0.477359
H     -2.338894    0.872409   -0.789752
