10

O      2.805221   -0.513959    0.640546
C      2.169118    0.373500    0.044686
N      1.227248    0.002624   -0.936068
C      0.080549   -0.392300   -0.525913
C     -0.998443   -0.772289    0.140888
C     -1.923790    0.271791    0.507265
O     -2.207211    1.216313   -0.255275
H     -2.383141    0.229066    1.474684
H     -1.105059   -1.816383    0.360798
H      2.335510    1.401637    0.274209
