10

N     -1.104525   -0.497135    0.558837
C     -0.691766    0.398143   -0.454323
N      0.670799    0.733472   -0.593145
C      1.537886   -0.097603   -0.180219
N      2.538818   -0.495262    0.520392
H      2.417814   -0.798055    1.506430
N     -1.567582    0.900677   -1.243672
H     -1.341284    1.555524   -1.999813
H     -0.405965   -1.195054    0.928555
H     -2.054196   -0.504707    0.956958
