14

C     -1.707416    0.440455    0.579334
C     -0.574826   -0.178154   -0.205695
C      0.661673    0.726508   -0.159618
N      1.681696    0.171600   -1.008604
C      2.768320   -0.285485   -0.521104
O      3.503224   -1.155242   -0.001583
H      0.381949    1.734564   -0.525906
H      1.045599    0.772446    0.879257
O     -0.261340   -1.444752    0.232733
H     -0.693606   -2.163976   -0.289175
H     -0.901692   -0.256808   -1.264917
H     -1.637163    0.054285    1.627078
H     -2.656001    0.057929    0.117075
H     -1.610417    1.526631    0.541125
