11

O     -0.910357   -0.968270   -1.139314
C     -0.918542   -0.441925    0.152222
C      0.210246    0.569430    0.246818
N      1.468554   -0.057567   -0.013105
H      1.835910   -0.593631    0.795638
H      2.166018    0.606899   -0.418246
H      0.219379    0.916768    1.309184
H      0.014717    1.408979   -0.430472
H     -0.842171   -1.218521    0.924138
H     -1.903489    0.047959    0.284838
H     -1.340265   -0.270120   -1.711700
