14

C     -0.737708    1.176099   -0.220982
N      0.045477    0.006448    0.109571
C      1.480251    0.118722    0.229571
H      1.943212   -0.102654   -0.763246
H      1.756367    1.116733    0.597228
H      1.890040   -0.644593    0.925518
C     -0.447034   -1.240801   -0.428625
H     -1.274001   -1.173149   -1.182396
H      0.314419   -2.002291   -0.763887
C     -0.573720   -1.000281    0.975423
H     -1.439230   -0.637336    1.522329
H     -1.477376    1.389908    0.587350
H     -1.371028    0.948479   -1.128127
H     -0.109670    2.044717   -0.459730
