13

C      1.687637    0.051591   -0.120184
C      0.325306    0.383185    0.433126
H      0.399412    0.613657    1.520662
O     -0.400686    1.322740   -0.200834
C     -1.387769    0.465860   -0.498453
H     -1.688480    0.339272   -1.556573
C     -0.675725   -0.650483    0.152214
H     -0.387655   -1.462967   -0.551206
O     -1.659270   -0.870931    1.001281
C     -2.304331    0.020653    0.528231
H      1.625101   -0.289380   -1.157558
H      2.395243    0.885788   -0.035362
H      2.071217   -0.808986    0.484655
