17

C      2.147106   -0.690492    0.074438
C      0.763839   -0.227513    0.467986
H      0.694041   -0.091809    1.584609
C      0.404358    1.096399   -0.151103
H      0.771818    1.118675   -1.196813
H      0.791888    1.949789    0.428196
C     -1.108886    1.015470   -0.144611
H     -1.537035    1.596225   -0.978515
H     -1.477433    1.392873    0.837080
C     -1.346042   -0.455250   -0.270498
C     -2.556201   -0.832575    0.584391
H     -3.126004   -1.676269    0.122254
H     -1.602092   -0.681357   -1.330154
O     -0.212474   -1.131370    0.112064
H      2.048733   -1.694936   -0.376816
H      2.790995   -0.654275    0.963307
H      2.553387   -0.033587   -0.725814
