17

O      2.561388    0.319569    1.023865
C      2.105084    0.089163   -0.275694
C      0.617830    0.397434   -0.326603
C     -0.135786   -0.491138    0.640185
C     -1.603618   -0.232117    0.632839
O     -2.168208   -0.440998   -0.593726
C     -3.263143    0.033835   -0.803020
H     -3.771016    0.603082   -0.039638
H     -2.072511   -0.989587    1.316222
H     -1.872742    0.801247    0.931614
H      0.024683   -1.561191    0.399397
H      0.243810   -0.282641    1.661881
H      0.502751    1.461032   -0.101431
H      0.281351    0.174866   -1.359726
H      2.671948    0.783748   -0.928658
H      2.328384   -0.945055   -0.617501
H      3.549794    0.278752    1.036735
