15

O      1.032197   -0.906032   -0.902264
C      0.182898   -0.966175    0.389631
C      1.252754   -0.985295    0.892635
H      2.044237   -1.292449    1.523413
C      1.412642    0.258022   -0.131237
H      2.352817    0.652827   -0.164159
C      0.199020    1.109540   -0.037956
H      0.089314    1.505345    1.012916
H      0.393402    2.013802   -0.648570
C     -1.134395    0.559611   -0.527919
H     -1.217651    0.402175   -1.583547
H     -1.953420    1.077014   -0.068831
C     -1.190121   -0.950218    0.065476
H     -1.565946   -1.597207   -0.712048
H     -1.897746   -0.880958    0.892458
