12

C     -1.166970   -0.724887   -0.789320
C     -0.313027    0.188929   -0.085438
C      0.040906    1.188675    0.590091
O     -1.101477    2.069716    0.931562
H     -1.041607    2.226826    2.015077
H      0.942941    1.661710    1.049008
C      1.012336   -0.548582   -0.119435
C      2.326236   -1.250129   -0.157168
H      3.583207   -1.930537   -0.217055
H     -1.527166   -1.607275   -0.259864
H     -2.104381   -0.175932   -1.155714
H     -0.650998   -1.098513   -1.801743
