14

O      2.508395   -0.093855    0.111343
C      1.270946   -0.542112   -0.340588
C      0.227576    0.463095   -0.030561
C     -1.161370    0.204495   -0.415873
N     -1.707033   -1.004347    0.202513
H     -2.647268   -1.143820   -0.278399
H     -1.948106   -0.785423    1.197128
H     -1.788227    1.060108   -0.089884
H     -1.295678    0.089117   -1.519875
C      0.577405    1.556586    0.580433
O      0.951534    2.715463    0.893845
H      1.340241   -0.602717   -1.445569
H      1.021919   -1.545459    0.064843
H      2.649666   -0.371130    1.070645
