8

N      1.762786    0.346229   -0.508029
N      1.613362   -0.547262    0.409153
N      0.433295   -1.331810    0.330846
C     -0.673737   -0.687032    0.306622
C     -1.640282    0.188679    0.374181
H     -1.998688    0.771625   -0.454305
H     -2.111948    0.342378    1.326772
H      2.615212    0.917192   -0.456405
