17

C     -1.936284   -1.146522    0.182391
C     -1.240829   -0.284343   -0.908654
H     -1.718987   -0.268034   -1.880611
C     -0.333127    0.723977   -0.489183
H     -0.253235    1.622042   -1.197245
C      0.402007    0.955861    0.765527
H      0.071083    0.326363    1.592507
H      0.482867    2.026889    1.057010
C      1.825396    0.608195    0.277258
H      2.347937    1.454179   -0.126082
H      2.380693    0.164890    1.167303
C      1.583355   -0.477796   -0.702924
H      2.320330   -1.087801   -1.260845
C      0.240583   -0.580004   -0.946619
H     -1.508312   -2.170399    0.054368
H     -1.687095   -0.715175    1.147246
H     -2.976383   -1.152323   -0.031873
