12

C     -1.627499   -0.550166   -0.052894
N     -0.169013   -0.412555   -0.010859
C      0.748840   -1.386853   -0.139891
C      1.973934   -0.760253   -0.029698
H      2.956689   -1.200843   -0.079538
O      1.750775    0.519466    0.154505
C      0.460680    0.762326    0.170763
O     -0.152686    2.008010    0.344132
H      0.084866    2.821503   -0.207414
H     -2.036615   -0.809361    0.954530
H     -2.100496    0.402456   -0.361771
H     -1.889474   -1.393729   -0.741864
