16

C      0.764548   -1.483438   -1.391135
C      0.057344   -0.208338   -1.032055
C      0.719817    0.432936    0.195123
C     -0.046296    1.688360    0.476943
C     -1.351168    1.460776    1.163506
H     -1.288181    1.518473    2.271123
H     -1.853431    0.529670    0.855079
H     -2.042278    2.295508    0.858676
C      0.693724   -0.478988    1.310018
N      0.690781   -1.206140    2.188261
H      1.761782    0.715303   -0.089948
H      0.123985    0.475680   -1.901005
H     -1.009770   -0.385284   -0.818364
H      0.733480   -2.201846   -0.522657
H      1.819367   -1.237658   -1.615853
H      0.226296   -1.915015   -2.269250
