13

C      1.291494   -0.394999    0.307193
H      1.689438   -0.490055    1.321728
H      1.913034   -0.777288   -0.522555
C      0.621937    0.941232   -0.013701
H      1.111343    1.882873    0.160612
C     -0.561454    0.686118   -0.850414
H     -1.166810    1.428060   -1.351469
C     -0.580486    0.415523    0.572800
H     -1.225921    0.734852    1.339799
C     -0.129822   -0.941623    0.212942
H     -0.382307   -1.791318    0.824243
N     -0.778383   -0.748844   -1.054921
H     -1.802063   -0.944530   -0.946254
