9

N      2.247709    0.500838    0.817797
C      1.489844   -0.122763    0.021193
C      0.297435   -0.619108   -0.458841
O     -1.064663   -0.842087   -0.458479
C     -1.957370    0.044196   -1.088903
O     -1.407155    1.036201   -1.640024
H     -3.023312   -0.129594   -1.089030
N      1.448956   -0.860418   -1.144763
H      1.968555    0.992735    1.675392
