11

N     -1.764849   -0.041022   -0.345267
H     -2.553056   -0.292445   -0.966305
C     -1.259135   -0.025481    1.061806
O     -1.540166   -0.318597    2.248087
C     -0.471229    0.469726   -0.004600
C      0.672051   -0.300402   -0.572013
C      1.909731   -0.067650   -0.115630
H      2.749455   -0.610517   -0.509513
H      2.091806    0.659317    0.646941
H      0.522960   -1.046005   -1.347387
H     -0.357568    1.573076   -0.096120
