12

N      2.671804   -0.845967    1.389743
C      1.518786   -0.424996    0.749835
N      0.550495   -0.066768    0.189043
C     -0.576811    0.357824   -0.485438
O     -0.540524    0.453748   -1.846144
H      0.212408   -0.020477   -2.258447
C     -1.789083    0.701143    0.218432
N     -2.843974    0.006373    0.043887
H     -3.705836    0.277739    0.565915
H     -1.803416    1.534272    0.883442
H      2.713479   -1.377913    2.264536
H      3.592672   -0.594976    0.932966
