17

C     -1.746038   -0.769323   -0.509858
C     -1.176486    0.443148    0.204297
H     -1.759400    0.656685    1.152615
C      0.255729    0.411831    0.513700
C      1.062984   -0.647913   -0.160364
C      2.100979   -1.146042    0.478997
H      2.728585   -1.930788    0.023173
H      2.413334   -0.839159    1.467061
H      0.768124   -0.965025   -1.140952
H      0.541248    0.543241    1.592924
C      0.266641    1.657115   -0.298733
H      0.485885    2.558323    0.333489
H      0.921232    1.607476   -1.209565
O     -1.069712    1.578181   -0.516853
H     -1.433091   -1.685803    0.023700
H     -1.499942   -0.774209   -1.570279
H     -2.860072   -0.697737   -0.383353
