14

C     -2.425592    0.290340    0.330789
N     -1.228123    0.165982   -0.469087
C     -0.183408   -0.742782   -0.210442
C      1.065891   -0.339017   -0.089754
C      2.503201   -0.540849    0.133418
H      3.171953   -0.847967   -0.690160
H      2.913988   -0.673473    1.140034
N      1.964592    0.818856   -0.112636
H      2.146881    1.820146   -0.214210
H     -0.427563   -1.786445   -0.111995
H     -1.154645    0.809518   -1.296383
H     -3.347117    0.076465   -0.279902
H     -2.546060    1.336231    0.683315
H     -2.453998   -0.387005    1.187012
