16

C      0.796297   -0.872569    0.291501
C     -0.143597   -0.418159   -0.795709
C     -0.548521    1.016081   -0.661739
C      0.636020    1.875371   -0.718740
C      1.622466    2.567175   -0.757185
H      2.515677    3.171216   -0.787450
H     -1.210981    1.235277   -1.547329
H     -1.124534    1.227268    0.246303
N     -1.344324   -1.229587   -0.719634
C     -1.970156   -1.062810    0.600839
H     -1.373195   -1.693842    1.311889
H     -1.166788   -2.234092   -0.844411
H      0.308441   -0.551875   -1.795168
H      0.408218   -0.540973    1.281697
H      0.772568   -1.992570    0.315058
H      1.822408   -0.495912    0.122954
