11

O     -2.550537   -0.445330    0.290130
C     -1.353127   -0.234937    0.571452
C     -0.412806    0.298178   -0.394617
C      1.005344    0.539575   -0.036598
H      1.123496    1.442770    0.625408
N      2.051341   -0.013900   -0.742088
C      1.797368   -0.647157    0.411238
H      2.022482   -1.425773    1.103095
N     -0.836474    0.560450   -1.580457
H     -1.830986    0.385027   -1.811883
H     -1.016102   -0.458903    1.564320
