14

O     -1.463601    2.235244   -0.379908
C     -1.129814    1.245816    0.259055
C     -0.150216    0.287447   -0.327132
C     -0.838531   -1.061677   -0.422015
H     -1.783557   -0.982273   -0.978677
H     -0.130344   -1.783252   -0.893564
H     -1.109478   -1.381169    0.613029
C      1.047490    0.139830    0.588471
C      1.996767   -0.844550   -0.068356
H      2.691239   -0.240659   -0.693902
H      0.680638   -0.349741    1.511688
H      1.522263    1.088688    0.847276
H      0.177115    0.631526   -1.305386
H     -1.509969    1.014771    1.249419
