15

C     -1.607232    1.256705    0.231324
C     -0.715560    0.106577   -0.049033
C     -1.106569   -0.867803   -0.829388
H     -2.080273   -0.848524   -1.278671
H     -0.452732   -1.695977   -1.025659
C      0.626857    0.097979    0.581325
H      0.580752    0.286035    1.679273
O      1.585992    0.849131   -0.060778
C      2.352545   -0.262857   -0.300219
H      3.331231   -0.447351   -0.803399
C      1.480843   -1.029836    0.296833
H      1.453152   -2.110992    0.484753
H     -1.081763    2.225623    0.067939
H     -1.808774    1.226628    1.341607
H     -2.558469    1.214661   -0.335907
