12

C      1.842125   -0.664809    0.220032
C      0.726370    0.301368    0.060116
C      0.369801    1.502288   -0.346296
H      0.641175    2.458337   -0.781742
N     -0.643116    0.663535    0.191884
N     -1.943003    0.394539    0.560984
C     -2.501842   -0.726465   -0.149581
H     -2.706757   -1.544515    0.569262
H     -2.128977    0.406755    1.567289
H      2.554278   -0.374232    1.015847
H      1.440053   -1.654900    0.506692
H      2.349893   -0.761901   -0.766715
