12

O      2.364526   -0.796276   -0.430414
C      1.257094   -0.239953   -1.020817
C      0.225489    0.258179   -0.049241
O     -0.186789    1.521076   -0.500629
H      0.346183    2.198822   -0.022893
C     -0.938192   -0.702460   -0.079626
O     -1.943157   -0.209373    0.753590
H     -2.523335    0.452617    0.288825
H     -0.578473   -1.646564    0.409880
H     -1.307946   -0.891881   -1.100959
H      0.581188    0.359330    0.978601
H      2.703413   -0.303516    0.360094
