15

C      2.472226    0.563312    0.089558
C      1.631802   -0.625429   -0.329762
C      0.200994   -0.162080   -0.575889
C     -0.765097   -1.103179    0.070670
O     -2.106855   -0.788621   -0.084255
C     -2.649809    0.380608    0.367628
O     -1.943881    1.213683    0.943236
H     -3.706126    0.629271    0.245356
H     -0.528122   -1.188896    1.168027
H     -0.609365   -2.129887   -0.368481
H      0.015151   -0.187794   -1.668306
H      0.078553    0.830665   -0.134283
H      1.951604    0.993751    0.992931
H      2.488735    1.349899   -0.672146
H      3.470191    0.224696    0.408815
