15

O      2.793993    1.111808   -0.041440
C      1.417919    0.990678   -0.305785
C      0.963254   -0.412138   -0.142631
C     -0.424985   -0.879611   -0.389363
C     -1.317889   -0.583215    0.761634
C     -2.402767    0.143651    0.549010
H     -3.131243    0.422654    1.315354
H     -2.611093    0.506621   -0.475369
H     -1.148753   -0.919340    1.777253
H     -0.459091   -1.978333   -0.563322
H     -0.853449   -0.439944   -1.319164
O      1.782180   -1.245102    0.222087
H      0.956585    1.647326    0.498648
H      1.222331    1.414300   -1.310375
H      3.213009    0.220646   -0.123439
