17

C     -1.628550   -0.944143    0.447505
C     -0.463862   -0.168714   -0.075880
C     -0.650599    1.091391   -0.815056
H     -0.100978    1.268204   -1.750995
H     -1.716750    1.406502   -0.911474
C      0.007135    1.123505    0.474982
H     -0.544610    1.566946    1.359928
C      1.484553    1.014600    0.532976
H      2.087040    1.841843    0.907960
C      1.876186   -0.152238    0.022662
H      2.948371   -0.461308   -0.043158
C      0.739718   -0.988282   -0.445046
H      0.777852   -1.957037    0.105818
H      0.850898   -1.120779   -1.569562
H     -1.546713   -2.016954    0.091378
H     -1.524687   -0.980091    1.560183
H     -2.595004   -0.523444    0.107779
