14

C      2.855121    0.379073    0.499720
C      1.670256   -0.128083    0.362924
C      0.399684   -0.448288    0.334138
C     -1.016467   -0.271245    0.715379
C     -1.658311    0.981499    0.153706
H     -1.894033    0.849922   -0.935775
H     -0.933628    1.816294    0.313801
H     -2.606810    1.234804    0.648322
H     -1.322281   -0.499854    1.744977
C     -0.596187   -1.351004   -0.192910
H     -0.824928   -1.315588   -1.280903
H     -0.712372   -2.388091    0.213206
H      3.182252    1.143300   -0.183389
H      3.457705   -0.002739    1.308118
