8

O      2.042750   -1.118343    0.607279
C      1.262885   -0.153459    0.427757
C      0.140566    0.417085   -0.346058
C     -1.178707   -0.205238   -0.052583
O     -1.995832   -0.267436   -0.950391
H     -1.366627   -0.579849    0.944269
H      0.317948    0.794133   -1.365465
O      0.777017    1.113106    0.735192
