11

O     -1.060549    1.414341    0.023099
C      0.025566    0.553299    0.041571
N      1.303441    1.129367    0.164598
C      2.364924    1.604970    0.246767
C     -0.097023   -0.717554   -0.720663
H      0.783124   -1.160866   -1.247249
H     -1.052311   -1.000128   -1.208677
C     -0.146534   -0.762970    0.783930
H      0.735339   -1.245250    1.240721
H     -1.121462   -0.934925    1.297241
H     -1.734515    1.119716   -0.621338
