13

C      0.956022   -0.790403   -1.356548
O      1.035155   -0.002833   -0.214745
C     -0.239934    0.352207    0.156189
C     -0.613669   -0.155321    1.529695
H      0.302101   -0.129775    2.167042
H     -0.883628   -1.225283    1.416752
H     -1.451660    0.395738    1.967961
N     -0.403993    1.764320    0.137518
C     -0.524120    2.920663    0.136814
H     -0.963873   -0.085509   -0.552776
H      0.469320   -0.231203   -2.194061
H      1.957311   -1.099217   -1.706178
H      0.360968   -1.713383   -1.203177
