8

O      2.139600    0.179861   -0.674284
N      1.622478   -0.820349    0.085816
C      0.478356   -0.865156    0.581856
N     -0.769719   -0.924363    0.840850
C     -1.647787    0.111324    0.440979
O     -1.232281    1.216871    0.026957
H     -2.708207   -0.057516    0.494769
H      2.117559    1.159329   -0.468107
