14

C      2.320049    0.077677    0.110715
N      1.323383    0.926475   -0.444555
C      0.025100    0.371259   -0.623993
O     -0.340765   -0.437107    0.274212
C     -1.653790   -0.979751    0.065297
N     -2.558841    0.167686    0.172392
H     -2.417282    0.839163   -0.603695
H     -2.502186    0.609342    1.115092
H     -1.735562   -1.367244   -0.962756
H     -1.933284   -1.689182    0.850121
H      1.584755    1.906293   -0.693085
H      2.112146   -1.003561    0.006058
H      2.500968    0.319867    1.166000
H      3.275309    0.259083   -0.431803
