8

N     -1.334645   -0.183673    0.203027
C     -0.272520    0.532924   -0.345472
C      0.925785    0.243515    0.079897
N      2.122357   -0.081198    0.403432
H      2.494461   -0.908642   -0.144629
H     -0.380536    1.282460   -1.073152
H     -1.490562   -1.217724    0.125860
H     -2.064340    0.332337    0.751037
