12

O      0.856443   -1.231166    0.012608
C      1.681307   -0.173480   -0.223619
H      2.778120   -0.367741   -0.263790
O      1.250545    0.983482   -0.393194
C     -0.079848    1.325883   -0.276436
H     -0.550736    2.197588   -0.635187
C     -0.868769    0.291764    0.460737
H     -0.490959    0.381428    1.517638
H     -1.950223    0.554397    0.521603
C     -0.591055   -1.046797   -0.059483
H     -0.937028   -1.052000   -1.100835
H     -1.097798   -1.863358    0.439958
