15

C     -1.422639   -1.152560   -1.727882
H     -0.860411   -1.945234   -2.196494
C     -1.270606   -0.208028   -0.654514
C     -0.429306    0.317790    0.417092
O      0.814305   -0.334666    0.520610
C      1.757435    0.006822    1.464785
C      2.897348    0.544668    1.126566
H      3.137734    0.739650    0.090785
H      3.646984    0.818406    1.849786
H      1.541584   -0.177005    2.498294
H     -0.237428    1.404191    0.297821
H     -0.933147    0.215982    1.421634
C     -2.503701   -0.259137   -1.480009
H     -2.681882    0.590878   -2.194540
H     -3.456269   -0.561755   -0.980835
