10

O      0.303623    0.816650    1.791868
C      1.079445    0.112916    1.127239
N      0.617179   -0.534343   -0.050843
C     -0.720834   -0.431415   -0.544110
N     -1.068171    0.919075   -0.837860
C     -1.345465    2.022650   -1.057942
H     -0.814456   -0.975042   -1.497600
H     -1.488437   -0.829952    0.155810
H      1.318203   -1.110639   -0.563091
H      2.118913    0.010099    1.476530
