14

C      2.224779   -0.897270    0.150323
N      1.369221   -0.442491   -0.668952
C      0.213940    0.291118   -0.317837
N      0.199183    1.714005   -0.389236
H      1.029534    2.255933   -0.062393
H     -0.602564    2.269336   -0.754188
C     -0.845971   -0.393297    0.077151
O     -0.828930   -1.796099    0.146685
H     -1.047094   -2.272433   -0.719428
N     -2.020645    0.318631    0.435967
H     -2.746999    0.470705   -0.305717
H     -2.137782    0.674101    1.423020
H      3.078118   -1.447375   -0.209405
H      2.115210   -0.744865    1.194009
