11

C      2.025052   -0.123721   -0.137119
O      1.031566    0.259936   -0.796751
C     -0.246042    0.215430   -0.232265
C     -0.947873    1.085545    0.410102
O     -0.687285    2.436216    0.793290
O     -1.974262    0.211378    0.552173
C     -1.296034   -0.780463   -0.124676
H     -1.028567   -1.690853    0.468370
H     -1.762104   -1.042876   -1.119124
H      3.006603   -0.088974   -0.572259
H      1.878945   -0.481619    0.854089
