12

O      2.306148   -0.617928   -0.381559
C      1.082354   -0.556715    0.308641
H      1.282029   -0.320746    1.387652
C     -0.068039   -0.325829   -0.411319
C     -1.500727   -0.161932   -0.362504
H     -2.188852   -0.561099    0.419445
H     -2.015589   -0.172869   -1.357949
C     -0.660175    0.926310    0.042280
H     -0.634874    1.312004    1.077735
H     -0.518514    1.754390   -0.700611
O      0.171398   -1.532120    0.155078
H      2.744840    0.256534   -0.176889
