9

N     -1.544601    0.397784    0.045947
C     -0.480884   -0.503255   -0.303515
O     -0.382241   -1.741236   -0.454624
C      0.965480   -1.619885   -0.767538
C      0.930753   -0.316688   -0.625146
N      1.820716    0.746708   -0.730674
C      2.575294    1.630998   -0.820552
H     -2.416710    0.297780   -0.493898
H     -1.467807    1.107794    0.784340
