14

C     -1.712038    0.051383   -0.077733
C     -0.331962    0.014794    0.547329
H     -0.393695    0.188094    1.670000
C      0.662853    0.938334   -0.058577
H      1.122196    1.680152    0.635305
H      0.294483    1.406958   -1.014107
C      1.490718   -0.246263   -0.396956
H      2.432968   -0.273522    0.218721
H      1.700951   -0.397671   -1.485806
C      0.500902   -1.125502    0.202505
O      0.405394   -2.334747    0.355794
H     -1.736053   -0.693761   -0.904969
H     -2.429809   -0.271653    0.703899
H     -2.006908    1.063405   -0.395405
