13

C      2.396319   -0.340281    0.523941
O      1.394037   -0.711524   -0.363262
C      0.121192   -0.166957   -0.375148
N     -0.133331    0.827566    0.398559
H      0.645589    1.171612    0.999357
O     -0.903894   -0.637607   -1.181460
C     -2.236353   -0.298126   -0.974222
N     -2.561072    0.531837   -0.037857
H     -3.558016    0.808338    0.143878
H     -3.058079   -0.689195   -1.558240
H      3.344911   -0.811907    0.463713
H      2.553912    0.772063    0.399926
H      1.994784   -0.455817    1.560817
