15

C     -1.018390    1.466549    0.375607
C     -0.703222    0.048122    0.836818
C     -1.574456   -0.963323    0.148221
H     -0.941176   -1.550007   -0.546983
H     -2.358313   -0.437642   -0.447257
H     -2.033850   -1.621404    0.937543
C      0.729820   -0.251755    0.598762
O      1.181733   -0.165070   -0.568877
C      2.502314   -0.442492   -0.781754
C      3.673476   -0.684163   -0.951402
H      4.697735   -0.913895   -1.096154
H     -0.896535    0.050953    1.946191
H     -1.104541    1.504385   -0.725100
H     -0.204458    2.143066    0.707196
H     -1.950136    1.816675    0.860596
