17

C     -2.494817   -0.102791    0.454267
C     -1.127100   -0.746435    0.519748
H     -1.111749   -1.806934    0.792095
C     -0.324680   -0.358462   -0.698088
H     -0.848866    0.267695   -1.429186
H      0.218173   -1.235569   -1.082870
C      0.483210    0.410248    0.298047
C      1.894296   -0.048361    0.378087
C      2.894957    0.742884    0.046656
H      2.675955    1.753776   -0.292503
H      3.915174    0.406716    0.106120
H      2.095608   -1.054882    0.716719
H      0.432977    1.509444    0.149538
O     -0.306288    0.006307    1.365702
H     -3.014927   -0.440325   -0.454464
H     -3.061304   -0.301451    1.361353
H     -2.320619    0.998140    0.365522
