16

C      2.640106   -0.209508    0.161490
N      1.368308   -0.116831   -0.514838
C      0.195334    0.425719    0.112819
C     -1.082491    0.117396    0.021760
C     -1.848874   -0.906212   -0.755404
H     -2.042414   -0.476302   -1.759658
H     -1.196756   -1.818875   -0.811287
H     -2.757633   -1.209397   -0.217362
C     -1.473976    1.172580    0.984330
H     -2.109916    1.978291    0.553136
H     -1.937524    0.755672    1.894128
O     -0.107272    1.427465    1.017185
H      1.340969   -0.471522   -1.506000
H      2.573657   -0.058751    1.248691
H      3.141204   -1.182684   -0.109642
H      3.297278    0.572958   -0.319347
