10

C      1.779725   -0.178764    0.306265
N      0.580248    0.507934   -0.043573
C     -0.575531   -0.234940   -0.408528
O     -0.443320   -1.313706   -1.269099
C     -1.770170    0.086945    0.059178
H     -1.930716    0.916346    0.731559
H     -2.642142   -0.484182   -0.224391
H      0.594869    1.548781   -0.018485
H      1.746793   -0.831133    1.172670
H      2.660244   -0.017280   -0.305596
