13

C     -1.448490    0.325491   -0.302607
H     -2.462700   -0.064159   -0.384621
H     -1.282696    1.287507   -0.782963
C     -0.342882   -0.642203   -0.237055
C      1.016658   -0.391856   -0.725235
C      1.829484    0.367357   -0.041523
H      1.538368    0.819224    0.873000
H      2.828179    0.545164   -0.410877
H      1.377833   -0.835795   -1.671950
H     -0.622276   -1.730205   -0.295129
C     -0.760567    0.009437    1.042338
H     -1.379908   -0.606230    1.771982
H     -0.291003    0.916269    1.449127
