19

C     -2.063663    0.188990   -0.302850
C     -1.124200   -0.090570    0.820957
C      0.321714   -0.137087    0.400198
C      0.518090   -1.221096   -0.625454
H     -0.338524   -1.922753   -0.692300
H      0.644781   -0.786824   -1.631928
H      1.418861   -1.839843   -0.434396
C      0.829746    1.165332   -0.058460
C      1.846646    1.265580   -0.906938
H      2.227260    2.216909   -1.249880
H      2.306610    0.338913   -1.263740
H      0.386170    2.091451    0.284730
O      1.074404   -0.517822    1.531665
H      1.694869   -1.252481    1.332164
H     -1.398344   -1.055152    1.295331
H     -1.252510    0.694944    1.604464
H     -3.065067   -0.299075   -0.152135
H     -1.718109   -0.129824   -1.290773
H     -2.308736    1.290408   -0.364545
