16

C     -1.428078   -1.514515   -0.156272
C     -0.121077   -0.772200   -0.046757
N      0.989886   -1.405140   -0.012490
C      2.047368   -0.447881    0.092714
H      2.724651   -0.586461   -0.778222
H      2.569649   -0.658820    1.055423
C      1.385663    0.857763    0.115495
H      1.830290    1.858362    0.187535
C      0.090022    0.653023    0.031667
C     -1.020266    1.648224    0.014318
H     -0.653466    2.673106    0.046652
H     -1.647573    1.406578   -0.860563
H     -1.652176    1.468257    0.910616
H     -2.283576   -0.818664   -0.090513
H     -1.371635   -2.049639   -1.131272
H     -1.459682   -2.311993    0.621670
