9

N     -1.507111   -0.204809   -0.001367
C     -0.090006   -0.190086   -0.010600
N      0.644317   -1.323957   -0.056623
O      1.891463   -0.956013   -0.051918
C      1.968770    0.364994   -0.004726
N      0.728125    0.872612    0.022155
H      0.398988    1.853430    0.059855
H     -2.038867   -0.300091   -0.869654
H     -1.995678   -0.116080    0.912878
