13

C     -1.130480   -0.839126   -0.395345
H     -0.689783   -1.288507   -1.344333
H     -1.664738   -1.615404    0.207752
O     -1.774457    0.341760   -0.568111
C     -0.848620    1.021070    0.151731
H     -0.361992    1.778061   -0.526641
H     -1.236703    1.562387    1.054073
C     -0.064491   -0.198086    0.406630
N      1.229763   -0.297134   -0.178365
C      2.291726    0.297297    0.541987
H      2.937579    0.866622   -0.135530
H      1.432334   -1.146059   -0.707453
H     -0.120138   -0.482881    1.493606
