14

C      2.660170    0.035641    0.585426
O      1.390542    0.446655    0.249791
C      0.572048   -0.343115   -0.282053
C     -0.771008    0.159097   -0.616923
C     -1.863699   -0.602675    0.098953
H     -2.723452    0.058908    0.328389
H     -1.426161   -0.937644    1.073553
H     -2.151280   -1.506539   -0.452351
C     -0.894951    1.557165   -0.262331
N     -0.975613    2.672885    0.018441
H     -0.971062    0.053630   -1.702225
H      0.832448   -1.386409   -0.500057
H      3.255740    0.692093    1.224383
H      3.066278   -0.899694    0.237004
