8

N      0.210658    1.647680    0.011257
C     -0.083433    0.260590    0.104914
N      0.148253   -0.547213   -1.040839
H      0.907691   -1.242535   -0.837581
H     -0.694232   -0.983224   -1.427725
C     -0.594347   -0.234801    1.347259
N     -1.024195   -0.624837    2.349105
H      1.129607    1.724339   -0.506390
