10

O      2.385144    0.650611   -0.147465
C      1.059894    0.293406    0.031190
C      0.552515   -0.977017   -0.118512
H      1.046843   -1.900341   -0.388450
N     -0.783202   -0.884712    0.148574
H     -1.431556   -1.701852    0.112383
C     -1.038583    0.401083    0.443611
H     -2.022378    0.796007    0.703228
N      0.083988    1.148120    0.377788
H      0.147335    2.174695    0.563472
