13

O      3.176615    0.904406    0.540190
C      2.292443    0.345982   -0.067610
C      0.925525    0.222839    0.538033
C      0.016906   -0.491113   -0.379863
N     -1.329731   -0.713601    0.005069
C     -2.131736    0.477656   -0.015256
H     -2.921212    0.452852   -0.820729
H     -2.720021    0.534006    0.944131
H     -1.779796   -1.506881   -0.516447
H      0.371837   -0.840786   -1.334117
H      1.046356   -0.300036    1.506750
H      0.543666    1.256852    0.647000
H      2.509149   -0.057690   -1.047149
