12

O      0.447857   -2.205920    0.291032
C      0.222330   -0.855042    0.086800
C     -1.002264   -0.501020   -0.254117
C     -1.260971    0.938297   -0.476254
H     -1.845942    1.037542   -1.409792
H     -1.932259    1.333763    0.339911
H     -0.325660    1.531338   -0.532387
H     -1.823643   -1.189338   -0.380964
C      1.312394    0.059604    0.254973
C      2.236761    0.820378    0.408189
H      3.060685    1.496807    0.525800
H      0.910713   -2.466409    1.146809
