15

C      1.419647   -0.088548    1.326381
C      0.238994   -0.117353    0.447968
C     -0.262847    1.102878   -0.266958
C      0.827284    1.558155   -1.131417
N      1.697835    1.929060   -1.800729
H     -1.197540    0.916386   -0.793037
H     -0.446474    1.861134    0.547920
N     -0.392264   -1.193398    0.272208
C     -1.552549   -1.342475   -0.557555
H     -2.436345   -0.809815   -0.169127
H     -1.369119   -1.016289   -1.605827
H     -1.758793   -2.432575   -0.615006
H      1.149678   -0.258337    2.409635
H      2.096826   -0.958787    1.086534
H      1.985668    0.849964    1.302108
