14

O      1.825718   -0.394178   -0.647351
C      0.830714   -0.042513    0.290391
H      1.191474   -0.008939    1.313245
C      0.290904    1.325358   -0.066185
H      1.023086    1.978267   -0.530669
H     -0.158191    1.767523    0.867532
C     -0.869323    1.012549   -0.976002
C     -1.505999   -0.157104   -0.267595
H     -1.971220    0.298684    0.654437
H     -2.224848   -0.669791   -0.893126
C     -0.310201   -0.988358    0.137131
H     -0.568139   -1.522612    1.068579
H     -0.146989   -1.745798   -0.686456
H      2.593015   -0.853088   -0.263933
