11

C      1.313816   -0.302831    0.006541
C     -0.066268    0.256888   -0.022936
O     -0.150530    1.608208   -0.310755
H     -0.673080    1.760407   -1.141367
C     -1.229759   -0.405041    0.513777
H     -2.147615    0.201976    0.658953
H     -1.156517   -1.261065    1.202930
O     -0.941335   -0.595264   -0.847557
H      1.697360   -0.350303   -1.033890
H      1.971717    0.415366    0.561641
H      1.382211   -1.328341    0.412662
