17

C      1.734555    0.439860   -0.395878
C      2.634866   -0.424823    0.460549
H      2.106493   -1.375560    0.719045
H      2.903098    0.062383    1.420453
H      3.583579   -0.683207   -0.068091
C      0.444776   -0.279264   -0.676033
C     -0.768682    0.527007   -0.326561
H     -0.773421    1.577053   -0.683281
C     -2.026721   -0.211907   -0.712198
H     -2.737567    0.389075   -1.310029
H     -1.856949   -1.183487   -1.219804
C     -2.326081   -0.305804    0.759325
H     -3.198436    0.347456    1.048406
H     -2.353949   -1.312274    1.182890
O     -1.132512    0.389213    1.012088
H      1.528713    1.381736    0.139186
H      2.238239    0.662541   -1.350067
