12

C     -1.229724   -0.645870   -0.140613
C     -0.141683    0.157706    0.535643
C      1.036198    0.266200   -0.387026
C      2.184523   -0.168213    0.004848
O      3.317030   -0.656382    0.205794
H      0.833072    0.715807   -1.347493
O     -0.633174    1.424735    0.761772
H     -1.009227    1.756353   -0.084453
H      0.148589   -0.379430    1.457547
H     -1.768080   -1.247338    0.593841
H     -1.979805    0.011033   -0.645044
H     -0.757719   -1.234601   -0.954816
