11

C      1.567922    0.711015    0.439288
C      0.749502   -0.500360    0.190062
C     -0.503824   -0.394739   -0.143429
C     -1.271150   -1.620459   -0.379306
H     -0.867317   -2.352566   -1.049915
H     -2.209821   -1.705463    0.148397
C     -1.106424    0.903964   -0.273122
N     -1.598075    1.967372   -0.358749
H      1.910071    1.071054   -0.562418
H      2.431411    0.454454    1.100697
H      0.897705    1.465727    0.888494
