14

O      2.478491    0.596045   -0.846797
C      2.423816    0.137419    0.324338
C      1.184238   -0.237298    0.953710
C      0.046127   -0.086140    0.250747
N     -0.237632    0.375762   -1.021727
H      0.378108    0.747176   -1.814094
C     -1.637715    0.158857   -0.843630
H     -2.262245    1.091620   -0.830376
H     -2.085745   -0.619779   -1.515081
C     -1.370946   -0.338537    0.515076
H     -1.599965   -1.444212    0.592262
H     -1.808703    0.241901    1.362693
H      1.146005   -0.628410    1.954809
H      3.346165    0.005597    0.918071
