14

C      0.185539    0.241840    0.761620
C      1.407865   -0.589892    0.598326
C      2.486909   -0.042859    0.044461
H      2.501397    0.982215   -0.288411
H      3.402018   -0.608733   -0.095955
H      1.457353   -1.628775    0.913230
C     -0.948797   -0.344079    0.026181
C     -2.290056    0.301979    0.031337
H     -2.269878    1.050666   -0.809638
H     -2.451330    0.857182    0.977699
H     -3.106412   -0.400489   -0.203273
O     -0.778005   -1.376675   -0.595383
H      0.408138    1.281991    0.469965
H     -0.004740    0.275628    1.871154
