17

C     -1.259250    1.104149    0.410329
C     -0.337370    0.101442   -0.161947
C     -1.111769   -1.221378   -0.325309
H     -1.967187   -0.962994   -0.931929
H     -1.401852   -1.453716    0.691899
H     -0.456577   -1.948574   -0.743513
C      0.779682   -0.281925    0.835005
H      0.628701    0.243923    1.776834
H      0.806147   -1.382293    0.895439
C      2.004591    0.273709    0.109787
H      2.805829   -0.476089    0.076601
H      2.395931    1.211732    0.533118
C      1.488117    0.475150   -1.238407
O      0.357735    0.371011   -1.279052
H     -1.763536    1.732237   -0.281673
H     -2.114560    0.508835    0.959574
H     -0.854633    1.704782    1.269986
