10

N      2.216329    0.037615   -0.089265
C      0.907439   -0.043802   -0.041400
N      0.037976    0.975722    0.078357
H      0.266008    1.990292    0.151977
C     -1.197073    0.493756    0.090333
H     -2.153599    0.998836    0.171559
C     -1.085957   -0.878871   -0.026753
H     -1.923525   -1.573039   -0.048724
O      0.181973   -1.131835   -0.100311
H      2.750429   -0.868674   -0.185774
