16

C     -1.400131   -0.543625   -0.724407
C     -0.179930   -0.118937    0.065083
C     -0.476704    1.017733    1.005142
H     -1.558360    0.922770    1.298773
H     -0.328878    2.010412    0.540595
H      0.116932    0.871585    1.917761
C      0.984443    0.237017   -0.863250
C      2.131174    0.641099    0.049389
H      3.007418    0.002977   -0.059275
H      1.289722   -0.691852   -1.388138
H      0.685822    1.046846   -1.551593
C      0.292793   -1.268611    0.856073
N      0.663439   -2.167915    1.499112
H     -1.992207   -1.309459   -0.149508
H     -1.169713   -0.990615   -1.689455
H     -2.065819    0.340576   -0.806304
