12

C      0.432830   -0.882892   -0.160933
H      0.609485   -1.333870   -1.144865
H      0.745800   -1.562122    0.669072
C      1.245441    0.380079   -0.029059
H      2.192757    0.351746   -0.587602
H      1.356781    0.593445    1.043565
C      0.291204    1.423622   -0.580407
C     -1.025686    0.948699   -0.004494
H     -1.516901    1.516207    0.792087
O     -1.741643    0.149883   -0.877992
C     -0.998110   -0.504240    0.078201
H     -1.591956   -1.080557    0.802427
