16

C      2.709802    0.047118    0.266719
N      1.580386    0.525877    1.040243
C      0.294093    0.108148    0.600293
O      0.147911   -0.027485   -0.642408
C     -1.118755   -0.442518   -1.125216
C     -2.176542    0.271394   -0.319286
O     -1.988312   -0.101346    1.014923
H     -2.618770   -0.871798    1.176746
H     -3.196917    0.081929   -0.652321
H     -2.011324    1.381343   -0.363211
H     -1.205687   -0.244225   -2.217612
H     -1.199368   -1.535924   -0.890401
H      1.770506    1.129927    1.849441
H      2.412293   -0.152999   -0.772892
H      3.026685   -0.922195    0.703891
H      3.573999    0.752754    0.331092
