8

C     -1.951135    1.439427    0.258215
C     -0.922744    0.653716    0.073917
C     -0.242374   -0.335222   -0.831896
H     -0.686163   -1.349851   -0.914070
H      0.108221    0.087947   -1.794075
C      0.363769    0.027142    0.438782
N      1.237574    0.017016    1.380789
H      2.092852   -0.540174    1.388337
