19

C     -1.974680    0.465080   -0.637962
C     -1.340128   -0.053294    0.599930
C      0.100396   -0.444061    0.443117
C      0.209679   -1.539067   -0.607616
H     -0.799324   -1.780234   -1.036544
H      0.845177   -1.208259   -1.462062
H      0.574851   -2.497088   -0.171583
C      1.000474    0.682086    0.075229
C      2.410065    0.141215   -0.046976
O      3.359614    1.046870    0.419278
H      3.248412    1.909044   -0.051568
H      1.026255    1.456326    0.863392
H      0.741427    1.108726   -0.923059
H      0.452615   -0.874682    1.402279
H     -1.908813   -0.943255    0.939501
H     -1.425041    0.689295    1.438131
H     -2.539453   -0.325478   -1.197100
H     -1.270638    0.903191   -1.367393
H     -2.710889    1.263586   -0.382882
