12

N     -1.671844    0.679375   -0.361581
C     -1.268879   -0.562503    0.181822
C      0.121006   -0.803276    0.613070
H      0.340853   -1.824359    1.032205
C      1.234748   -0.079194    0.073283
O      2.213655    0.227964   -0.843816
H      3.203829    0.080638   -0.695816
C      0.700006    0.342312    1.366528
H      0.878228    1.084211    2.121803
O     -2.107071   -1.480509    0.301270
H     -1.092675    1.540602   -0.230822
H     -2.551858    0.794739   -0.910176
