13

O      1.244827    1.087665    0.503551
C      1.952436   -0.191382    0.774698
H      2.380992   -0.110119    1.782979
H      2.683875   -0.435453   -0.003073
C      0.549352   -0.230617    0.616207
C     -0.218657   -0.455122   -0.642562
O     -0.884346   -1.692190   -0.565743
H     -1.642332   -1.528998    0.072222
C     -1.286962    0.570252   -0.757465
C     -2.144342    1.415366   -0.847241
H     -2.903775    2.159740   -0.909112
H      0.371483   -0.407077   -1.555572
H     -0.102551   -0.182064    1.531110
