15

C      3.249951    0.407776   -0.363416
O      1.883835    0.196688   -0.274769
C      1.437535   -0.494016    0.667165
O      0.067064   -0.670552    0.704364
C     -0.721897   -0.087229   -0.280014
C     -2.145290   -0.448882    0.020385
C     -3.080282    0.427651    0.256107
H     -2.897242    1.496872    0.252728
H     -4.084931    0.111257    0.466020
H     -2.363706   -1.510457    0.031813
H     -0.535817   -0.507888   -1.309164
H     -0.588097    1.010676   -0.347965
H      2.111717   -0.913908    1.392960
H      3.744000    0.783711   -1.245847
H      3.923161    0.198301    0.482730
