8

O     -0.889935    0.836885   -0.525132
C     -0.538182   -0.164558    0.381638
C      0.865874   -0.065668    0.867494
O      1.825706   -0.407794   -0.049175
H      2.645638    0.169258    0.007796
H     -1.208373   -0.024175    1.270550
H     -0.803336   -1.143358   -0.065657
H     -1.897391    0.799409   -0.558679
