12

O     -2.898537    0.018875   -0.273827
C     -1.748752    0.295522    0.466695
C     -0.599057   -0.368226   -0.174346
N     -0.041617   -1.084498   -1.064668
N      0.800817   -0.618974   -0.135930
C      2.113822   -0.498048    0.423269
N      2.776761    0.614969    0.292150
H      3.734446    0.755197    0.679579
H      2.601932   -1.291683    0.960731
H     -1.828046   -0.074897    1.513274
H     -1.578784    1.388350    0.538869
H     -3.332984    0.863413   -0.578025
