11

O      1.992759    1.781346    0.624931
C      0.880245    0.961460    0.480945
N      0.998582   -0.228319    0.037617
C     -0.165064   -1.075720   -0.109332
H     -0.036087   -1.955987   -0.774574
N     -1.066716   -1.112116    0.953288
C     -1.468200   -0.382433   -0.057276
O     -2.446890    0.436533   -0.611535
H     -3.366663    0.457065   -0.175397
H      1.937054   -0.595438   -0.221179
H      2.740981    1.713609   -0.051659
