12

C     -2.084669    0.293862   -0.032744
C     -1.002598    0.444780    0.917958
C      0.083338   -0.251356    0.693303
C      1.148535   -0.953944    0.349697
N      2.029406   -0.286813   -0.493322
N      3.120930    0.168024    0.019434
H      3.828706    0.676986   -0.544569
H      1.170153   -1.918107    0.766803
H     -0.958064    1.045969    1.782214
H     -3.049489    0.484566    0.526810
H     -2.084368    1.010822   -0.876762
H     -2.201879   -0.714788   -0.461053
