12

C      1.789818    0.490079   -0.058271
N      0.388817    0.162743   -0.007950
C     -0.597426    0.986015    0.041626
H     -0.462941    2.073327    0.050975
C     -1.803363    0.202245    0.078196
H     -2.793183    0.586200    0.122010
N     -1.509134   -1.045735    0.049944
C     -0.070577   -1.201499   -0.008331
H      0.327568   -1.715247    0.875793
H      0.195791   -1.731162   -0.945998
H      2.255543    0.391007   -1.031178
H      2.279086    0.802028    0.833184
