11

O      1.839628   -0.947537   -0.352171
C      1.068415   -0.075443    0.407807
C     -0.199598    0.087055    0.154955
C     -0.817513   -0.652470   -0.935734
O     -0.131319   -1.441563   -1.627481
H     -1.890437   -0.518787   -1.154170
C     -1.005261    1.000995    0.952321
O     -0.477308    1.638485    1.890907
H     -2.058503    1.166299    0.778122
H      1.601850    0.439319    1.203251
H      2.070047   -0.696353   -1.317808
