11

C     -0.836498   -1.111750   -0.104730
C     -0.415739    0.064409    0.260909
N     -1.241747    1.214084    0.230541
H     -1.527574    1.737652    1.102940
H     -1.626853    1.625080   -0.661480
O      0.886480    0.208448    0.697662
C      2.000003   -0.088200   -0.078128
O      1.778179   -0.511764   -1.244916
H      3.020086    0.041637    0.310563
H     -1.847439   -1.219477   -0.442975
H     -0.188898   -1.960119   -0.070384
