13

C     -1.796891    0.454940    0.266156
C     -1.170882   -0.820149   -0.168414
N      0.085334   -0.945070   -0.285396
C      0.937201    0.150085    0.001328
C      2.368366   -0.203980   -0.146166
O      2.673032   -1.328290   -0.478409
H      3.154658    0.509416    0.033203
H      0.783880    0.443673    1.058405
H      0.756883    1.015320   -0.694719
H     -1.856110   -1.646202   -0.382020
H     -1.200729    0.996672    1.017248
H     -2.799159    0.281618    0.712121
H     -1.935583    1.091968   -0.648850
