13

C     -1.477491   -0.865165    0.532781
C     -0.487370    0.178158    0.015982
N      0.861767   -0.075982    0.433945
C      1.810356    0.886779   -0.036565
O      3.072769    0.257713    0.017495
H      3.108361   -0.312126   -0.790471
H      1.161244   -1.060879    0.362486
N     -0.600027    0.515838   -1.386100
C     -0.996654    1.394844   -0.439564
H     -1.421602    2.390830   -0.455016
H     -1.235376   -1.813098    0.006977
H     -1.274612   -0.956777    1.629071
H     -2.521365   -0.540135    0.393464
