9

N     -0.813654    0.727921   -0.322148
H     -1.479115    1.541737   -0.378143
C     -1.023362   -0.613548    0.133808
H     -1.960654   -1.129016    0.225277
N      0.160206   -1.107881    0.352074
C      1.170281   -0.059152    0.040395
H      1.483881    0.419600    1.001166
H      1.994896   -0.596955   -0.415627
O      0.467523    0.817294   -0.636802
