12

C      1.880143   -0.643055    0.002300
C      0.557858   -0.476759   -0.050394
C     -0.185123    0.766132    0.125314
N      0.298314    1.918292    0.361243
H      1.326309    2.062841    0.451125
C     -1.596886    0.434974   -0.021818
H     -2.459671    1.102910    0.043723
C     -1.675957   -0.866471   -0.259211
H     -2.605599   -1.435286   -0.418748
O     -0.412546   -1.441419   -0.283176
H      2.539616    0.187358    0.191725
H      2.333543   -1.609517   -0.142083
