9

O     -1.530590    1.717030   -0.351186
C     -0.902842    0.687795   -0.164793
C     -0.540884   -0.743289   -0.184934
H     -0.264938   -1.231838   -1.122032
H     -1.186823   -1.372404    0.466180
C      0.397090    0.154002    0.464579
O      1.509520    0.665601   -0.188350
H      2.099380   -0.054976   -0.488259
H      0.420087    0.178079    1.568795
