15

C      0.526346    1.150174   -0.716055
H      0.954114    2.147691   -0.494515
H      0.279659    0.988483   -1.792859
C     -0.168830    0.435071    0.342226
O     -0.284818    1.073862    1.575400
H     -1.240652    1.143940    1.770998
C     -1.193155   -0.637964    0.004647
O     -2.446507   -0.068096    0.014276
H     -3.122015   -0.587270   -0.485832
H     -1.193719   -1.435383    0.799844
H     -0.914686   -1.130531   -0.933556
C      1.227393    0.017156   -0.074317
C      2.240640   -0.808243    0.104657
H      3.116959   -0.694548   -0.503262
H      2.219273   -1.594343    0.841447
