13

O      2.694828    0.340813    0.415361
C      1.700307    0.698695   -0.203004
C      0.666937   -0.220662   -0.740148
C     -0.252864   -0.581079    0.389776
H      0.162164   -1.337571    1.088048
C     -0.958714    0.558823    1.030525
H     -0.912082    1.564132    0.526372
N     -1.672998   -0.498390    0.266798
H     -2.100605   -0.165333   -0.624520
H     -2.235858   -1.094708    0.914330
H      0.168950    0.156364   -1.642320
H      1.169715   -1.183715   -1.057573
H      1.570219    1.762632   -0.363645
