17

O      2.024943    1.473012   -0.525197
C      1.727766    0.397537    0.305641
C      0.257639    0.022681    0.179661
O     -0.608254    1.019045    0.513692
C     -1.944623    0.752787    0.420747
H     -2.168937    0.484594   -0.634491
H     -2.357637    0.004390    1.092101
H     -2.480689    1.712589    0.696206
C     -0.116432   -1.379779    0.651492
H      0.712269   -1.963169    1.106995
H     -1.097613   -1.581131    1.081282
C     -0.034750   -1.042588   -0.793336
H     -0.929542   -0.932462   -1.413418
H      0.811861   -1.519548   -1.336845
H      2.382954   -0.449678   -0.009518
H      2.007850    0.654274    1.342388
H      1.813194    2.347447   -0.080658
