17

O      3.522804    1.003129    0.488938
C      2.739545    0.214180   -0.012380
C      1.357802    0.196150    0.529214
C      0.485671   -0.820805   -0.173132
C     -0.882333   -0.736822    0.470901
C     -1.506875    0.590544    0.352893
C     -2.653842    0.712619   -0.268313
H     -3.172336    1.660066   -0.393278
H     -3.159770   -0.145887   -0.701690
H     -1.056337    1.478778    0.761058
H     -1.544140   -1.526249    0.085046
H     -0.787026   -0.945838    1.576826
H      0.343948   -0.579997   -1.243294
H      0.863601   -1.839987   -0.078873
H      0.926512    1.196846    0.398174
H      1.422304   -0.049127    1.608793
H      3.100472   -0.407600   -0.804143
