15

C     -1.623588   -0.657348    0.417989
C     -0.679222    0.072728   -0.533628
H     -0.870748   -0.241154   -1.563657
N      0.688747   -0.160065   -0.191980
C      1.411106   -1.386712   -0.206683
H      2.053429   -1.601325   -1.049564
H      1.322273   -2.080732    0.595353
C      1.229577    0.958693    0.157137
H      2.255491    1.105113    0.470105
C      0.240482    2.001522    0.064708
H      0.318756    3.062689    0.274217
N     -0.878217    1.479386   -0.340638
H     -1.551093   -0.223042    1.428028
H     -2.641778   -0.631919   -0.002774
H     -1.275215   -1.697835    0.481388
