11

C      1.627399    0.540626    0.555900
C      0.476621   -0.075689    0.496495
C     -0.684414   -0.668471    0.319234
C     -1.505441   -0.146332   -0.720686
N     -2.625269    0.449030   -0.419034
H     -2.901442    0.533357    0.575780
H     -1.285680   -0.194803   -1.786658
H     -0.845891   -1.467120    0.988074
N      2.611081    0.043107   -0.226188
C      3.481496   -0.376435   -0.900491
H      1.651540    1.362731    1.213403
