17

O     -1.276304    1.413896    1.410347
C     -1.472082    0.332053    0.561503
C     -0.172684   -0.455449    0.470310
C     -0.400057   -1.628779   -0.455654
H     -1.484449   -1.893609   -0.521309
H     -0.058798   -1.384589   -1.490313
H      0.205966   -2.490898   -0.082785
C      0.879039    0.481031   -0.069293
O      2.085630   -0.179014   -0.175120
C      3.092218    0.494094   -0.054242
H      3.118673    1.549240    0.126252
H      0.962322    1.324596    0.633134
H      0.551448    0.830469   -1.074974
H      0.120336   -0.795064    1.488157
H     -1.756906    0.672331   -0.448436
H     -2.302886   -0.256860    0.960467
H     -2.091466    1.986551    1.318698
