12

C     -1.165799   -0.825440    0.348747
C     -0.091626    0.234036    0.115709
C     -0.561800    1.492555   -0.502937
O     -0.490460    2.542679    0.133007
H     -0.979702    1.485990   -1.525438
C      1.249392   -0.280535   -0.116743
N      2.231188   -0.860654   -0.707943
H      3.193300   -0.937721   -0.259800
O      0.939279    0.384654    1.105566
H     -2.163544   -0.340259    0.295896
H     -1.068080   -1.699330   -0.303018
H     -1.092148   -1.195974    1.416953
