11

N      2.050787   -0.309170    0.008665
C      0.612129   -0.234918   -0.025835
C     -0.142122    0.897695    0.184746
H      0.223947    1.906632    0.408477
N     -1.425835    0.531905    0.063613
H     -2.276267    1.160959    0.165536
N     -1.509830   -0.758725   -0.209163
H     -2.407217   -1.296240   -0.352751
C     -0.266403   -1.260612   -0.270851
H      2.588583    0.502379   -0.336255
H      2.552228   -1.139905    0.363818
