8

O      0.173530   -0.854562    0.417668
C     -0.987923   -0.168822    0.004644
H     -1.550832   -0.759937   -0.731544
H     -1.602426    0.090099    0.897344
C     -0.422400    1.079299   -0.562968
N      0.812546    0.968650   -0.424350
C      1.267575   -0.061709    0.107589
H      2.309930   -0.293018    0.291616
