12

O      2.775236   -0.442359    0.145941
N      1.570098   -1.097529    0.321733
C      0.427986   -0.505171    0.106598
C     -1.006133   -0.810973    0.166694
H     -1.250821   -1.624619   -0.563427
H     -1.427310   -1.036649    1.166581
C     -1.324954    0.571227   -0.276182
H     -1.869181    1.216934    0.470834
H     -1.832652    0.621557   -1.284048
C      0.128108    0.849250   -0.327085
O      0.815175    1.861649   -0.628329
H      2.994448    0.396683    0.700689
