12

C     -1.812518   -0.590627   -0.233680
C     -0.578479    0.164577    0.133889
C     -0.666174    1.426990    0.445579
O     -0.613386    2.470217    1.133861
N      0.658157   -0.540684    0.126958
C      1.703804    0.132971   -0.220503
O      2.926786   -0.541486   -0.233534
H      2.994361   -1.383339    0.341522
H      1.660223    1.185904   -0.496797
H     -2.512089    0.102584   -0.760522
H     -1.526152   -1.415894   -0.916666
H     -2.234534   -1.011214    0.679892
