15

C      2.078096    0.200090   -0.171497
N      0.660033   -0.151222   -0.099250
C      0.069143   -1.433014   -0.250130
H      0.607093   -2.365180   -0.447392
C     -1.236903   -1.324240   -0.114639
H     -1.978239   -2.148188   -0.178916
C     -1.635314    0.070039    0.143651
H     -2.083273    0.157895    1.176032
H     -2.337681    0.466912   -0.619926
C     -0.358740    0.803149    0.145042
N     -0.193213    2.081377    0.333820
H     -0.990905    2.730358    0.509438
H      2.716434   -0.673316    0.127797
H      2.374068    0.592562   -1.142059
H      2.309400    0.992781    0.588029
