12

C      1.937888   -0.454518   -0.449993
N      0.788829    0.324045   -0.138969
C      0.037804    1.395978   -0.277480
H     -0.050983    2.352687   -0.797679
C     -0.447833    0.413371    0.650205
C     -1.504460   -0.551390    0.207010
H     -1.415937   -0.663880   -0.913571
H     -1.388696   -1.545744    0.700011
H     -2.530529   -0.224759    0.392300
H     -0.220364    0.456090    1.745759
H      1.948342   -1.201851   -1.230700
H      2.845940   -0.300030    0.113109
