12

C     -0.866710   -1.125514    0.108022
C     -0.121525    0.053923    0.719552
C      1.272574    0.060327    0.236897
C      2.406252    0.085780   -0.150570
H      3.413489    0.119653   -0.482763
C     -0.752969    1.322004    0.306348
C     -0.119120    2.404680   -0.076923
H     -1.853689    1.356096    0.323374
H     -0.124915   -0.067283    1.839358
H     -1.135145   -1.850633    0.899877
H     -1.819806   -0.760445   -0.360889
H     -0.298435   -1.598589   -0.714513
