14

C      1.247261   -0.352945   -0.699145
H      0.804455   -0.487007   -1.706088
H      2.333932   -0.505409   -0.658175
C      0.463303   -0.720053    0.490820
H      0.993976   -1.192221    1.322594
C     -1.018994   -0.950930    0.449142
H     -1.298558   -1.330472   -0.562475
H     -1.340518   -1.681103    1.213103
C     -1.636018    0.420476    0.660236
C     -0.712569    1.284255   -0.186550
H     -0.975651    1.102839   -1.234048
H     -0.836324    2.330553    0.133113
C      0.641395    0.705541    0.127194
H      1.334310    1.376477    0.650279
