14

C     -1.377630   -1.038859    0.501869
C     -0.855629    0.347069    0.364204
C     -1.692508    1.339840    0.127888
H     -1.309203    2.324710    0.031466
H     -2.762042    1.153225    0.032812
O      0.490773    0.647142    0.474681
C      1.513878   -0.241273    0.284781
C      2.735892    0.182454    0.009424
H      2.960986    1.235289   -0.073167
H      3.550223   -0.510067   -0.142202
H      1.303187   -1.298600    0.364434
H     -1.706921   -1.461297   -0.464637
H     -0.607388   -1.685741    0.967296
H     -2.243618   -0.993895    1.222464
