19

C      2.219336    1.024297   -0.641639
C      1.032691    0.207715   -0.257210
C      1.141529   -1.268727   -0.427338
H      1.437521   -1.741460    0.546920
H      1.960350   -1.530617   -1.139169
H      0.224161   -1.718624   -0.834650
C     -0.051953    0.764402    0.207496
C     -1.251909    0.008033    0.602260
O     -1.992002    0.712426    1.557070
H     -1.835046    0.420440    2.470923
C     -2.180147   -0.283885   -0.547600
H     -3.118280    0.305329   -0.490478
H     -1.731153   -0.058825   -1.532143
H     -2.467407   -1.364532   -0.524868
H     -0.932887   -0.944641    1.111186
H     -0.093522    1.852029    0.318055
H      2.546027    0.788043   -1.681786
H      3.046471    0.721993    0.042677
H      2.046219    2.106602   -0.483598
