14

C      2.047701    0.433966   -0.288581
C      0.571933    0.293985   -0.256725
C     -0.072322   -0.451199    0.617942
O      0.635625   -1.145680    1.561014
H      0.211601   -1.833504    2.184859
O     -1.469650   -0.570590    0.631554
C     -2.179629    0.089027   -0.401283
H     -3.268501   -0.068253   -0.297984
H     -1.859632   -0.314955   -1.391116
H     -1.892785    1.166354   -0.359499
H      0.015931    0.844232   -1.003446
H      2.263166    1.513126   -0.100534
H      2.426128    0.232797   -1.331105
H      2.570435   -0.189307    0.434904
