14

C      2.077259   -0.019333    0.142424
C      0.577761   -0.047983    0.042986
C     -0.226578   -1.092649    0.013103
H      0.110760   -2.107498    0.057490
C     -1.606628   -0.622302   -0.092150
H     -2.100234   -0.928156   -1.044394
H     -2.220972   -0.959113    0.766835
C     -1.498890    0.854158   -0.116209
H     -2.340389    1.515210   -0.187960
C     -0.227014    1.180657   -0.037410
H      0.193198    2.195262   -0.031814
H      2.505695    0.577264   -0.713818
H      2.305261    0.511166    1.082771
H      2.450771   -1.056683    0.118147
