11

O     -1.093074    1.986203   -0.238855
N     -0.838042    0.635650   -0.344946
C      0.312952   -0.062122    0.030422
C      1.507065    0.167520    0.570822
H      1.765608    1.193807    0.842437
H      2.193216   -0.644573    0.731861
C     -0.376340   -1.235811   -0.446423
H     -0.616587   -2.026635    0.315158
H      0.204674   -1.697280   -1.289186
O     -1.422028   -0.463148   -0.765343
H     -1.637445    2.146389    0.594053
