12

C      2.144815    0.110860    0.147219
C      0.668789   -0.003663    0.260369
O      0.195870   -0.579706    1.264731
O     -0.119133    0.520939   -0.730584
C     -1.355651    0.512189   -0.792307
C     -2.136272   -0.119377    0.292434
H     -1.896581    0.412827    1.257845
H     -1.895707   -1.175515    0.474922
H     -3.233745   -0.037681    0.082910
H      2.554227    0.917721    0.815630
H      2.417460    0.277145   -0.913072
H      2.655928   -0.835739    0.487674
