14

O     -2.289232   -0.508163    0.738601
C     -1.217374   -0.247638    0.254928
C     -0.338034   -1.341145   -0.174225
H     -0.662693   -2.346413    0.068101
H     -0.435715   -1.342844   -1.326722
C      1.087620   -1.069816    0.051424
H      1.845087   -1.764450    0.337412
C      1.457190    0.176174   -0.083838
H      2.520291    0.493586    0.054735
C      0.524310    1.327853   -0.149335
H      0.908597    2.307196   -0.427728
N     -0.845358    1.108647    0.108476
H     -1.055223    1.565553    1.073111
H     -1.499466    1.641460   -0.524940
