13

C      1.725261    0.643384    0.394311
O      0.459792    0.593389    1.003540
C     -0.384328    0.048614    0.084573
N     -1.389697    0.790923   -0.609470
H     -1.858006    1.471547    0.037594
O     -2.147692   -0.325128   -0.687370
C     -1.251264   -1.034627    0.128164
H     -1.635914   -1.644447    0.953736
N      0.059415   -1.247144   -0.421652
H      0.237137   -1.216168   -1.439932
H      1.604597    0.697593   -0.717869
H      2.300225    1.534180    0.704412
H      2.280474   -0.312116    0.569962
