12

C      0.460179    1.506584   -0.593903
O      1.535269    0.962879   -0.293807
C      1.295853   -0.326240   -0.009018
H      1.889960   -0.967812   -0.706786
H      1.679986   -0.477812    0.996737
C     -0.146776   -0.651436   -0.057611
H     -0.412558   -1.591628   -0.498909
C     -1.158786    0.052691    0.723233
H     -2.176397   -0.373557    0.752325
H     -0.817056    0.541683    1.673482
C     -0.716732    0.671561   -0.563197
H     -1.432943    0.653088   -1.422545
