15

C      1.738387   -0.085460   -0.143644
C      0.385843   -0.330884    0.455635
H      0.491785   -0.780470    1.442361
C     -0.429938    0.976538    0.500449
H      0.056194    1.768193   -0.069534
H     -0.655075    1.275873    1.522654
C     -1.648967    0.439394   -0.242111
H     -2.464301    1.096042   -0.415533
O     -1.045254   -0.172949   -1.364718
C     -0.539853   -1.103753   -0.437228
H     -0.268225   -2.068402   -0.788346
C     -1.874688   -0.943371    0.278457
H      1.686198    0.463843   -1.104277
H      2.252287   -1.055623   -0.220012
H      2.315608    0.521027    0.585848
