10

N     -1.790474   -0.370494    0.076837
C     -0.390348   -0.155078    0.014206
N      0.506481   -1.076681   -0.035560
C      1.808647   -0.507783   -0.090453
H      2.711793   -1.101452   -0.137522
N      1.646140    0.770272   -0.071318
N      0.290900    1.086487   -0.005920
N     -0.196368    2.255961    0.027202
H     -2.201536   -0.640853    0.995892
H     -2.385234   -0.260379   -0.773363
