14

O      2.330124    1.343009    0.135993
C      1.000787    1.409767    0.532390
C      0.502110    0.086970    1.085254
H      0.685177   -0.086270    2.177106
C     -0.804067   -0.466486    0.545831
C     -1.586960    0.387622   -0.437081
H     -0.955176    1.143081   -0.935092
H     -2.338138    0.964287    0.159131
H     -2.129512   -0.234422   -1.171509
H     -1.467741   -0.966821    1.290415
C      0.486746   -1.072537    0.162968
H      0.822741   -0.934188   -0.875112
H      0.657674   -2.105182    0.551269
H      2.796236    0.531171    0.479749
