17

C      2.270926   -0.689450   -0.158533
O      1.031320   -0.220743   -0.567001
C      0.359415    0.292769    0.547383
H      0.983739    0.198530    1.483242
C     -0.123712    1.661112    0.416088
H      0.382859    2.644261    0.251506
C     -1.368154    1.306327    0.562839
H     -2.296071    1.942804    0.559635
C     -1.037239   -0.091909    0.710412
C     -1.585079   -0.889121   -0.470872
H     -2.703010   -0.879336   -0.354998
H     -1.310214   -0.351427   -1.385089
H     -1.232333   -1.922470   -0.479215
H     -1.275404   -0.569668    1.694630
H      2.808092   -1.101285   -1.056188
H      2.176305   -1.464395    0.626003
H      2.918562    0.134000    0.216899
