14

C      0.839859   -0.730586    0.609258
H      0.918243   -1.835520    0.443487
H      1.500013   -0.391328    1.421846
C      1.200582   -0.088251   -0.699644
H      2.061524   -0.506127   -1.280631
C      0.862313    1.311303   -1.016634
C     -0.095924    0.136394   -1.350814
H     -0.237254    0.016507   -2.428447
N     -1.165228   -0.085783   -0.421610
C     -0.597805   -0.400001    0.857088
H     -1.123891   -1.173293    1.471478
C     -1.208156    0.882374    0.734763
H     -2.217951    1.025598    1.185800
H     -0.736326    1.838712    0.474060
