19

C     -1.041991    1.038168   -0.943035
C     -0.900803    0.028394    0.161755
C     -1.705979   -1.186345   -0.191714
H     -2.220566   -1.528409    0.738211
H     -2.478472   -0.980327   -0.944120
H     -1.047808   -2.010120   -0.524056
C      0.546403   -0.342029    0.409215
O      1.297929    0.744497    0.765239
C      2.369105    1.006405   -0.061091
H      3.073301    0.144066   -0.084127
H      2.103874    1.354502   -1.066717
H      2.945251    1.845662    0.421701
C      0.619213   -1.353686    1.530447
H      0.177843   -2.320057    1.241252
H      0.927089   -0.836830   -0.495423
H     -1.289576    0.514277    1.098016
H     -1.088306    0.525554   -1.945022
H     -0.252785    1.792992   -0.971861
H     -2.033723    1.563288   -0.842561
