13

C      2.175251    0.632639    0.306469
O      1.724178   -0.557579    0.963090
C      0.686745   -1.062584    0.493135
C     -0.428342   -1.372403   -0.157536
O     -1.609429   -0.840132    0.239945
C     -2.136554    0.405593   -0.162761
H     -3.113031    0.514144    0.356051
H     -1.512407    1.258666    0.132699
H     -2.368880    0.401659   -1.247002
O     -0.250561   -2.243259   -1.216936
H      1.600444    1.463339    0.806413
H      3.251672    0.777194    0.536722
H      1.980913    0.622723   -0.765803
