17

C     -1.869604   -0.401368   -0.253315
H     -2.431817   -0.834470    0.596851
H     -2.133748   -0.846615   -1.239498
C     -1.473397    1.030314   -0.308454
H     -1.792599    1.664657    0.567210
H     -1.558760    1.568723   -1.250519
C     -0.489369   -0.012119    0.022346
C      0.148702   -0.033006    1.340614
H     -0.339387   -0.252718    2.315428
C      1.438508    0.160872    1.184098
H      2.123909    0.238870    2.004098
C      1.855439   -0.048744   -0.223241
H      2.270480    0.835549   -0.703620
H      2.598931   -0.899393   -0.269962
C      0.577781   -0.459221   -0.917578
H      0.569508   -1.585899   -0.915434
H      0.505421   -0.125430   -1.949024
