12

C     -1.879779    0.029820   -0.143280
C     -0.412077   -0.012065   -0.027775
C      0.338960   -1.076320    0.057415
C      1.789881   -0.774912    0.163027
H      2.322750   -1.125217   -0.728969
H      2.209730   -1.164524    1.103439
C      1.758200    0.710802    0.123441
C      0.503822    1.128044    0.015170
H      0.153677    2.151217   -0.037734
H     -2.393658   -0.051974    0.846913
H     -2.159480    0.999329   -0.613792
H     -2.232026   -0.814200   -0.757856
