12

N      1.915234    0.476888    0.036693
C      2.635066    1.401619   -0.003258
C      1.057549   -0.644497    0.064596
N     -0.153823   -0.272417   -0.632036
C     -0.889064    0.839552   -0.092088
H     -0.557781    1.348939    0.818862
H     -1.221968    1.563776   -0.889619
C     -1.437067   -0.535078   -0.070474
H     -1.549793   -0.990714    0.928535
H     -2.271865   -0.751748   -0.799336
H      0.879918   -0.978426    1.093691
H      1.593594   -1.457895   -0.455567
