12

C      0.098494    0.945375    0.532047
H      0.306721    0.375686    1.478137
H      0.316404    2.002477    0.594266
O     -1.258398    0.654048    0.407959
C     -1.282481   -0.474297   -0.328367
H     -0.737239   -1.188549    0.617651
H     -2.192776   -1.002804   -0.481519
O     -0.270737   -0.582776   -1.228897
C      0.677814    0.304949   -0.690136
C      1.729084   -0.796536   -0.259731
H      1.457983   -1.213449    0.718198
H      1.155131    0.975878   -1.359608
