13

C     -0.782249    1.231736    0.396925
C      0.098809    0.204607   -0.301186
O      1.313195    0.216689    0.281589
C      2.220159   -0.545083    0.004301
H      3.181953   -0.549832    0.452634
C     -0.611401   -1.127119   -0.195353
H     -0.427449   -1.642485    0.753136
H     -1.716420   -0.940500   -0.292930
H     -0.347541   -1.763718   -1.062590
H      0.145315    0.475087   -1.389695
H     -1.432435    0.727960    1.145734
H     -0.176461    2.045568    0.849426
H     -1.465475    1.667088   -0.357503
