13

O     -0.261455    1.547167    0.851453
C     -0.526681    0.514165    0.289592
C      0.475412   -0.452788   -0.224073
C      1.883601    0.001612    0.035779
H      1.978269    1.092788    0.183977
H      2.516487   -0.316363   -0.803300
H      2.239985   -0.573573    0.931289
H      0.282971   -1.472227    0.206969
H      0.269189   -0.574072   -1.320399
C     -1.965403    0.129880    0.067416
H     -2.114358   -0.786858    0.700399
H     -2.622580    0.963246    0.372499
H     -2.155435   -0.072977   -1.007113
