12

C      1.447564   -0.017389   -0.108651
C     -0.048586    0.212758    0.049703
C     -0.438036    1.465595    0.667314
N     -0.747464    2.461972    1.149976
C     -0.944368   -0.990437    0.177894
H     -0.466424   -2.007294    0.172950
H     -1.794556   -0.853630    0.849942
N     -0.821734   -0.295243   -1.065051
H     -1.608363    0.267425   -1.449497
H      1.857720    0.640551   -0.917738
H      1.663383   -1.057230   -0.396464
H      1.900863    0.172923    0.869622
