11

C     -0.919640   -0.582062    0.070666
O     -1.711113   -0.372135    1.223784
H     -2.107550    0.536397    1.099982
C     -0.129708    0.641606   -0.153746
C      1.194297    0.606758   -0.154287
C      1.934176   -0.667139    0.071294
H      2.478901   -1.002375   -0.847355
H      1.811753    1.500231   -0.318344
H     -0.640816    1.577457   -0.319624
H     -1.586588   -0.756092   -0.792354
H     -0.323711   -1.482648    0.215813
