16

C      2.539235   -0.188199   -0.275720
C      1.625041   -0.881845    0.616183
C      0.350549   -0.655467    0.718496
C     -0.427881    0.331005   -0.030061
C     -1.221451   -0.428127   -1.102883
H     -1.543346    0.290352   -1.872475
H     -0.573324   -1.226433   -1.477368
H     -2.111430   -0.890644   -0.627649
C     -1.459802    0.922361    0.926018
H     -1.562700    2.008430    0.800216
H     -2.450196    0.437823    0.798639
H     -1.169292    0.714697    1.996041
H      0.166690    1.138348   -0.489042
H      2.054084   -1.656038    1.249103
H      3.254620   -0.788791   -0.819740
H      2.529203    0.872528   -0.409757
