16

C      2.252461   -0.222985   -1.235041
N      1.126074    0.106619   -0.433636
C      0.672922    1.223587    0.007652
H      1.009739    2.242060   -0.097095
C     -0.449730    0.573417    0.688244
H     -0.528550    0.689294    1.773812
C     -1.698792    0.398594   -0.097506
H     -2.585481    0.294437    0.556359
H     -1.838355    1.156056   -0.890074
C     -1.146366   -0.902319   -0.634570
H     -1.752927   -1.746474   -0.274633
H     -0.975341   -0.908236   -1.735543
C      0.097788   -0.703736    0.163788
H      0.398825   -1.472342    0.863795
H      2.728296   -1.210285   -1.187466
H      2.689438    0.482314   -1.925210
