16

C      1.827129   -0.614739   -0.044312
N      0.817264    0.373593   -0.198230
C     -0.481369    0.000778    0.274503
C     -1.124788   -1.201058   -0.358752
H     -0.438977   -2.067816   -0.369913
H     -1.388384   -0.945347   -1.393465
H     -2.073887   -1.448401    0.168481
O     -0.861883    0.444153    1.514308
C     -1.450302    1.188420    0.368339
H     -1.061634    2.198772    0.259528
H     -2.533749    0.971231    0.366909
O      1.186523    1.609551    0.185134
H      1.137969    2.179703   -0.633695
H      2.626207   -0.357354    0.678225
H      1.462209   -1.623832    0.221398
H      2.357671   -0.707655   -1.038457
