13

O      1.585203    1.267600   -1.029359
C      1.002665    1.201608   -0.007578
N      0.434658   -0.025162   -0.187221
C     -0.868617    0.157598   -0.493009
C     -1.818628   -0.154904    0.379709
H     -1.603540   -0.566088    1.366315
H     -2.855947   -0.005701    0.131996
H     -1.223369    0.562177   -1.439499
C      1.007696   -0.947852    0.637067
H      2.084144   -1.096525    0.466294
H      0.429353   -1.882598    0.669584
H      0.681687   -0.582422   -1.102355
H      1.144697    2.072269    0.608056
