11

O     -1.808481    1.025499   -0.148012
C     -0.582401    0.379189   -0.096219
C      0.594498    0.935538   -0.025691
H      0.838036    1.983310    0.005396
C      1.645838   -0.094352    0.010299
H      2.717945    0.042423    0.068004
C      1.005214   -1.248611   -0.043150
N     -0.385580   -1.033190   -0.111051
H     -0.913164   -1.492619    0.676879
H     -0.723661   -1.462356   -1.007224
H     -2.388243    0.965170    0.670769
