14

C     -1.213309    1.771915   -0.164098
C     -0.216084    0.894118   -0.146099
C     -0.263281   -0.537587    0.123789
N     -1.462545   -1.234287    0.424174
H     -2.257238   -1.348039   -0.222778
H     -1.572830   -1.678976    1.377328
C      0.940644   -1.082477    0.050891
H      1.216397   -2.118407    0.201629
C      1.911858    0.005691   -0.288678
H      2.583842    0.118690    0.587373
H      2.462634   -0.216226   -1.214047
O      1.116105    1.167856   -0.387861
H     -2.228452    1.466899    0.037841
H     -1.017741    2.790830   -0.379463
