14

C     -1.208319    1.199895    0.059775
C     -0.296050    0.009478   -0.099301
C      1.077101    0.091699    0.454568
C      2.156142   -0.098977   -0.280778
H      3.123932   -0.032009    0.150955
H      2.027626   -0.327849   -1.346677
H      1.200675    0.317105    1.504132
C     -0.939984   -1.322183   -0.012132
H     -0.359634   -2.177906    0.422710
H     -2.043100   -1.413748   -0.018065
O     -0.417976   -0.786635   -1.238988
H     -1.698538    1.492688   -0.887057
H     -2.022011    1.010525    0.794700
H     -0.599864    2.037916    0.496160
