18

C     -3.007029    0.124535   -0.015064
C     -1.728085   -0.366101   -0.687946
C     -0.600042    0.439587   -0.114929
N      0.674685    0.078333   -0.665277
C      1.666373   -0.189104    0.106048
C      3.007200   -0.568392   -0.411597
O      3.510362    0.401280   -1.301248
H      2.949667    1.209179   -1.153550
H      3.017760   -1.537940   -0.929046
H      3.715997   -0.568034    0.441649
H      1.469403   -0.122122    1.173987
H     -0.599505    0.395371    0.985794
H     -0.773928    1.501949   -0.398906
H     -1.780473   -0.123276   -1.779370
H     -1.600411   -1.451875   -0.560130
H     -3.799962    0.242675   -0.761652
H     -3.266198   -0.579681    0.801012
H     -2.855815    1.113617    0.476636
