14

C     -1.710452    0.570749    0.601141
C     -0.855389   -0.147240   -0.381341
C      0.386758   -0.742123    0.238065
H      0.193287   -1.477770    1.037020
O      1.139504   -1.423476   -0.852061
C      1.701414   -0.297116   -0.084475
O      1.837728    0.868599   -0.861968
H      2.608386    1.402090   -0.593285
H      2.563955   -0.662234    0.476453
H     -1.447357   -1.000476   -0.799385
H     -0.620194    0.527622   -1.225386
H     -2.626996    0.909238    0.081853
H     -1.172160    1.507648    0.897526
H     -1.998483   -0.035511    1.465842
