13

C      1.520487    0.612789    0.472570
C      1.056213   -0.607274   -0.231285
N      0.031752   -1.468683    0.224425
C     -1.181642   -1.048974    0.206837
C     -1.413453    0.326335   -0.297812
H     -0.854000    0.556883   -1.215492
H     -2.511459    0.406707   -0.541084
H     -1.260178    1.095576    0.509509
H     -2.019826   -1.679094    0.550796
O      1.612668   -0.903379   -1.317119
H      0.950996    0.808953    1.397464
H      2.571850    0.449537    0.763930
H      1.496591    1.450625   -0.238252
