13

C      1.605953    0.230024   -0.138046
C      0.370001   -0.365447   -0.126513
O     -0.400950   -0.760148   -1.205680
C     -1.183174   -1.137522   -0.122156
H     -2.055513   -1.633042   -0.151398
C     -0.900318    0.204492    0.455833
O     -1.429963    1.248484   -0.289044
H     -1.094234    2.116221   -0.002990
H     -0.916539    0.310146    1.538967
O      0.002478   -1.564179    0.458405
H      1.813128    0.795513   -1.093619
H      2.465049   -0.462924    0.012773
H      1.724081    1.018381    0.663468
