19

C      2.142428    0.490509   -0.426153
C      1.096171    0.154760    0.583410
C     -0.272799   -0.039494    0.007842
C     -1.217041   -0.372531    1.152260
H     -0.851263   -0.019470    2.121159
H     -1.333469   -1.473949    1.229161
H     -2.235614    0.050392    0.984648
C     -0.346928   -1.170412   -0.977040
H     -0.294972   -2.141493   -0.440045
H      0.334050   -1.080725   -1.821744
H     -1.388911   -1.137098   -1.412893
C     -0.757077    1.222321   -0.639124
O     -2.165454    1.214881   -0.552998
H     -2.448769    2.130790   -0.341633
H      1.029175    1.008126    1.302165
H      1.411160   -0.718296    1.190645
H      3.023823    0.916316    0.131816
H      2.521975   -0.350566   -1.002481
H      1.753515    1.315938   -1.088994
