9

O      2.092797   -0.153428   -1.116058
C      1.518954   -0.930843   -0.332342
C      0.491305   -0.440958    0.557955
N      0.184984    0.940624    0.486285
C     -0.990528    1.320364    0.182116
N     -2.123869    1.580498   -0.344192
H     -2.875398    0.849511   -0.456038
O     -0.113567   -1.194222    1.366122
H      1.815322   -1.971545   -0.343848
