13

C      2.203833   -0.580455   -0.042387
N      0.812674   -0.777097    0.130370
C     -0.099726    0.291882    0.135514
C     -1.554560    0.080033    0.374500
O     -2.121132   -0.759216   -0.581038
H     -2.512322   -0.244116   -1.341610
H     -2.101606    1.024343    0.489199
H     -1.626224   -0.469232    1.345531
C      0.293217    1.513107   -0.069253
N      0.744757    2.634190   -0.485264
H      0.451941   -1.746299    0.258086
H      2.886904   -1.373654   -0.312723
H      2.622243    0.406513    0.099074
