11

C      1.925233    0.014498   -0.108865
C      0.452433   -0.065918    0.055063
C     -0.378861    0.958023   -0.108986
C     -1.662979    0.679795    0.037355
H     -2.425717    1.427880    0.037023
N     -1.696353   -0.717257    0.175097
H     -2.582361   -1.279154    0.125233
O     -0.380790   -1.112552    0.389127
H      2.087881    0.713104   -0.990805
H      2.391736    0.380433    0.803854
H      2.269779   -0.998851   -0.414096
