10

C     -1.473735    0.154290    0.156033
C     -0.218030    0.429841    0.894823
N      1.045373    0.029006    0.401936
C      1.766508   -0.616333   -0.638883
H      2.048004   -1.129678   -1.521845
N      2.437504   -0.084823    0.456631
O     -0.248280    1.041224    2.003747
H     -2.349330    0.333678    0.819774
H     -1.525152   -0.940191   -0.103913
H     -1.482862    0.782985   -0.742484
