11

C     -1.276280   -0.102072   -0.469068
C     -0.298132    0.313066    0.626180
C      1.036294    0.391750   -0.019429
O      1.298230    1.429126   -0.672534
N      1.963327   -0.606748    0.069348
C      2.771212   -1.474955    0.167466
H     -0.613268    1.239904    1.119372
H     -0.275339   -0.491296    1.392105
H     -0.799439   -0.135789   -1.472931
H     -2.155016    0.565506   -0.464644
H     -1.651589   -1.128491   -0.275866
