12

O     -2.641507   -0.150627   -0.104071
C     -1.342884    0.113979    0.287788
C     -0.320961   -0.393152   -0.695677
N      0.872307   -0.894333   -0.081725
C      1.824280    0.127239    0.264212
H      1.430332    0.848973    1.020477
H      2.699608   -0.395130    0.726355
H      2.225248    0.662559   -0.629088
H      0.647495   -1.413135    0.797996
H     -1.152097   -0.328675    1.297628
H     -1.171711    1.217875    0.359186
H     -3.070109    0.604427   -0.595310
