10

O     -1.818541    0.292397    0.535549
C     -0.909368   -0.444104   -0.217414
C      0.453368    0.115265   -0.190987
O      1.159319    0.969250   -0.875900
O      2.228637    0.847408   -0.160840
C      1.580508   -0.033936    0.588471
H      1.849697   -0.618871    1.454772
H     -1.202725   -0.505589   -1.296234
H     -0.945964   -1.496702    0.180721
H     -2.394929    0.874883   -0.018139
