8

C     -1.935131   -0.049850    0.179156
C     -0.657956   -0.143402    0.418930
C      0.634224   -0.038314    0.294192
C      1.921415    0.055677    0.250288
H      2.413177    0.341243   -0.657212
H      2.516540   -0.149523    1.117095
H     -2.384646   -0.638283   -0.608798
H     -2.507622    0.622451    0.785435
