12

O     -2.017252   -0.562457   -0.285986
C     -1.378007    0.564227    0.211098
C     -0.102852    0.486706    0.572599
C      0.577663   -0.817853    0.423195
O      1.645360   -0.664543   -0.433372
C      2.447854    0.249544   -0.339223
H      2.358813    0.985056    0.423457
H     -0.074963   -1.570051   -0.007645
H      0.962523   -1.132583    1.414723
H      0.429227    1.360011    0.968844
H     -1.876646    1.530297    0.323329
H     -2.971721   -0.428353   -0.623250
