12

O      3.199227    1.253193   -0.453048
C      2.160455    0.582886   -0.397870
C      1.184644   -0.270939   -0.293275
C      0.205877   -0.169495    0.849850
N     -1.127962   -0.508999    0.401306
C     -1.789467    0.223729   -0.632301
O     -1.114817    1.189676   -1.120375
H     -2.780902   -0.008497   -0.983823
H     -1.628743   -1.297587    0.827895
H      0.489013   -0.827185    1.670377
H      0.185891    0.905477    1.115878
H      1.016782   -1.072257   -0.984613
