13

C      1.880214    0.413003   -0.175609
C      0.545948   -0.314548   -0.275771
N     -0.651242   -0.064605    0.083504
C     -1.191433    1.079302    0.758633
H     -1.739795    1.837213    0.216785
H     -1.071780    1.221016    1.811399
C     -1.150022   -1.283277   -0.424945
H     -1.450073   -1.952377    0.423253
H     -1.898878   -1.235482   -1.242330
O      0.163801   -1.515375   -0.798224
H      1.958228    0.865508    0.850647
H      1.898341    1.238287   -0.892388
H      2.706690   -0.288663   -0.334953
