10

O      1.878265   -0.621721   -0.359476
C      0.587904   -0.108163   -0.165670
N      0.334412    1.199966   -0.009522
H      1.035972    1.967835   -0.012500
C     -0.997302    1.268877    0.145400
C     -1.559053    0.012288    0.085005
H     -2.605290   -0.272291    0.173596
N     -0.537487   -0.835263   -0.111563
H     -0.632507   -1.873484   -0.202541
H      2.495086   -0.738043    0.457272
