15

O     -2.371951    0.353942    0.357257
C     -1.359015   -0.070644   -0.463482
C     -0.110464   -0.233134    0.379705
H     -0.299556   -0.963892    1.206602
C      1.062844   -0.695747   -0.420784
H      0.794973   -0.679298   -1.508878
H      1.425747   -1.703429   -0.118192
C      2.055153    0.361074   -0.189472
H      3.054388    0.392043   -0.604632
O      1.509812    1.308011    0.641668
C      0.344986    1.023768    0.969992
H     -0.278062    1.646294    1.631445
H     -1.579555   -1.069940   -0.890807
H     -1.131863    0.623587   -1.292365
H     -3.117439   -0.292633    0.301942
