11

C      0.304301    0.794419    0.599078
H      0.651882    0.908672    1.640285
H      0.188263    1.704063   -0.034074
C     -0.523166   -0.382823    0.258381
N     -1.474765   -0.257012   -0.805774
H     -2.365620   -0.763374   -0.638242
H     -1.645033    0.731631   -1.093073
H     -0.903188   -0.997377    1.120203
C      0.919972   -0.417690   -0.064360
N      1.986939   -0.929376   -0.516355
H      2.860415   -0.391134   -0.466068
