19

C      2.861209    0.188878   -0.205885
O      1.602535   -0.215533   -0.586168
C      0.594095    0.466723    0.095907
C     -0.778951    0.014953   -0.329329
C     -1.024135    0.237043   -1.798640
H     -1.866913   -0.434243   -2.094761
C     -1.021643   -1.441332   -0.038534
H     -0.910707   -2.072393   -0.962784
H     -2.070234   -1.616278    0.308844
H     -0.365313   -1.831845    0.767412
C     -1.799729    0.829027    0.444922
H     -2.383401    0.173048    1.151146
H     -2.560102    1.268811   -0.233428
H     -1.313787    1.655284    0.996772
H      0.704873    1.540201   -0.157444
H      0.681255    0.380641    1.195943
H      3.593312   -0.401963   -0.794795
H      3.046112    1.265578   -0.351330
H      3.011525   -0.006600    0.888262
