10

C     -0.190592   -1.509170   -0.402139
O      0.919596   -1.269213   -0.206786
C      1.090154    0.035761    0.043822
H      1.372890    0.238340    1.159485
H      1.872608    0.426589   -0.555253
C     -0.240160    0.732804   -0.063716
H     -0.415418    1.600397    0.696636
O     -1.226939    0.689358   -0.963616
C     -1.176563   -0.400537   -0.245917
H     -2.005575   -0.544328    0.537484
