8

N      1.424978    1.161011    0.116506
C      0.548792    0.229677    0.205866
O     -0.207632   -0.511624    1.167836
C     -0.410142   -0.825296   -0.199720
O     -1.555933   -0.410013   -0.837873
H     -1.581973    0.579683   -0.946628
H     -0.006990   -1.833483   -0.462755
H      1.788900    1.610046    0.956767
