13

C      0.093219    1.562359   -0.065844
N      0.351440    0.260540    0.573309
C      1.130678   -0.576821   -0.268487
H      1.986900   -0.977463    0.319373
H      1.487339   -0.026467   -1.173887
C      0.279204   -1.719361   -0.617227
C     -0.894370   -1.582297   -0.042435
H     -1.717146   -2.305422   -0.144559
C     -0.894752   -0.351045    0.716840
H     -1.712893    0.069664    1.318009
H     -0.332441    1.404809   -1.088502
H      0.967313    2.213065   -0.046829
H     -0.744492    2.028440    0.520240
