9

N      0.803578    1.255459   -0.345256
C      0.423620    0.069252   -0.083282
O      1.388879   -0.918585   -0.010489
H      2.377487   -0.758347    0.067443
C     -0.999580   -0.322287    0.150398
H     -1.697675    0.464645   -0.210126
H     -1.169362   -0.530010    1.220250
H     -1.195709   -1.274891   -0.386905
H      0.068762    2.014764   -0.402033
