13

C     -2.111152    0.616016    0.377599
N     -1.216551   -0.548076    0.347582
C      0.042267   -0.048384   -0.216235
C      1.037250   -1.151407   -0.296496
C      2.310652   -0.900614   -0.069006
C      3.520307   -0.461753    0.063659
H      4.530727   -0.112935    0.077573
H      0.477908    0.738005    0.432418
H     -0.147720    0.416183   -1.195614
H     -1.582088   -1.262002   -0.334263
H     -1.688600    1.297485    1.170534
H     -3.151874    0.339752    0.562687
H     -2.021125    1.077729   -0.635953
