12

N      2.227788   -0.215146   -0.135921
C      0.784425   -0.136872   -0.081428
C      0.079784    0.877742    0.383107
H      0.497171    1.804183    0.793023
C     -1.351205    0.626398    0.289596
O     -2.259171    1.415821    0.655843
C     -1.446379   -0.714958   -0.310732
H     -1.866483   -1.406488    0.464455
H     -2.050802   -0.744168   -1.240601
O     -0.107189   -1.102891   -0.502719
H      2.748094   -1.088491   -0.118824
H      2.743968    0.684870   -0.195798
