11

C      1.597080   -0.251556    0.035203
C      0.304115    0.016570    0.002771
C     -0.855963   -0.882876    0.043935
H     -0.909198   -1.467754    0.992982
H     -0.901988   -1.569122   -0.828570
O     -1.946772   -0.016314   -0.022890
N     -1.537198    1.259089   -0.096455
C     -0.271760    1.345787   -0.086233
H      0.272728    2.281304   -0.137193
H      1.955090   -1.274708    0.102666
H      2.293867    0.559580   -0.006217
