11

C      2.212612    0.835637   -0.645557
C      1.286913    0.092783   -0.440491
C      0.174214   -0.826805   -0.177088
H      0.114195   -1.730478   -0.809617
N     -0.356118   -0.827722    1.152152
H     -0.665706   -1.682710    1.628333
C     -1.168101   -0.210499    0.120078
N     -1.230862    1.196637    0.084121
C     -1.301598    2.357345    0.061680
H     -2.097564   -0.716577   -0.146710
H      3.032017    1.512391   -0.826903
