10

O      1.678097    0.800410    0.131364
C      1.556061   -0.566557   -0.050866
H      2.475254   -1.128196   -0.110853
N      0.458695   -1.233003   -0.155643
C     -0.884770   -0.771531   -0.115379
H     -1.664100   -1.511997   -0.225025
C     -1.332426    0.456281    0.039747
H     -2.411568    0.583938    0.040025
O     -0.560178    1.598732    0.202334
C      0.684935    1.771923    0.244295
