12

C      2.331916    0.254912   -0.183286
C      1.179303    0.179707    0.410207
O      0.893563    1.073174    1.440941
C      0.215054   -0.853689   -0.033396
O     -0.978566   -0.349680   -0.514286
C     -1.704990    0.400293    0.368336
H     -2.000627   -0.161739    1.298874
H     -1.276831    1.361293    0.657652
H     -2.672576    0.659402   -0.155198
H      0.037978   -1.559882    0.835663
H      0.667350   -1.413395   -0.879768
H      3.308426    0.409604   -0.597969
