10

N      1.961655   -0.289187    0.269678
C      1.046988    0.507782    0.638563
C     -0.254238    0.493423   -0.053457
H     -0.277689    1.127113   -0.968170
C     -1.220060   -0.593309    0.071420
H     -0.940174   -1.458884    0.689458
H     -2.001662   -0.675593   -0.691456
O     -1.349138    0.631177    0.806879
H      1.225263    1.204326    1.469564
H      1.809055   -0.946849   -0.506659
