11

C      0.328004    1.147932    0.560752
C     -0.045898   -0.129230   -0.101151
C      0.278665   -0.305674   -1.362905
H      0.809216    0.481830   -1.887995
H      0.001102   -1.238419   -1.832200
N     -0.748268   -1.161806    0.608197
H     -1.683760   -0.976186    1.033885
H     -0.284682   -2.095481    0.677165
H      0.597389    0.866442    1.620919
H     -0.491303    1.870467    0.616520
H      1.239534    1.540126    0.066811
