13

C     -1.152748    1.068644   -0.072030
C     -0.402772   -0.187853    0.137954
N      0.916491   -0.177973    0.661385
C      1.976283    0.145401   -0.216011
H      2.966088   -0.210674    0.007753
H      1.805749    0.739611   -1.099291
H      1.026229   -0.410514    1.665125
C     -0.944190   -1.337154   -0.156311
O     -0.249132   -2.507632    0.037881
H     -1.938287   -1.376296   -0.552916
H     -0.804012    1.845543    0.670014
H     -0.958695    1.481079   -1.086782
H     -2.241003    0.927818    0.003230
