14

O      3.158773   -0.126144    0.440198
C      2.028847    0.618019    0.052824
C      0.841293   -0.304126    0.120376
C     -0.432057    0.420441    0.514630
H     -0.343415    1.201774    1.284313
C     -1.634719   -0.509276    0.583784
H     -1.544563   -1.541797    0.218896
H     -2.311672   -0.384313    1.449074
C     -1.546702    0.561514   -0.447626
H     -2.256169    1.387992   -0.328707
H     -1.311672    0.308209   -1.496864
H      1.034907   -1.047302    0.924837
H      0.714667   -0.842923   -0.834981
H      3.602484    0.257932    1.220557
