13

O      2.530770   -0.143356   -0.429051
C      1.607223    0.068990    0.581775
C      0.258998   -0.426458    0.136771
C     -0.797614    0.357651    0.047921
C     -2.103387   -0.198964   -0.400086
H     -1.977832   -0.811728   -1.321002
H     -2.610345   -0.778847    0.408566
H     -2.799571    0.656292   -0.623409
H     -0.675482    1.402866    0.310019
H      0.138462   -1.479214   -0.126559
H      1.523891    1.129966    0.859597
H      1.954617   -0.506870    1.466299
H      2.950271    0.729673   -0.626355
