14

C      1.641497   -0.910310    0.694484
C      0.800035    0.245098    0.225924
N      1.069031    1.338319   -0.283296
C     -0.244453    1.734323   -0.380493
O     -0.754071    2.816076   -0.836390
C     -0.625888    0.484003    0.206460
C     -1.420858   -0.471765   -0.666824
H     -0.981928   -0.603005   -1.666934
H     -2.452149   -0.117732   -0.703415
H     -1.404876   -1.449573   -0.155033
H     -1.130518    0.535036    1.202874
H      1.443498   -1.782090    0.031117
H      1.334583   -1.127623    1.719894
H      2.726098   -0.690757    0.611631
