10

C      2.492052    0.270159   -0.730761
C      1.251358    0.215854   -0.353073
C     -0.095605    0.175668    0.053680
C     -0.645241   -0.799526    1.014282
N     -1.902700   -0.712820    1.364247
N     -3.117163   -0.636998    1.722534
H      0.012883   -1.579018    1.361782
N     -0.902426    1.037615   -0.488757
H     -0.614166    1.731651   -1.180174
H      3.521008    0.297416   -1.037941
