14

O      3.151514    0.082288    0.824958
C      2.017913   -0.201466    0.082062
C      0.822631    0.111145    0.556577
C     -0.387124   -0.194078   -0.241194
H     -0.165384   -0.858140   -1.113028
C     -1.608479   -0.575300    0.549512
H     -2.097997   -1.475299    0.148660
H     -1.488867   -0.619335    1.646080
C     -2.209050    0.675735    0.038889
H     -3.159261    1.166860    0.161487
N     -1.157552    0.953716   -0.610439
H      0.718282    0.586496    1.519177
H      2.141643   -0.680625   -0.885655
H      3.421732    1.028004    1.024227
