15

O      2.810901    0.011599    0.303921
C      1.432921    0.001142    0.060418
N      0.875014    1.130458   -0.220397
C     -0.551071    1.292086   -0.498174
H     -0.784506    1.188304   -1.551678
H     -0.857505    2.277197   -0.125928
C     -1.312137    0.232434    0.298557
H     -1.134321    0.397389    1.361330
H     -2.368848    0.302130    0.025614
C     -0.805612   -1.131602   -0.158805
H     -0.997449   -1.322445   -1.218665
H     -1.258009   -1.919543    0.454596
N      0.642798   -1.169614    0.107634
H      1.061837   -2.071776    0.331110
H      3.245987    0.782239    0.830467
