15

N      3.101599    0.072688   -0.213105
N      2.082888   -0.299830   -1.088211
C      0.959683   -0.720687   -0.631686
C     -0.015444   -1.140270    0.157969
C     -0.902152   -0.093486    0.720391
H     -0.768534    0.196505    1.783704
C     -2.286426    0.073685    0.193697
H     -3.078612    0.439955    0.894890
H     -2.648708   -0.769650   -0.425830
C     -1.241355    1.000115   -0.273820
H     -0.833284    0.944000   -1.302931
H     -1.326635    2.050484    0.086878
H     -0.074686   -2.182631    0.319547
H      4.093778    0.019500   -0.528653
H      2.937889    0.409622    0.760259
