8

C      0.056268   -0.902086    0.808693
C      0.998625   -0.137057    0.416165
O      2.353710   -0.068895    0.756487
N      0.175207    0.583103   -0.458373
H      0.377944    1.395119   -1.110471
C     -0.883258   -0.253094   -0.037725
H     -1.738899    0.273290    0.474096
H     -1.339597   -0.890379   -0.848873
