13

O      1.932405    0.008768    0.844232
C      0.921679   -0.820536    0.409215
H      1.086152   -1.853675    0.121655
C      1.474043    0.244257   -0.413750
H      2.293106    0.067423   -1.178574
O      0.567607    1.177786   -0.756262
C     -0.602435    0.933275   -0.083857
H     -1.094017    1.851564    0.317296
C     -1.477014   -0.219993   -0.360219
H     -1.331226   -0.740436   -1.316812
H     -2.538400   -0.143530   -0.055393
C     -0.477012   -0.291245    0.696090
H     -0.754889   -0.213659    1.776380
