12

C      2.029716    0.527877    0.245854
C      0.718276    0.218310    0.205947
O     -0.388835    0.844910    0.652834
C     -1.224221   -0.139916    0.201113
O     -2.050327    0.404728   -0.818891
H     -2.325573    1.292138   -0.477358
H     -1.842409   -0.670201    0.977937
C     -0.069631   -0.899476   -0.322340
H     -0.016199   -1.026557   -1.429000
H      0.103810   -1.846409    0.240841
H      2.747648   -0.151780   -0.191862
H      2.317745    1.446377    0.714924
