12

N     -0.782012    1.216171   -0.228107
C     -0.308617   -0.137168   -0.160706
O      0.898418   -0.336698    0.552430
C      2.075772    0.284923    0.167318
O      2.021537    1.031763   -0.841669
H      2.971030    0.102255    0.742155
C     -1.304900   -1.239580   -0.018284
H     -2.372952   -0.971904    0.061217
H     -1.005277   -2.200817    0.441619
O     -0.630435   -0.975477   -1.216076
H     -1.541964    1.343134    0.467002
H     -0.020599    1.883399    0.033102
