14

C     -0.526357    1.352268    0.918010
C     -0.422458    0.252334   -0.082212
C      0.759162    0.116732   -0.934922
C      1.929124    0.063754   -0.366678
N      3.047000   -0.251102    0.156671
H      3.185753   -1.255394    0.417941
H      0.640852    0.062501   -1.994002
C     -1.433259   -0.594141   -0.171230
O     -1.358003   -1.630829   -1.099787
H     -1.913728   -2.460383   -0.874403
H     -2.278361   -0.460329    0.469962
H     -0.283972    0.887900    1.906813
H     -1.548179    1.770427    0.960573
H      0.202425    2.146261    0.693264
