11

N      2.110523    0.293480    0.141842
C      1.195071    0.354819    1.210706
O     -0.031159    0.164741    1.116987
C     -0.570627   -0.135857   -0.140004
C     -2.042244   -0.259202   -0.138813
O     -2.752827   -0.119604    0.842427
H     -2.513858   -0.491498   -1.087661
H     -0.096048   -1.060279   -0.518906
H     -0.286309    0.712604   -0.825788
H      3.131306    0.294180    0.360837
H      1.856173    0.246615   -0.865798
