14

O      0.735257    1.067010   -1.078261
C      0.146049    0.133525   -0.217051
C      1.272805   -0.549265    0.554283
H      1.804817   -1.165454   -0.203034
H      1.982062    0.250282    0.861409
H      0.912473   -1.124195    1.410410
C     -0.813788   -0.784144   -0.861272
H     -0.625322   -1.845491   -0.559213
H     -0.995882   -0.655343   -1.947503
C     -1.917482   -0.224559   -0.016524
C     -0.933726    0.703427    0.631418
H     -1.218109    1.758540    0.421498
H     -0.857484    0.468398    1.718410
H      0.508330    1.967269   -0.714571
