13

N      4.162089   -0.657785   -0.087625
C      2.908780   -0.776500    0.156054
C      1.641522   -0.847199    0.042296
C      0.178259   -0.795664    0.013499
C     -0.306545    0.642548    0.163520
C     -1.800644    0.671903    0.131259
H     -2.144292    1.708322    0.263386
H     -2.123182    0.350004   -0.879678
H     -2.295191    0.040417    0.866740
H      0.122044    1.010247    1.115623
H      0.072376    1.189887   -0.724638
H     -0.269415   -1.407129    0.832593
H     -0.145801   -1.129052   -0.994019
