15

O     -2.044044    0.955317   -0.388724
C     -0.684898    0.730379   -0.513374
H     -0.183599    1.479306   -1.145105
C     -0.007887    0.571299    0.844349
H     -0.738842    0.314176    1.627315
H      0.613606    1.449509    1.105114
C      0.907956   -0.605803    0.584084
C      2.253276   -0.437043    1.228591
H      2.853325    0.371915    0.792630
H      0.442264   -1.529708    0.950667
O      0.987547   -0.733135   -0.812247
C     -0.376296   -0.626853   -1.131834
H     -0.954619   -1.366468   -0.542457
H     -0.567045   -0.657704   -2.210371
H     -2.500745    0.084813   -0.388640
