13

O     -1.188286    1.155842   -0.704464
C     -0.896612    1.052460    0.658366
H     -1.826664    1.106185    1.245330
H     -0.113731    1.793026    0.936696
C     -0.432480   -0.348006    0.420231
C      1.025311   -0.537871    0.596458
C      2.209617   -0.693978    0.760688
H      3.259510   -0.826806    0.924073
H     -1.028811   -1.143945    0.910124
C     -0.771287   -0.154210   -1.019686
O      0.311845   -0.070333   -1.888714
H      1.060001   -0.569568   -1.433555
H     -1.608414   -0.762796   -1.405549
