12

C     -0.857441    0.667174    0.176248
H     -1.509870    1.159425   -0.599412
H     -1.211857    0.822505    1.198397
C      0.535045    1.205336   -0.007098
H      0.483672    2.320286   -0.158785
O      1.627446    0.496993   -0.029226
C      1.668842   -0.785664    0.043744
H      2.455721   -1.320172    0.072309
O      0.399735   -1.379109    0.048900
C     -0.864191   -0.813717   -0.108467
H     -1.135936   -1.050793   -1.177362
H     -1.591164   -1.322265    0.540750
