12

C     -1.626790   -0.643056   -0.291239
C     -0.712956    0.418974    0.301477
H     -1.309258    1.295943    0.687581
N      0.153183   -0.117358    1.375508
H      0.353638   -0.557275    2.277417
C      0.659585    0.483483    0.111663
C      1.763329    0.778891   -0.544811
N      2.830999    0.981584   -1.201100
H      3.371818    0.112598   -1.472819
H     -2.336224   -0.175584   -0.991740
H     -0.985068   -1.402208   -0.786658
H     -2.162256   -1.175991    0.534721
