10

N     -1.083755   -0.729875   -0.160291
C     -0.293676    0.435976   -0.044939
O     -0.949748    1.607798    0.290931
H     -1.262931    1.765222    1.239921
C      1.001775    0.322607   -0.264267
O      1.631188   -0.863114   -0.598902
H      2.098382   -1.435453    0.099037
H      1.592091    1.219716   -0.172830
H     -0.868322   -1.533062    0.448887
H     -1.865005   -0.789815   -0.837547
