12

C     -0.932571    0.914289   -0.198435
H     -0.651500    1.256772   -1.215982
H     -1.873709    1.360827    0.154810
C      0.247273    1.286260    0.695214
C      1.248404    0.252492    0.199335
H      1.395229    0.481374   -0.880366
H      2.198505    0.273590    0.742168
C      0.457437   -1.008092    0.348863
H      0.892360   -1.953821   -0.009524
O     -0.660687   -1.066985    1.157036
C     -0.914229   -0.587409   -0.119204
H     -1.406513   -1.209298   -0.873913
