15

C     -0.302822    1.333825   -0.615251
C     -0.084935    0.152407    0.286066
N      1.319231   -0.165487    0.391218
C      1.927871   -0.490887   -0.857695
H      2.261572   -1.545531   -0.931911
H      1.565999   -0.753137    1.185534
C     -0.913087   -0.988151   -0.222411
H     -1.876737   -0.987640    0.294271
H     -0.413242   -1.960032    0.037400
H     -1.005327   -0.994353   -1.325557
C     -0.519503    0.569233    1.642836
N     -0.838492    0.901644    2.695124
H     -0.403740    0.953327   -1.645532
H      0.520658    2.087255   -0.542096
H     -1.237445    1.887528   -0.391994
