15

C     -1.653698   -0.345648   -1.129963
C     -0.867470    0.226659   -0.052175
C     -1.027609    1.457543    0.685156
H     -1.722422    2.130416    0.113075
H     -1.536284    1.325403    1.684619
H     -0.108516    2.029965    0.880822
C      0.171464   -0.512688    0.303212
C      1.250888   -1.186296    0.612265
C      2.404553   -0.855192   -0.111509
C      3.425483   -0.579923   -0.733931
H      4.316809   -0.351257   -1.258593
H      1.092334   -1.892051    1.373871
H     -1.727235   -1.448176   -1.043723
H     -1.316815   -0.032684   -2.150689
H     -2.701483    0.033931   -1.037960
