15

O      1.652531    0.556329    0.861426
C      1.049936   -0.427872    0.081526
C      0.046941    0.228633   -0.850304
C     -1.008994    0.952199   -0.038144
H     -0.942967    2.043653    0.055870
C     -1.807639    0.157091    0.883295
H     -2.366555    0.581359    1.719023
H     -1.595555   -0.945724    0.932154
O     -2.391523    0.576637   -0.385740
H      0.587037    0.922611   -1.526644
H     -0.433864   -0.551711   -1.477353
C      2.050530   -1.205289   -0.743516
H      2.025595   -2.292752   -0.479895
H      0.500282   -1.102102    0.770575
H      2.634244    0.506938    0.650825
