11

O     -0.073155   -0.255326   -1.695639
C      0.261680    0.091653   -0.549545
C     -0.570386   -0.291166    0.609653
C     -1.744633   -1.077288    0.156331
O     -1.875540   -1.296707   -1.028741
H     -2.464825   -1.441806    0.891447
H     -0.884977    0.660304    1.101726
H      0.018378   -0.894258    1.353610
C      1.475441    0.873052   -0.377082
C      2.478677    1.523034   -0.237628
H      3.379340    2.108507   -0.128302
