14

O     -0.974857    1.755841    0.266175
C     -0.687534    0.453768    0.642643
H     -0.757121    0.287280    1.744622
C     -1.316974   -0.625690   -0.161384
H     -2.026821   -0.304916   -0.951643
H     -1.736782   -1.472676    0.449428
N      0.007328   -0.977409   -0.610467
H      0.162236   -0.811616   -1.628760
H      0.335812   -1.932698   -0.327506
C      0.636058    0.040095    0.143103
C      1.862782    0.442868    0.321791
O      2.916623   -0.188946   -0.322792
H      2.086425    1.286917    0.983346
H     -0.507174    2.047182   -0.548556
