14

C     -2.182170   -0.508478    0.380206
O     -0.894933   -0.069911    0.699613
C     -0.293374    0.311624   -0.489583
C      1.103030    0.804833   -0.273187
C      1.439237    2.042994   -0.615550
C      2.139080   -0.081283    0.328577
H      2.217629    0.044281    1.428170
H      1.888559   -1.150349    0.156455
H      3.123436    0.081629   -0.176138
H     -0.873999    1.019002   -1.086838
H     -0.192837   -0.619502   -1.112265
H     -2.691793    0.360278   -0.092613
H     -2.048611   -1.319264   -0.373856
H     -2.733253   -0.915854    1.227008
