13

C      1.937790   -0.330421    0.011417
C      0.626614    0.339949    0.182040
C     -0.134942    1.471924    0.049746
H     -0.169949    2.506887   -0.262617
C     -0.820343    0.307140    0.611070
C     -1.652268   -0.576617   -0.317181
H     -2.608770   -0.852595    0.147374
H     -1.106386   -1.490445   -0.603212
H     -1.877707   -0.035979   -1.260883
H     -1.007292    0.222721    1.698438
H      1.966935   -1.185896    0.716019
H      2.754561    0.354809    0.317549
H      2.091757   -0.731477   -1.005273
