11

C     -1.573140   -0.687463   -0.467761
C     -0.931793    0.553567   -0.025024
O     -1.585077    1.408796    0.817201
C      0.293293    0.815655   -0.463349
O      1.522332    0.927759   -0.390509
C      2.342111    0.225226    0.464062
O      1.831173   -0.608687    1.247922
H      3.427528    0.392393    0.459611
H     -1.098200   -1.148194   -1.359769
H     -2.647190   -0.486152   -0.690816
H     -1.581036   -1.392899    0.408432
