10

C     -1.205474   -0.016065   -0.215677
C      0.149458   -0.279166    0.442938
H      0.018956   -0.843862    1.386710
N      1.046909   -0.950787   -0.464220
N      1.980785   -0.154557   -0.708413
N      1.814340    1.031926   -0.043135
N      0.772409    0.998823    0.629602
H     -1.750479    0.697338    0.466994
H     -1.020689    0.456212   -1.191344
H     -1.806216   -0.939862   -0.303456
