11

C     -1.049091   -0.062760   -0.120655
H     -1.525514   -0.063156   -1.138054
H     -1.843704    0.063663    0.658995
N     -0.054383    0.892162   -0.058211
H     -0.259870    1.882010   -0.043314
C      1.207759    0.403160    0.229223
H      1.882131    0.527410   -0.660953
H      1.669976    0.834143    1.137854
C      0.992724   -1.088524    0.373058
N     -0.401000   -1.323132    0.150487
H     -0.619029   -2.064975   -0.528431
