18

C     -2.952209    0.332254    0.001119
C     -1.709698   -0.525099    0.092614
C     -0.585902    0.251943   -0.558098
H     -0.590901    1.353365   -0.498069
C      0.756387   -0.346888   -0.613924
C      2.058916   -0.726869    0.007279
C      2.761652    0.524783    0.514858
H      3.066487    0.387423    1.571323
H      3.624750    0.786296   -0.133656
H      2.026440    1.375412    0.495099
H      2.693128   -1.277766   -0.720812
H      1.867209   -1.395205    0.887077
N     -0.005294   -0.335626   -1.685569
H     -1.862996   -1.504616   -0.413441
H     -1.461011   -0.694575    1.151864
H     -2.876795    0.974720   -0.921467
H     -3.883401   -0.247827   -0.025746
H     -2.926761    1.068276    0.849549
