13

C      2.470803   -0.595663    0.278815
N      1.216712    0.010947    0.158008
C      0.898745    1.254590    0.162740
C     -0.373921    1.504741    0.028243
H     -0.900956    2.449236   -0.000162
C     -0.997781    0.181631   -0.084607
N     -2.356643   -0.141593   -0.247386
H     -2.873581   -0.631612    0.500980
H     -2.850937    0.108831   -1.118997
C     -0.013572   -0.705300   -0.003107
H     -0.134885   -1.777281   -0.051514
H      3.021630   -0.505177    1.195113
H      2.894386   -1.153350   -0.533640
