14

C     -2.194590    0.614145    0.464585
C     -0.968350   -0.013255   -0.163948
O     -0.124747   -0.551492    0.860458
C      1.049693   -1.170325    0.504932
C      2.143065   -0.445553    0.351026
C      2.042866    1.019765    0.573636
H      2.997119    1.535955    0.355850
H      3.091723   -0.924668    0.066685
H      1.066368   -2.260649    0.352668
H     -1.218822   -0.849832   -0.835174
H     -0.399243    0.788501   -0.646501
H     -2.986925   -0.165400    0.477080
H     -2.532914    1.459362   -0.159877
H     -1.965242    0.963447    1.499893
