11

C      1.390102   -0.182839   -0.066876
C      0.032821    0.407172    0.281766
H      0.081638    1.143731    1.096393
N     -0.915225    0.661686   -0.769209
H     -1.564606    1.479409   -0.644893
C     -1.141377   -0.496483    0.117538
H     -2.002325   -0.459192    0.798540
H     -0.992224   -1.445325   -0.411023
H      1.844137   -0.583118    0.876440
H      2.045884    0.553007   -0.568397
H      1.221176   -1.078049   -0.710277
