12

C     -1.062270   -0.901452    0.112603
H     -1.892486   -1.572084    0.296663
C      0.150132   -1.442536    0.112184
C      1.241814   -0.475430   -0.140017
H      2.213914   -0.889223    0.242084
H      1.303105   -0.462646   -1.314875
C      0.973198    0.811384    0.387891
H      1.773545    1.453901    0.826527
O     -0.133526    1.246040    0.409841
C     -1.219887    0.539701   -0.081732
H     -2.144712    0.931310    0.375806
H     -1.202828    0.761034   -1.226975
