16

C      1.870688    0.641922   -0.934378
C      1.045016   -0.561276   -0.532418
H      1.707606   -1.450350   -0.384729
C      0.165048   -0.366932    0.653697
H      0.338360   -1.096303    1.480665
H      0.189374    0.705176    1.024483
C     -1.025125   -0.648696   -0.197756
C     -2.035959    0.471331   -0.297531
H     -1.721669    1.288423   -0.947199
H     -2.312569    0.778789    0.732654
H     -2.964144    0.009400   -0.728908
H     -1.496919   -1.621280    0.088075
C     -0.143322   -0.840880   -1.374794
H      2.833396    0.555362   -0.366765
H      2.125569    0.538436   -2.007761
H      1.424649    1.596875   -0.664458
