12

O      2.477710   -0.013059    0.162613
C      1.962148   -0.351405   -1.078320
O      0.754706   -0.612694   -1.170313
C     -0.087388   -0.572172   -0.054116
H      0.074727   -1.425911    0.650629
C     -1.499192   -0.122833   -0.335078
H     -2.279067   -0.799778    0.114481
H     -1.738273    0.270385   -1.343818
C     -0.600744    0.679507    0.521804
H     -0.741211    0.712682    1.621955
H     -0.271551    1.657210    0.112232
H      1.948136    0.578070    0.797932
