10

N      1.697369    0.678519    0.236597
C      0.625627   -0.246927    0.329417
C     -0.768533    0.210919    0.078467
H     -0.937517    1.282101   -0.179253
N     -1.823060   -0.556923    0.655777
C     -1.676956   -0.710000   -0.653659
H     -2.102900   -1.245652   -1.489033
O      0.800488   -1.447667    0.616647
H      1.500610    1.696361    0.172978
H      2.684871    0.339268    0.232061
