21

C      0.945752    1.671973    0.521785
C      0.422525    0.445674   -0.137408
C      1.520460   -0.559034   -0.187654
C      2.062809   -0.961084   -1.331675
H      2.847173   -1.680804   -1.344335
H      1.674168   -0.527045   -2.245386
H      1.880708   -0.969017    0.749862
C     -0.773649   -0.166229    0.505006
C     -1.976414    0.688807    0.588750
H     -2.098658    1.416207   -0.233293
H     -2.025580    1.196497    1.594433
H     -2.879302    0.036937    0.559068
C     -1.122248   -1.451731   -0.216154
H     -1.886567   -1.267922   -0.996274
H     -0.219596   -1.816278   -0.741271
H     -1.460652   -2.243681    0.508661
H     -0.500903   -0.477996    1.555840
H      0.174112    0.707662   -1.194514
H      1.853943    1.994403   -0.031210
H      0.256744    2.533269    0.516813
H      1.305173    1.429392    1.558956
