13

O     -0.001888    0.952028   -1.210727
C     -0.061888    0.334408   -0.131690
C      1.158930    0.025851    0.618110
O      2.294188    0.465439    0.034951
C      2.903452   -0.158389   -0.828255
H      2.548868   -1.132854   -1.181896
H      1.086511    0.525666    1.620405
H      1.226975   -1.076833    0.729922
C     -1.352632   -0.073306    0.369883
C     -2.487096    0.174425   -0.258070
H     -3.434335   -0.127087    0.114068
H     -2.460451    0.708092   -1.194684
H     -1.420632   -0.617438    1.317982
