10

N      0.302042    1.371074    0.246769
H      0.629839    2.358567    0.320822
C     -1.072288    0.984192   -0.013868
C     -1.057584   -0.525192   -0.031195
H     -1.371454   -0.938416   -1.023876
H     -1.746614   -0.880279    0.766699
C      0.353594   -0.880158    0.226435
H      0.713717   -1.891179    0.279948
C      1.095015    0.201163    0.378639
H      2.153732    0.200227    0.575445
