11

O      3.575821    0.027854   -0.515491
C      2.430851    0.317896   -0.148789
C      1.272291    0.417759    0.421650
C      0.085557   -0.386342    0.024770
N     -1.028744    0.516015    0.011433
C     -2.214665    0.106125   -0.185276
H     -2.359489   -0.955654   -0.344068
H     -3.007632    0.834139   -0.183294
H      0.180035   -0.793729   -0.998967
H     -0.052195   -1.194307    0.781025
H      1.118170    1.110244    1.232836
