12

C      1.196246   -0.006319    0.731924
N     -0.063519    0.179035    0.025608
C     -0.652302    1.427290    0.128343
N     -1.147338    2.462712    0.232219
C     -0.911253   -0.962384   -0.217121
H     -0.592842   -1.876055    0.315719
H     -1.982893   -0.800414   -0.355347
C     -0.030729   -0.468703   -1.302438
H     -0.397368    0.178527   -2.112440
H      1.104964    0.317241    1.776764
H      1.531365   -1.057029    0.616759
H      1.945669    0.606099    0.160008
