13

O     -1.943904    1.255943    0.801746
C     -1.156183    0.138647    0.537865
H     -1.336966   -0.709911    1.237732
C     -0.848089   -0.137404   -0.899414
H     -0.832231   -1.213125   -1.163381
H     -1.163563    0.589793   -1.667868
C      0.226866    0.376811    0.050890
C      1.320583   -0.571027    0.315176
N      2.354252   -0.643441   -0.427518
H      3.127178   -1.314969   -0.238686
H      1.270725   -1.245100    1.167758
H      0.554275    1.434696   -0.073111
H     -1.572941    2.039085    0.358810
