13

O      2.523293   -0.764937   -0.667822
C      1.385642   -0.440255   -0.369919
C      0.797750    0.808590    0.145062
H      1.194762    1.127780    1.129369
H      0.897843    1.670145   -0.549748
C     -0.555446    0.172272    0.157929
C     -1.587655    0.845996   -0.714914
H     -2.305498    0.159030   -1.157541
O     -1.011270   -0.014056    1.486113
H     -1.143860    0.877609    1.861194
C      0.056405   -1.065551   -0.357381
H     -0.307954   -1.448030   -1.334651
H      0.055986   -1.928592    0.372310
