13

N      1.643468    0.736609    0.157863
C      1.098224   -0.301648   -0.647300
O      1.891678   -0.869687   -1.444075
C     -0.339113   -0.677324   -0.533986
H     -0.702447   -1.477478   -1.172836
C     -1.299577    0.416752   -0.227952
H     -2.347708    0.350607   -0.601102
H     -0.891276    1.446339   -0.229509
C     -0.930545   -0.495375    0.861416
H     -0.257007   -0.070032    1.648954
H     -1.580179   -1.289150    1.247939
H      2.290438    0.495517    0.944280
H      1.424043    1.734869   -0.003692
