15

C     -1.571395   -0.614890   -0.507688
C     -1.073233    0.435514    0.375270
O     -1.954427    1.429068    0.836641
H     -2.173646    2.146867    0.142214
C      0.191089    0.437846    0.726380
C      1.181009   -0.569294    0.285420
C      2.302721    0.064941   -0.467703
O      3.182692   -0.643654   -0.886617
H      2.340990    1.137803   -0.643220
H      0.741685   -1.424874   -0.228410
H      1.648542   -0.973709    1.232215
H      0.529271    1.229612    1.381655
H     -0.899100   -0.904960   -1.323216
H     -1.932211   -1.504739    0.088455
H     -2.513987   -0.245534   -1.011396
