12

O      2.111202    0.188070   -0.446347
C      0.920325   -0.198140    0.095732
H      0.995323   -0.498078    1.139591
C     -0.290012    0.721131    0.060838
H     -0.234477    1.565713   -0.806492
H     -0.411360    1.365649    1.000570
C     -1.345086   -0.108567   -0.155707
H     -1.706116   -0.383444    0.978995
H     -2.253009    0.373194   -0.581355
O     -0.879996   -1.209419   -0.698787
C      0.303894   -1.367729   -0.557987
H      2.789312   -0.448380   -0.029051
