13

C     -1.685524    0.887181    0.311906
C     -1.021571   -0.445546    0.241497
O     -1.426192   -1.439444    0.786058
C      0.232579   -0.517721   -0.570673
C      1.429603   -0.540883    0.326660
C      2.569701   -0.165895   -0.188425
O      3.554347    0.549904   -0.504802
H      1.315832   -0.861599    1.355347
H      0.283830    0.310355   -1.308778
H      0.274378   -1.465956   -1.157913
H     -1.107299    1.512930    1.047057
H     -2.728360    0.810349    0.638990
H     -1.691323    1.366324   -0.692437
