14

C      2.241905   -0.493948    0.549285
C      1.364293    0.100499   -0.211457
C      0.403583    0.673670   -0.878957
C     -0.959901    0.471808   -0.451049
C     -1.256194   -0.863230    0.162194
H     -1.934246   -0.709492    1.048066
H     -0.368513   -1.439020    0.453323
H     -1.844076   -1.508867   -0.530381
O     -1.317190    1.489036    0.433217
H     -0.493867    1.866339    0.853553
H     -1.630913    0.580113   -1.351586
H      0.699230    1.252722   -1.696666
H      2.606524    0.067752    1.374564
H      2.489365   -1.487383    0.245894
