14

C      0.766086   -1.755597    1.691009
N      0.431184   -1.001886    0.477315
C     -0.056373    0.169636    0.573201
C     -0.410634    0.971684   -0.590642
C     -0.202442    0.453077   -1.968252
H     -1.063361   -0.127917   -2.343809
H     -0.065973    1.301919   -2.674801
H      0.688921   -0.222421   -1.968415
N     -0.945817    2.227185   -0.433317
N     -1.389273    3.262305   -0.303400
H     -0.207469    0.571052    1.565018
H      1.697612   -2.335273    1.571682
H      0.812007   -1.042275    2.538816
H     -0.054468   -2.471489    1.865595
