17

C      2.267186    0.472229    0.294397
C      1.427557   -0.247120   -0.380340
C      0.100314   -0.460651   -0.828317
H      0.035597   -0.644208   -1.949943
C     -0.781118   -1.285285   -0.039667
H     -1.404351   -1.994291   -0.702621
H     -0.461790   -1.782235    0.873535
C     -1.677065   -0.107821    0.287044
H     -2.708892   -0.121731    0.221976
C     -0.982469    1.019557    0.947648
H     -0.218756    0.700789    1.730452
H     -1.599756    1.881795    1.267852
C     -0.780945    0.790174   -0.475728
H     -0.985448    1.477311   -1.239654
H      2.101144   -1.230358   -0.892436
H      2.296021    1.285882    0.862114
H      3.372770    0.245962    0.023688
