11

C     -0.776046   -0.408147   -0.769035
H     -1.038724   -1.074600   -1.608216
C     -1.505970   -0.024722    0.231795
H     -2.544421   -0.189491    0.596711
N     -0.462343    0.734911    0.750717
H     -0.360734    1.339615    1.592536
C      0.367011    0.339507   -0.326441
C      1.589675   -0.423677    0.033072
O      1.767821   -0.639641    1.217430
H      2.310625   -0.789487   -0.664819
H      0.653106    1.135733   -1.053750
