12

C     -1.245493   -0.204625    1.717273
C      0.026415   -0.017148    0.911038
H      0.952124   -0.300115    1.431191
C     -0.083545    0.169493   -0.482211
C      1.092244    0.003262   -1.337795
C      2.060811   -0.122705   -2.063863
H      2.899585   -0.229185   -2.714766
H     -1.085676    0.196517   -0.967029
O      0.120046    1.319711    0.397373
H     -1.974398   -0.812867    1.113233
H     -1.028096   -0.741003    2.666818
H     -1.734016    0.738665    1.976508
