18

C      0.532329    1.585263   -0.563311
C     -0.181158    0.289407   -0.233466
C      0.673720   -0.584224    0.642416
C      1.988129   -0.943937   -0.027539
H      2.748757   -0.194788    0.240970
H      1.870331   -0.949497   -1.142102
H      2.363030   -1.941301    0.310035
H      0.111077   -1.497077    0.877102
H      0.826863   -0.038416    1.600605
C     -1.438681    0.634109    0.511981
C     -2.574508   -0.312622    0.197830
H     -3.517942    0.233087    0.411613
H     -2.521454   -1.247388    0.805011
H     -2.589845   -0.619220   -0.865819
H     -0.387625   -0.240021   -1.186957
H      0.244459    2.413576    0.112732
H      1.632156    1.494633   -0.502717
H      0.220364    1.918417   -1.588270
