16

C     -0.691163    1.719797   -1.012552
C     -0.196601    0.567848   -0.162935
C     -0.705858   -0.738762   -0.659035
C     -1.463194   -1.519807    0.112161
H     -1.742358   -1.248473    1.122614
H     -1.827101   -2.468249   -0.261505
H     -0.447604   -1.036066   -1.653958
C      1.279364    0.592353   -0.177142
C      1.896478   -0.577208   -0.188300
N      2.490647   -1.643456    0.180698
H      2.536383   -1.935822    1.189677
H      1.882020    1.469108   -0.178272
H     -0.527954    0.735756    0.893119
H     -0.780261    2.659077   -0.430047
H      0.024324    1.919032   -1.828573
H     -1.727124    1.504873   -1.403071
