15

C     -2.286787    0.385471    0.315037
C     -0.865779    0.142220    0.681089
O     -0.318998    0.899847    1.461438
C     -0.082071   -0.989868    0.125225
C      1.196598   -0.412288   -0.499230
C      1.921609    0.284643    0.629317
O      2.647323    1.382784    0.187352
H      3.337086    1.053234   -0.432188
H      0.904371    0.309153   -1.307033
H      1.841627   -1.183942   -0.926038
H     -0.633837   -1.622644   -0.556377
H      0.272477   -1.623592    0.987163
H     -2.283843    1.104197   -0.563043
H     -2.839645    0.797725    1.180755
H     -2.810132   -0.526939    0.009941
