16

C      2.279503   -0.075559    0.168128
N      0.972672   -0.015217    0.796441
C      0.036780    0.453425   -0.217721
H      0.398041    1.412448   -0.688139
O     -0.275675   -0.426929   -1.194320
C     -1.594269   -0.377726   -0.895593
H     -2.169413    0.133130   -1.719021
H     -2.073268   -1.345871   -0.592219
C     -1.361254    0.591643    0.200736
O     -1.684369    0.090659    1.472541
H     -1.362127   -0.823424    1.595427
H     -1.845609    1.587082    0.056136
H      0.719045   -0.992611    1.065541
H      2.974088    0.681069    0.617269
H      2.241747    0.177642   -0.916240
H      2.744108   -1.069761    0.251033
