15

C     -1.639405   -0.450917    0.420124
C     -0.490316   -0.308020   -0.542255
H     -0.804696   -0.706230   -1.549524
C     -0.057999    1.116817   -0.640787
H     -0.873531    1.816002   -0.494350
H      0.362800    1.294731   -1.672229
C      1.028749    1.187163    0.363097
H      1.304413    2.090542    0.910292
C      1.595336    0.012536    0.474308
C      0.744631   -1.022376   -0.137591
C      1.927729   -1.358140    0.392693
H      2.649270   -2.168186    0.467178
H     -2.599425   -0.222467   -0.084771
H     -1.639158   -1.498994    0.796669
H     -1.508399    0.217540    1.297147
