15

O     -1.532901   -1.009010    1.421342
C     -0.591506   -0.270384    0.811841
H      0.006990    0.383760    1.468328
C      0.382126   -1.024879   -0.048490
H     -0.157129   -1.539088   -0.902585
H      1.025857   -1.716869    0.472436
C      1.092972    0.136821   -0.640483
O      2.445802    0.091353   -0.914394
H      3.127334    0.205312   -0.187130
C      0.249780    1.087003   -0.831477
H      0.427171    2.062736   -1.240865
C     -1.108966    0.649024   -0.318933
H     -1.728427    1.468390   -0.023836
H     -1.542261   -0.067112   -1.046961
H     -2.096842   -0.457056    1.981206
