15

C     -1.635199    0.957821    0.071075
C     -1.142817   -0.352677   -0.551009
C     -0.116723   -0.977158    0.370794
N      1.017288   -0.135763    0.589029
C      2.105174   -0.179904   -0.103750
O      3.119149    0.697580    0.224014
H      2.999874    1.427042    0.923696
H      2.153121   -0.906008   -0.901685
H     -0.621211   -1.125820    1.349384
H      0.151878   -1.961969   -0.070820
H     -0.771188   -0.130833   -1.546743
H     -2.033879   -1.009994   -0.597321
H     -0.763181    1.637832    0.172743
H     -2.429939    1.394082   -0.553263
H     -2.032349    0.665770    1.076953
