11

C     -1.722178    0.100654    0.291635
H     -2.304766    1.038651    0.126696
H     -2.360400   -0.711104    0.729616
C     -0.378082    0.016165    0.237765
O     -1.138355   -0.389414   -0.949026
C      0.680703    0.848723   -0.258082
O      1.227786    1.759999   -0.691898
C      1.522143   -0.456964    0.053368
H      1.744961   -0.969280   -0.914152
H      2.322722   -0.217275    0.691566
O      0.405466   -1.020155    0.682511
