11

N      0.619302   -0.328792   -1.445459
C      0.645763   -0.780311   -2.602589
C      0.580400    0.193863   -0.166875
H      1.391371    0.856719    0.115003
C     -0.758058    0.842542    0.156131
H     -1.405033    0.843266   -0.774190
H     -0.672517    1.860288    0.606825
O     -1.108238   -0.158177    0.962792
C      0.093333   -0.767903    0.867010
H      0.664521   -0.759399    1.828098
H     -0.050846   -1.802097    0.453253
