11

N      1.968149    0.020894   -1.650920
C      1.088776    0.498381   -0.585657
O      0.626945   -0.555030    0.068668
C     -0.242673   -0.380526    1.148732
C     -1.508777    0.150496    0.778700
C     -2.652016    0.632472    0.467204
H     -3.697792    1.051529    0.185291
H     -0.348407   -1.385085    1.688473
H      0.249847    0.230951    1.963679
H      2.982868    0.229764   -1.569841
H      1.533080   -0.493848   -2.398499
