13

C      0.625198   -0.558811    0.600669
H      0.588692   -1.634944    0.335829
H      0.722878   -0.368649    1.693740
C      1.530335    0.256358   -0.283930
H      2.232371    0.930714    0.254971
H      2.021093   -0.317981   -1.096281
O      0.394852    0.888784   -0.786898
C     -0.517134    0.187132   -0.012260
O     -1.143112    1.058412    0.876655
H     -1.230650    1.936872    0.417195
N     -1.423038   -0.577996   -0.826654
H     -1.384831   -1.564056   -0.486900
H     -2.416654   -0.235836   -0.686135
