15

C     -1.668627   -0.281469    0.550897
C     -0.609158   -0.039567   -0.545183
H     -1.034875   -0.109357   -1.506609
C      0.226540    1.254811   -0.321175
H      0.092087    1.852655   -1.279306
H     -0.344288    1.895868    0.396128
O      1.505232    1.065995    0.006758
C      2.109368   -0.056335    0.469514
H      3.142677   -0.045825    0.959194
C      1.408834   -1.198516    0.398219
C      0.409231   -1.220039   -0.452245
H      0.315312   -2.078728   -1.048914
H     -1.115647   -0.713780    1.435659
H     -2.388139   -1.022856    0.153905
H     -2.048546    0.697144    0.783159
