10

O      1.309721    1.856601   -0.032136
C      0.678709    0.738212   -0.024302
C     -0.785097    0.550359    0.007251
H     -1.133009    0.908428    1.000911
H     -1.309008    1.043313   -0.829370
N     -0.916465   -0.880060    0.002229
H     -1.811893   -1.417908    0.019183
N      0.343088   -1.443574   -0.028950
C      1.268535   -0.587127   -0.044801
H      2.355420   -0.768244   -0.070014
