11

C     -0.547441   -0.521573   -0.084906
C      0.946360   -0.330659    0.023822
H      1.401374   -0.769544    0.943622
N      1.659828   -0.717868   -1.184209
C      1.669660    0.597404   -0.780623
H      2.105978    1.492931   -1.159073
H     -0.878837   -1.510613   -0.490473
C     -1.296370   -0.132247    1.138483
H     -1.630193   -0.173741    2.162100
C     -1.453251    0.615463   -0.086626
H     -1.977106    1.450447   -0.482117
