13

C     -1.433077   -1.076939   -0.169706
C     -0.757360    0.092609    0.505482
H     -0.743662    0.018949    1.614572
C     -0.779529    1.415853   -0.095435
O     -1.315022    2.474144   -0.439523
C      0.506042    0.628495   -0.073346
C      1.778965    0.538682   -0.367788
O      2.461695   -0.611389   -0.020463
H      2.687150   -0.753259    0.946963
H      2.322330    1.342173   -0.879471
H     -1.184568   -1.987885    0.378461
H     -2.528714   -0.912852   -0.207033
H     -1.014251   -1.168581   -1.192712
