12

O      2.334579   -0.627948   -0.744907
C      1.029735   -0.343269   -0.360792
C      0.418091    0.824149   -0.397490
H      0.883334    1.734860   -0.746640
C     -0.977654    0.707002    0.101722
H     -1.704501    1.031772   -0.663645
H     -1.035455    1.336868    1.020893
C     -1.091939   -0.759098    0.447966
H     -1.308756   -0.857919    1.540405
H     -1.855145   -1.258310   -0.183329
O      0.166204   -1.297048    0.132858
H      3.141505   -0.491059   -0.147043
