17

C     -1.649065    0.852761    0.094461
C     -0.969404   -0.469185    0.337949
H     -1.738704   -1.259311    0.465353
C      0.034963   -0.740823   -0.753587
H     -0.152060   -1.698902   -1.280200
H      0.134820    0.080938   -1.514742
C      1.120611   -0.751005    0.273905
O      2.046832    0.245678    0.158566
C      1.871511    1.285058   -0.414356
H      2.680238    2.000220   -0.439961
H      1.617005   -1.738731    0.310346
C      0.115756   -0.480485    1.355989
H      0.271483    0.477822    1.895027
H      0.044195   -1.338533    2.044885
H     -1.998507    0.851889   -0.967699
H     -2.504945    1.020137    0.776193
H     -0.924731    1.662472    0.254613
