10

N     -2.037341    0.816608   -0.840980
C     -1.300678    0.067757   -0.100449
C     -0.093790   -0.706813    0.189591
C      1.153673    0.058287    0.495193
C      2.109104    0.026785   -0.385975
O      3.034545    0.325830   -1.177915
H      1.255870    0.617669    1.417344
H      0.005271   -1.723968   -0.247065
O     -1.164904   -0.598886    1.115006
H     -2.961750    1.116730   -0.464751
