12

O      0.530013    1.591197    0.820584
C      0.610726    0.369869    0.534911
C     -0.555193   -0.527698    0.635005
C     -1.750786   -0.080076   -0.135947
H     -2.589229    0.142599    0.564150
H     -2.135487   -0.900755   -0.807379
H     -1.553383    0.766386   -0.833367
H     -0.278950   -1.553424    0.318585
H     -0.800283   -0.580934    1.742233
O      1.865447   -0.085246    0.113224
C      2.868296    0.657913    0.016009
H      3.788829    0.200168   -0.320237
