10

O      2.218011    0.123127   -0.500073
C      1.407391   -0.415558    0.461176
C      0.097156   -0.240081    0.371561
N     -0.602910    0.468376   -0.641871
C     -1.982772    0.362601   -0.279877
H     -2.860171    0.741879   -0.751107
C     -1.992882   -0.335842    0.818626
O     -0.894466   -0.708600    1.248261
H      1.871699   -0.966833    1.261183
H      2.738945    0.970930   -0.262060
