14

O      2.178779   -0.579363   -0.385370
C      1.288748    0.452913   -0.095221
C     -0.117171    0.005819   -0.334176
N     -0.480687   -1.134291    0.491245
C     -1.845708   -1.547796    0.241529
H     -2.125583   -1.443776   -0.816246
H     -0.325031   -0.852585    1.473072
C     -1.022053    1.160650   -0.042965
O     -1.888237    1.035241    0.779511
H     -0.894055    2.085054   -0.564678
H     -0.239414   -0.319349   -1.389876
H      1.486351    1.318365   -0.754302
H      1.402880    0.797649    0.959645
H      2.581180   -0.978531    0.437832
