15

C     -0.397032    1.445985    0.093672
C     -0.152956    0.000610   -0.603147
C     -1.230183   -0.831149   -0.173096
H     -2.041521   -0.328998    0.433357
H     -1.665851   -1.471270   -0.987105
C     -0.333939   -1.533321    0.750729
H     -0.492836   -2.346095    1.483978
C      0.693979   -0.825246    0.361861
C      1.736995    0.069909   -0.219644
H      1.721689    1.059279    0.241687
H      2.684816   -0.386674   -0.492643
O      0.849958    0.088546   -1.389543
H     -0.085109    1.340483    1.117890
H      0.181787    2.122647   -0.524841
H     -1.469798    1.595293   -0.093154
