13

C     -2.129010    0.468715    0.449071
C     -1.159001   -0.670382    0.678670
C     -0.023823   -0.570130   -0.313339
N      1.181513   -0.172354    0.373587
C      2.434370    0.014032   -0.268882
O      2.488934   -0.184058   -1.528693
H      3.338989    0.312108    0.243915
H      1.134456   -0.011851    1.398347
H     -0.232562    0.197393   -1.106295
H      0.074969   -1.570868   -0.784928
H     -1.865770    1.311745    1.114927
H     -3.150367    0.080157    0.636078
H     -2.092699    0.795495   -0.607973
