14

C      2.369052   -0.218288    0.127482
C      1.070567   -0.064189   -0.048495
N      0.417625    1.107934   -0.358177
H      0.957523    2.033864   -0.331758
O     -0.873617    1.208306   -0.706334
C     -1.649363    0.418382    0.198776
H     -1.274950    0.661904    1.189364
H     -2.698701    0.525185   -0.002415
C     -1.144312   -1.016907   -0.099474
H     -1.679116   -1.690729    0.658827
H     -1.540136   -1.277864   -1.101028
O      0.199100   -1.184298    0.080893
H      2.849275   -1.148781    0.368735
H      2.997053    0.645481    0.023602
