11

O      1.117388   -1.030209   -1.659004
C      0.819504   -0.385022   -0.641913
C     -0.303109   -0.320311    0.296303
O     -1.034615   -1.372363    0.743229
C     -1.657634   -0.217356    0.012778
H     -2.032173   -0.475425   -1.004720
H     -2.350478    0.374261    0.675875
O      0.315654    0.608650    1.072813
C      1.368168    0.661077    0.229110
H      1.366158    1.677389   -0.358139
H      2.391139    0.479311    0.633669
