8

N     -1.195360    0.046284    0.407870
C      0.110064   -0.473112    0.277609
C      1.098849    0.265083   -0.150673
H      0.999371    1.301751   -0.431176
H      2.083737   -0.161126   -0.238986
H      0.276422   -1.504788    0.542213
H     -1.323149    1.054295    0.606272
H     -2.049933   -0.528387    0.315705
