13

C      1.684165   -0.182047   -0.120658
C      0.297763   -0.453818    0.418465
H      0.310823   -0.913321    1.439606
C     -0.644780    0.698860    0.377018
H     -0.253941    1.587712   -0.200147
H     -1.080632    0.997739    1.360828
C     -1.549242   -0.088733   -0.501191
H     -2.481842   -0.339004    0.064180
H     -1.752691    0.344803   -1.508732
C     -0.607648   -1.233199   -0.456796
H      2.307471   -1.060025    0.158312
H      2.092063    0.677140    0.450753
H      1.678490   -0.036107   -1.197151
