16

O      3.045607   -0.594302    0.054462
C      1.859014    0.104158    0.154191
C      0.764670   -0.461045   -0.730866
C     -0.558961   -0.064644   -0.059370
C     -0.807537   -0.554542    1.329235
H     -0.373811    0.194685    2.033436
H     -0.296081   -1.525380    1.453658
H     -1.870873   -0.690108    1.568198
C     -1.003845    1.325103   -0.459233
H     -1.486034    1.913124    0.347004
H     -0.407991    1.923231   -1.150575
N     -1.629618    0.145319   -0.986245
H     -2.615444   -0.087392   -0.743098
H      0.802656   -0.093662   -1.759712
H      0.854131   -1.577476   -0.749274
H      3.724118    0.042933   -0.301811
