13

N     -1.209649    1.414845    0.094676
C     -0.407305    0.253716    0.052075
C      0.906935    0.129260    0.168906
O      1.806321    1.166734    0.366719
H      2.183709    1.748217   -0.350003
C      1.298457   -1.271865    0.060510
H      2.284479   -1.713297    0.111610
C      0.163823   -1.944090   -0.122195
N     -0.947279   -1.054018   -0.138574
H     -1.632221   -1.317431    0.600988
H     -1.428572   -1.111172   -1.076998
H     -1.603638    1.827990   -0.766468
H     -1.415061    1.871112    0.998754
