11

N      2.478348    0.355039    0.294491
C      1.202048    0.290979    0.166156
C      0.216985    1.371672    0.230792
C     -1.139538    0.674438    0.010429
H     -1.526937    1.155736   -0.900392
H     -1.771368    0.867210    0.887878
C     -0.756877   -0.723217   -0.188283
H     -1.230453   -1.356652    0.638310
H     -1.088150   -1.173860   -1.171915
O      0.578452   -0.936460   -0.073503
H      3.037491   -0.524885    0.201867
