20

C      2.325650    0.114938   -0.338951
C      0.979866    0.361807    0.253431
N     -0.143870    0.729540   -0.557860
C     -0.991720    1.829137   -0.108213
H     -0.519343    2.355986    0.741415
H     -2.028706    1.486969    0.113412
H     -1.082609    2.567152   -0.934186
H     -0.016389    0.659973   -1.601113
C     -0.146492   -0.488589    0.226325
C     -0.298065   -1.740174   -0.610065
H      0.019614   -1.613825   -1.649478
H      0.160889   -2.600433   -0.096965
H     -1.402315   -1.953729   -0.643662
C     -1.073620   -0.503107    1.449839
H     -2.117257   -0.359661    1.081688
H     -0.925640   -1.450790    1.986629
H     -0.858541    0.363686    2.100240
H      3.035203    0.845898    0.128952
H      2.382270    0.311519   -1.432808
H      2.701075   -0.916297   -0.108630
