11

N      2.079223    0.255579    0.122340
C      0.744200   -0.066884    0.487813
O      0.569845   -0.504285    1.658051
C     -0.346793    0.107386   -0.456736
C     -1.740666   -0.222400   -0.094605
H     -1.985631    0.217631    0.912446
H     -2.457874    0.252788   -0.799755
H     -1.936885   -1.322987   -0.113220
O     -0.062019    0.549892   -1.596064
H      2.750049   -0.522964   -0.149884
H      2.386551    1.256245    0.125443
