12

C     -1.574778   -0.287145   -0.006456
C     -0.391794    0.590044   -0.316570
C      0.784369    0.281531    0.521854
C      1.945665   -0.400244   -0.011209
C      3.003633   -0.682437    0.726275
H      1.966389   -0.696658   -1.047566
O      0.794683    0.610706    1.726347
H     -0.665933    1.686610   -0.268232
H     -0.145384    0.429332   -1.404478
H     -1.680770   -0.554382    1.041207
H     -2.480390    0.254712   -0.337457
H     -1.555692   -1.232069   -0.623717
