15

O      1.745446    0.705845    0.752278
C      1.211639   -0.569973    0.581834
C      0.335720   -0.610992   -0.655534
C     -0.811888    0.365577   -0.556835
O     -0.393548    1.666772   -0.414758
H     -1.145866    2.278434   -0.618256
C     -1.674105   -0.077918    0.572468
O     -2.132581   -1.188220    0.617152
H     -1.890142    0.634005    1.378557
H     -1.414232    0.230267   -1.491692
H     -0.064674   -1.628456   -0.766113
H      0.965569   -0.407475   -1.546016
H      0.640745   -0.860408    1.473117
H      2.054611   -1.277340    0.467630
H      2.573305    0.739880    0.206167
