10

O      2.158779    1.042530   -0.079502
C      1.052822    0.456094   -0.033143
C      0.916467   -0.992476    0.023705
H      1.694511   -1.745916    0.034393
N     -0.346619   -1.304426    0.063360
C     -1.181419   -0.122045    0.037994
H     -1.794827   -0.131185    0.938895
H     -1.789523   -0.199125   -0.904497
N     -0.262506    0.989301   -0.023728
H     -0.447686    2.007249   -0.057478
