16

C      2.255976   -0.646440    0.515211
O      1.577338    0.367791   -0.194463
C      0.193784    0.411395   -0.230362
C     -0.451998   -0.708670    0.047466
C     -1.926613   -0.708227    0.021098
H     -2.321288   -0.733552   -1.006779
H     -2.315422   -1.600033    0.553495
H     -2.377923    0.165864    0.539705
H      0.048038   -1.632247    0.294589
C     -0.448369    1.687711   -0.571554
H     -1.455276    1.828416   -0.189737
H      0.179882    2.501758   -0.109016
H     -0.368017    1.824538   -1.666885
H      3.362900   -0.440633    0.413945
H      1.986140   -0.683342    1.580647
H      2.060848   -1.634329    0.002642
