16

N      1.475701    0.805412   -0.176275
H      2.514014    1.042539    0.114861
C      0.797092    2.070099   -0.264630
O     -0.506007    2.038436   -0.100788
C     -1.305911    0.929110    0.138784
H     -1.702967    1.141995    1.215241
H     -2.285213    1.165872   -0.448099
C     -0.996030   -0.418129    0.001876
H     -1.877901   -1.088842    0.376980
H     -1.026943   -0.759684   -1.115959
C      0.178509   -1.239115    0.529399
H      0.375195   -1.080553    1.582700
H      0.045557   -2.261169    0.213044
C      1.243095   -0.498255   -0.342650
H      0.888267   -0.679011   -1.438414
H      2.183541   -1.168704   -0.286070
