9

C     -1.141104    0.131905   -0.584307
H     -1.795612    0.511434   -1.355349
C     -0.980504   -0.052453    0.801066
H     -1.409959    0.083099    1.783021
C      0.084252   -0.505045   -0.105708
C      1.355608    0.232576   -0.098718
O      1.413326    1.456889    0.072571
H      2.293338   -0.258221   -0.242133
H      0.180655   -1.600184   -0.270444
