19

C      2.065533   -0.719135   -0.065765
C      0.618640   -0.561302    0.348770
H      0.450335   -0.795443    1.396077
C      0.263389    0.981903    0.162110
H      0.758827    1.528391    0.956433
H      0.652549    1.235977   -0.824909
C     -1.265110    1.495419    0.077679
H     -1.117884    2.546504    0.300031
H     -1.600620    1.333853   -0.926449
O     -1.610884    0.772847    1.116680
C     -1.496181   -0.469398    0.312054
H     -1.462508   -1.229995    1.091718
H     -2.366998   -0.559960   -0.324036
C     -0.300431   -0.894153   -0.664998
H     -0.445706   -1.966639   -0.846477
H     -0.435178   -0.307543   -1.565366
H      2.428518    0.140346   -0.663321
H      2.684339   -0.914744    0.834909
H      2.179371   -1.616926   -0.715142
