15

C     -1.498356   -0.332469   -0.767501
C     -0.637189   -0.133726    0.455711
N      0.758305   -0.113123    0.094447
C      1.769130    0.062619    1.080508
H      2.364830   -0.763220    1.383360
H      1.928038    1.026107    1.515725
C      1.112342   -0.252916   -1.121717
H      0.388073   -0.389769   -1.912450
H      2.156496   -0.237701   -1.393591
C     -0.973939    1.120420    1.090042
N     -1.261973    2.117220    1.592206
H     -0.861114   -0.950440    1.173827
H     -1.375974    0.511949   -1.477423
H     -2.563178   -0.363850   -0.444982
H     -1.305490   -1.301101   -1.268160
