18

C      2.980374    0.527178   -0.089354
C      1.482745    0.702598    0.056318
C      0.854762   -0.653757    0.202756
C     -0.472697   -0.655287   -0.541466
C     -1.421060    0.385320    0.010004
C     -2.698100    0.291721   -0.801869
H     -3.608960    0.376926   -0.168575
H     -2.745728    1.161521   -1.517108
H     -2.783463   -0.675680   -1.344619
H     -1.701605    0.076141    1.056951
H     -1.001084    1.394224   -0.029844
H     -0.952577   -1.635343   -0.549991
H     -0.228741   -0.396498   -1.599499
H      1.505357   -1.375389   -0.333741
H      0.746011   -0.977908    1.249590
H      3.212647   -0.354313   -0.727974
H      3.431744    1.409086   -0.591175
H      3.400376    0.399458    0.926005
