18

C      2.708309   -0.479169   -0.786718
O      1.379386   -0.890356   -0.803606
C      0.748947   -0.385761    0.290480
C      0.055227    0.902166    0.218046
H      0.425466    1.726840    0.881656
H     -0.027342    1.274961   -0.860471
N     -1.149803    0.294812    0.639045
C     -2.290755    0.452315   -0.242158
H     -3.065026   -0.264494    0.093170
H     -2.608745    1.512033   -0.156825
H     -1.958949    0.269307   -1.279453
H     -1.418473    0.664613    1.613621
C     -0.537743   -0.946704    0.723035
H     -0.897516   -1.664607   -0.097637
H     -0.539475   -1.470315    1.717456
H      3.379859   -1.312976   -0.580618
H      2.892854    0.298729    0.007326
H      2.903780    0.018606   -1.776235
