12

C     -2.144733    0.224411   -0.335253
C     -1.317520   -0.221283    0.580383
N      0.004675    0.260170    0.669533
C      1.171731   -0.508555    0.309636
H      1.110866   -1.621766    0.434014
C      2.460014    0.140936    0.462869
H      3.402998    0.612027    0.614627
N      1.842940   -0.031559   -0.881890
H      0.116706    1.238536    1.021522
H     -1.649370   -0.964892    1.274976
H     -3.161554   -0.114790   -0.439559
H     -1.836753    0.986765   -1.063088
