12

N      2.228635   -0.241078    0.052715
C      0.803982   -0.152982    0.048165
C     -0.050510   -1.131380    0.382022
N     -1.392830   -0.700792    0.264295
H     -1.846206   -1.258815   -0.484983
H     -1.936969   -0.808307    1.162835
C     -1.346333    0.639394   -0.173934
O     -2.369951    1.358540   -0.391273
N      0.017882    0.975272   -0.306745
H      0.372723    1.918555   -0.620664
H      2.854474    0.383349    0.595521
H      2.665103   -0.981758   -0.527955
