17

C      2.475611    0.054131    0.444406
C      1.210238    0.811432    0.791786
C      0.122134    0.384886   -0.142602
H      0.552118    0.303002   -1.209344
C     -0.528573   -0.924373    0.220301
H      0.004431   -1.798227   -0.135365
H     -0.642559   -0.891547    1.328613
C     -1.896463   -0.758108   -0.458155
H     -2.663433   -1.241806    0.149629
H     -1.807465   -1.180991   -1.507649
O     -2.128815    0.577792   -0.487274
C     -1.034809    1.325309   -0.165812
H     -1.200103    1.675827    0.898919
H     -0.919167    2.199651   -0.835188
H      3.245876    0.680454    0.002534
H      2.912393   -0.418925    1.358096
H      2.298585   -0.798507   -0.252895
