14

C     -1.668733    0.722738   -0.218600
H     -1.741344    0.764067   -1.313186
C     -0.932475   -0.373852    0.473611
H     -1.520621   -0.911621    1.255718
C     -0.121606   -1.267892   -0.387703
H     -0.311136   -1.261873   -1.439280
H     -0.295134   -2.407434   -0.048095
O      1.270707   -1.114169   -0.107900
C      1.750154    0.055133    0.040347
H      2.766069    0.209611    0.234061
N      0.812442    1.137736   -0.043289
H      1.120659    2.020923   -0.551208
C     -0.483005    0.942674    0.557442
H     -0.645975    1.483957    1.548080
