14

C     -2.246764   -0.339047    0.055834
N     -0.970118   -0.506202   -0.597641
C      0.198379    0.208344   -0.271019
N      1.440553   -0.479441   -0.260816
C      2.492174   -0.017184    0.587587
H      2.317268    0.827756    1.272323
H      3.468568   -0.442234    0.610103
H      1.647312   -1.321799   -0.844359
C      0.205522    1.476312    0.025220
N      0.110877    2.742501    0.198067
H     -0.925060   -1.211703   -1.366452
H     -2.183920    0.142954    1.040582
H     -2.878236    0.274885   -0.645902
H     -2.676552   -1.355144    0.196471
