15

C     -0.270112   -1.841198   -0.504716
C     -0.235367   -0.459069   -0.000217
C     -1.243093    0.581100   -0.256564
N     -0.843751    1.797416    0.415132
H     -1.248752    1.925976    1.345015
H     -0.871519    2.630024   -0.199777
H     -2.253295    0.261496    0.136186
H     -1.347629    0.820575   -1.341185
C      0.803198   -0.125750    0.748791
N      1.947239    0.250391    1.206187
O      2.841970    0.749145    0.265818
H      3.559818    0.068944   -0.024445
H      0.680705   -2.150581   -0.989553
H     -1.129317   -1.995116   -1.192668
H     -0.390093   -2.513353    0.391997
