16

C      2.718915    0.058362    0.444037
C      1.316194   -0.387868    0.273667
N      0.455923    0.041737   -0.766888
C     -0.907303   -0.434930   -0.875215
C     -1.676393   -0.081559    0.337778
C     -2.758685    0.678264    0.303032
H     -3.283732    0.906066    1.220243
H     -3.079928    1.048395   -0.666462
H     -1.339850   -0.460260    1.293447
H     -0.951402   -1.528874   -1.083409
H     -1.386078    0.084940   -1.741508
H      0.854951    0.720723   -1.453257
O      0.869887   -1.200436    1.112025
H      3.172690    0.356353   -0.524146
H      2.688924    0.927530    1.165534
H      3.305887   -0.728443    0.961121
