15

C      0.071004    1.458444   -0.094178
C      0.128288   -0.008177   -0.460377
C     -1.032755   -0.744636    0.165949
O     -2.255866   -0.187872   -0.200948
H     -2.977489   -0.883927   -0.259744
H     -1.036186   -1.807660   -0.066909
H     -0.936160   -0.637666    1.263144
N      1.394821   -0.521629   -0.129105
C      1.787612   -0.455759    1.225202
H      2.662797   -1.121962    1.386166
H      2.122335   -0.514351   -0.837861
H     -0.012506   -0.082384   -1.564482
H      1.098453    1.891575    0.018644
H     -0.492752    2.049322   -0.848706
H     -0.521597    1.566682    0.856305
