17

C      1.800174    0.769553   -0.341402
C      0.872004   -0.360183    0.048769
O      1.224126   -0.712027    1.369937
H      0.924966   -1.635704    1.582922
C     -0.567348    0.074800    0.093048
C     -1.528143   -1.025276    0.479189
H     -1.044008   -1.816678    1.071934
H     -2.348548   -0.584839    1.054000
H     -1.950970   -1.489004   -0.444610
C     -0.798730    1.468794    0.558507
C     -1.107607    1.082805   -0.842219
H     -2.179097    1.064409   -1.100329
H     -0.467152    1.404809   -1.687081
H      1.029824   -1.264195   -0.574076
H      1.662432    1.568297    0.416815
H      2.837178    0.335987   -0.307376
H      1.640901    1.118451   -1.378028
