11

C      0.470693   -0.696345   -0.492794
H      1.002928   -1.636429   -0.402350
H      0.084780   -0.462626   -1.546839
C     -0.745059   -0.515464    0.382430
H     -0.428354   -0.575416    1.442955
H     -1.611804   -1.109008    0.093964
C     -0.929983    0.993932    0.261363
H     -1.785599    1.478807    0.170679
C      0.354002    1.315879    0.364237
C      1.285699    0.544125   -0.100615
H      2.302698    0.662545   -0.173030
