11

N      0.820246    1.415856   -1.448833
C      0.331583    0.547417   -0.571851
C      0.014576    0.815016    0.833711
H     -0.815993    1.577761    0.805842
H      0.889703    1.239648    1.391055
C     -0.497585   -0.443706    1.401919
C     -0.464031   -1.426384    0.292262
H      0.197912   -2.302869    0.512488
H     -1.520248   -1.764736    0.145259
O      0.037819   -0.761867   -0.837247
H      1.006019    1.103864   -2.428777
