12

C      1.699634   -1.040394   -0.051031
N      0.740926   -0.492824   -0.681657
C     -0.207692    0.392689   -0.161719
N      0.047526    1.791079   -0.221938
H     -0.009285    2.392625    0.642735
H      0.299972    2.287516   -1.108501
C     -1.328642   -0.053293    0.380031
O     -1.632828   -1.403292    0.467223
H     -1.863630   -1.904172   -0.395254
H     -2.035755    0.656617    0.770021
H      2.347567   -1.710068   -0.622001
H      1.942206   -0.916482    0.982093
