16

C      2.083822    0.554494   -0.881125
C      0.619174    0.369917   -0.580846
C      0.291775   -0.367184    0.456885
O      1.288558   -0.938422    1.224583
H      1.310685   -0.820971    2.217953
C     -1.164194   -0.573859    0.787646
C     -2.041895    0.152235   -0.200486
H     -1.847052   -0.255065   -1.209839
H     -3.099550   -0.059214    0.043862
H     -1.859984    1.235064   -0.214769
H     -1.297854   -0.174693    1.815564
H     -1.422507   -1.652881    0.757670
H     -0.126320    0.839110   -1.213480
H      2.681793   -0.274191   -0.468649
H      2.148275    0.440194   -2.003583
H      2.435275    1.525464   -0.531385
