15

C      1.838338    0.721715    0.219186
C      1.130804   -0.141695   -0.797140
O     -0.228685   -0.222490   -0.602584
C     -0.606338   -0.745899    0.610217
N     -2.042257   -0.760360    0.651057
C     -2.701835    0.079915   -0.033331
H     -3.779114    0.094386   -0.023710
H     -2.189847    0.801066   -0.642379
H     -0.281397   -0.091645    1.465323
H     -0.208603   -1.745727    0.822420
H      1.286273    0.353399   -1.789964
H      1.618731   -1.134795   -0.887682
H      1.153173    1.240900    0.893766
H      2.503025    1.478573   -0.259752
H      2.507729    0.072656    0.827673
