12

C     -1.504645   -0.419636    0.547870
C     -0.214088    0.094539    0.041385
C      0.324340    1.375518   -0.371974
H     -0.190175    1.873962   -1.234174
H      0.490027    2.110876    0.482383
O      1.528550    0.771330   -0.639240
C      1.061946   -0.437636   -0.262243
C      1.534579   -1.697467   -0.173324
H      2.569978   -1.902379   -0.462691
H     -1.809393    0.047737    1.509131
H     -1.457421   -1.529024    0.737616
H     -2.333698   -0.287820   -0.174740
