11

N      2.232787    0.014814    0.211825
C      0.817434    0.122559    0.101115
N      0.050103    1.130367    0.206630
C     -1.311812    0.775143    0.020085
O     -2.337531    1.500488    0.052711
N     -1.346242   -0.615815   -0.225596
H     -1.718635   -0.862607   -1.163775
H     -1.900205   -1.044074    0.560561
N     -0.018354   -0.987099   -0.168840
H      2.852449    0.837599   -0.032229
H      2.680006   -0.871376    0.533343
