8

O      1.568814    0.292616    1.052168
C      1.220361    0.066042   -0.087276
C     -0.205940   -0.176273   -0.429369
H     -0.434870   -0.372809   -1.478625
C     -1.245294    0.255120    0.440163
H     -1.927632    0.954880    0.909073
N     -0.933110   -1.058014    0.468645
H      1.957670    0.038439   -0.874779
