16

C     -0.732103    1.377536    0.272472
C     -0.311933   -0.082560    0.258826
C      0.841361   -0.190292   -0.717367
C      1.940413    0.729363   -0.177898
O      2.945861    0.010979    0.449092
H      2.653291   -0.911803    0.647801
H      0.496113    0.299477   -1.660726
H      1.194779   -1.214093   -0.857414
C     -1.431658   -1.015106   -0.040514
H     -1.834009   -1.480436    0.906768
H     -1.150626   -1.875537   -0.680673
H     -2.284025   -0.502576   -0.506556
H      0.114072   -0.384995    1.260194
H     -1.846348    1.482883    0.358408
H     -0.389832    1.903022   -0.637675
H     -0.205355    1.854139    1.125263
