13

O      1.451615    0.967578    0.908148
C      1.486408   -0.283863    0.324002
H      2.483421   -0.755904    0.339083
C      0.485293   -0.797324   -0.557149
C     -0.790243   -0.137196   -0.903015
H     -1.252272   -0.432430   -1.888532
C     -1.717867    0.151991    0.221614
H     -2.389697   -0.220444    1.002379
C     -1.132301    1.198197   -0.417064
H     -1.045519    2.274557   -0.458304
H      0.793093   -1.626679   -1.250653
O      0.510578   -1.237651    0.850671
H      1.117491    0.899166    1.828819
