16

C      2.184738   -0.787612   -0.081671
C      1.117862    0.090098   -0.696918
C     -0.137939    0.107197    0.169374
C     -0.397579    1.563343    0.497368
H      0.474016    2.018012    0.987943
H     -1.273507    1.658795    1.144944
H     -0.564614    2.136550   -0.442968
C     -1.264388   -0.414858   -0.698547
O     -2.442089   -0.415203    0.063724
H     -2.599590   -1.338550    0.408340
H     -1.350113    0.282587   -1.561751
H     -1.024766   -1.430161   -1.075224
H     -0.007847   -0.438776    1.100522
H      3.189920   -0.393108   -0.334048
H      2.062670   -1.795473   -0.499981
H      2.033227   -0.842841    1.018892
