13

C      1.810770   -0.323091   -0.156243
C      0.414182    0.055882   -0.123211
C     -0.579961   -0.841366    0.106045
H     -0.376240   -1.893113    0.271116
C     -1.885843   -0.119112    0.145948
H     -1.993853   -0.060660    1.388564
H     -2.763198   -0.608462   -0.229432
C     -1.538718    1.283209   -0.199482
N     -0.118610    1.363772   -0.312705
H      0.412353    2.225236   -0.512568
H      2.161729   -1.188725    0.492099
H      2.143063   -0.494927   -1.175178
H      2.314327    0.601357    0.305047
