14

C     -1.705401    0.517368   -0.348452
C     -0.450603   -0.353568   -0.198876
O      0.275982    0.175015    0.835757
C      1.545639    0.568932    0.519064
C      2.394115   -0.499295    0.014858
N      3.039210   -1.342101   -0.381530
H      2.017678    0.976359    1.438630
H      1.492734    1.362958   -0.252447
O     -0.882237   -1.643430    0.158225
H     -1.802377   -1.610239    0.524769
H      0.072112   -0.399195   -1.163004
H     -2.239745    0.247756   -1.271150
H     -2.353273    0.412156    0.544025
H     -1.403834    1.587285   -0.419870
