16

N      1.967301    1.750680   -1.637190
C      1.815393    0.619818   -1.348786
C      1.602258   -0.784063   -0.997849
C      0.721131   -0.820348    0.220039
C     -0.615310   -0.167780   -0.015152
C     -1.443422   -0.237679    1.234939
O     -2.683395    0.335909    1.110344
H     -2.907714    0.637208    0.209923
H     -1.596206   -1.318675    1.463915
H     -0.826050    0.227633    2.051581
H     -1.105022   -0.713027   -0.863367
H     -0.479369    0.876738   -0.371514
H      1.264174   -0.391514    1.071071
H      0.547349   -1.902212    0.456488
H      1.163190   -1.325672   -1.852368
H      2.575690   -1.244141   -0.732075
