14

C      2.699732    0.260682    0.311532
C      1.419373    0.372809   -0.480025
O      0.472947   -0.264608    0.001958
C     -0.753840   -0.260545   -0.603385
H     -0.701991   -0.455477   -1.691911
C     -1.843977    0.625347   -0.055801
H     -2.466585    1.121704   -0.830326
H     -1.617942    1.307145    0.800746
C     -1.880164   -0.815559    0.207688
H     -1.700684   -1.149734    1.244568
H     -2.540731   -1.512864   -0.357788
H      2.931212   -0.804565    0.362771
H      2.478141    0.712627    1.292923
H      3.504509    0.863037   -0.202950
