15

O      3.037644   -0.260195    0.777562
C      2.026213   -0.317715    0.052180
C      0.697406   -0.002237    0.492567
H      0.676723    0.116300    1.590699
C     -0.291843   -0.989660    0.096843
H     -0.000103   -1.391097   -0.890600
H     -0.409292   -1.838010    0.784129
C     -1.611108   -0.274577   -0.158955
H     -2.148336   -0.221354    0.829817
H     -2.125277   -0.675744   -0.882225
C     -1.115569    1.074062   -0.436484
H     -1.656893    1.893146   -0.974617
C      0.156238    1.275432   -0.085311
H      0.710719    2.228860   -0.198246
H      2.053477   -0.617210   -0.997359
