17

C      1.742120   -0.828501   -0.152809
C      0.556797   -0.059770    0.287394
H      0.435271   -0.163348    1.405735
C      0.615421    1.415116   -0.004756
H      1.364244    1.914722    0.584171
H      0.880867    1.511036   -1.128031
C     -0.824946    1.867924    0.152864
C     -1.689493    0.626781    0.180629
H     -2.550993    0.774749   -0.485332
H     -1.980505    0.403831    1.206806
C     -0.746486   -0.481420   -0.330037
O     -1.141908   -1.749894   -0.011460
H     -2.050586   -1.819188    0.326676
H     -0.710510   -0.317217   -1.431866
H      1.886413   -0.775155   -1.248355
H      1.606016   -1.879104    0.219018
H      2.608275   -0.440563    0.429354
