14

O      1.709881   -0.497507    0.027077
C      2.445086    0.296029   -0.006210
H      2.867444    1.119741    0.326940
C      0.752717   -0.929151    0.817643
C     -0.459972   -0.018469    0.508552
C     -1.780142   -0.648677    0.213032
H     -1.860661   -1.717859   -0.031115
H     -2.708488   -0.090826    0.497560
N     -0.948526    0.110022   -0.814865
C     -0.423671    1.289877   -0.018628
H     -1.272702    1.978151    0.263607
H      0.330036    1.817136   -0.618134
H      0.422835   -1.944599    0.608970
H      0.926164   -0.763867    1.926885
