15

C      2.097818    0.710743    0.055618
O      1.681761   -0.473937   -0.477097
C      0.361305   -0.573719   -0.781231
C     -0.579290   -0.395904    0.375383
N     -1.938924   -0.540668   -0.172062
C     -2.907825   -0.377693    0.907238
H     -2.666871    0.504354    1.529561
H     -2.129614    0.239478   -0.842036
H     -0.535868    0.588944    0.849144
H     -0.489463   -1.210723    1.123405
H      0.131873    0.100041   -1.628911
H      0.184021   -1.611571   -1.175832
H      1.933431    1.593710   -0.585549
H      3.206396    0.625331    0.211616
H      1.651251    0.821614    1.063851
