16

C      2.700497    0.419238   -0.253843
C      1.512464    0.728844   -1.032903
C      0.514604   -0.125660   -0.945746
C     -0.440112   -0.985050   -0.714418
C     -1.311558   -0.680522    0.418789
C     -2.414798    0.244302   -0.103559
H     -2.570401    0.069681   -1.184391
H     -3.365145    0.057451    0.399876
H     -2.034907    1.280604    0.007986
H     -0.758234   -0.125570    1.223030
H     -1.774140   -1.551111    0.891659
H     -0.456858   -1.796015   -1.381921
H      1.302966    1.542413   -1.673413
H      3.272827   -0.388731   -0.793931
H      2.483642   -0.002526    0.755720
H      3.339152    1.312652   -0.070056
