14

C     -1.410120    0.883619    0.512654
C     -0.727608   -0.347086   -0.066712
H     -1.509169   -1.103278   -0.328743
O      0.174962   -0.060754   -1.050636
C      1.206549   -0.515480   -0.317143
C      2.305644    0.487576   -0.003203
H      1.856166    1.472370    0.203972
H      1.698339   -1.401833   -0.791248
C      0.341413   -0.870960    0.819010
H      0.266289   -1.953413    1.075667
H      0.500101   -0.216244    1.704526
H     -2.468328    0.914275    0.216644
H     -0.897428    1.795911    0.119010
H     -1.336810    0.915295    1.607514
