14

C     -1.730185   -0.542253    0.055589
C     -0.347075   -0.377151    0.630813
H     -0.380963   -0.354859    1.760630
C      0.562489   -1.465912    0.283578
C      1.622960   -0.983502   -0.312215
H      2.488356   -1.562297   -0.692410
N      1.556622    0.428715   -0.432160
H      2.303729    1.042380   -0.881736
C      0.334165    0.835866    0.149644
O     -0.102957    2.130037    0.232486
H      0.046352    2.589196   -0.651706
H     -2.115007    0.400685   -0.347574
H     -2.419321   -0.820470    0.901443
H     -1.819166   -1.320435   -0.696381
