15

C      3.013355    1.108400   -0.320095
N      2.036230    0.259589    0.315364
N      1.281133   -0.539109   -0.274965
C      0.324053   -1.377526    0.294391
C     -0.923335   -1.136246   -0.065780
C     -2.129179   -0.764364   -0.375802
C     -2.757084    0.246703    0.491339
H     -2.482290    1.253313    0.067539
H     -3.873912    0.204440    0.453870
H     -2.364315    0.239308    1.524001
H     -2.539270   -1.220597   -1.216846
H      0.415916   -2.179137    0.970022
H      2.875510    1.189967   -1.409992
H      4.014364    0.611969   -0.156438
H      3.108825    2.103290    0.156489
