12

C     -1.665677    0.165693   -0.352429
C     -0.502849    0.075129    0.569976
H     -0.341183    0.958477    1.207386
O      0.017706   -1.115379    0.988486
C      0.737876   -0.565318   -0.068432
C      1.989023    0.145285    0.177780
O      2.876470    0.126278   -0.648260
H      2.155757    0.697898    1.086654
H      0.594815   -1.126930   -1.016021
H     -2.118969   -0.814366   -0.595276
H     -1.291673    0.572437   -1.332808
H     -2.451297    0.880796   -0.017055
