13

C      1.242123    0.245047   -0.461139
C      1.641418   -1.116044    0.019149
H      2.046516   -1.066484    1.055159
C     -0.219322    0.510519   -0.427094
H     -0.543095    1.294997   -1.169531
C     -1.025430    0.468463    0.804679
H     -0.611886    0.171288    1.784880
H     -1.933507    1.091232    0.882207
C     -1.172465   -0.664105   -0.220683
H     -2.058780   -0.662409   -0.876451
H     -0.738337   -1.643796    0.050826
H      1.588190    0.323170   -1.528704
H      1.784573    1.048121    0.086703
