8

N     -0.777538   -0.832985   -0.060493
C      0.276388    0.106238   -0.156797
O      0.125188    1.441221    0.035613
H     -0.798183    1.767930   -0.196303
N      1.559914   -0.402304   -0.474858
H      2.117826   -0.409506    0.402641
H     -1.654314   -0.507771   -0.473092
H     -0.849280   -1.162822    0.923288
