10

O     -1.491782    0.778091    0.273122
C     -0.535084   -0.016298    0.340762
C      0.633795    0.204923   -0.544766
N      0.470650    1.322820   -1.354389
C      0.337816    2.254631   -2.052858
H      1.551163    0.260272    0.092799
H      0.771931   -0.680332   -1.185592
N     -0.573962   -1.101527    1.245843
H      0.200253   -1.224139    1.955367
H     -1.364780   -1.798442    1.229713
