15

C     -2.726342    0.465167    0.071566
C     -1.902852   -0.534564   -0.262950
C     -0.460562   -0.280988   -0.530034
O      0.347549   -1.018041    0.368440
C      1.728267   -0.970006    0.345544
C      2.413318    0.141515    0.538781
O      1.703980    1.309838    0.774954
H      2.041743    2.174324    0.367171
H      3.513999    0.153485    0.515575
H      2.281710   -1.874613    0.162585
H     -0.255578   -0.561491   -1.594159
H     -0.263555    0.800455   -0.379866
H     -2.295745   -1.547681   -0.340328
H     -2.365570    1.469704    0.154433
H     -3.760362    0.272896    0.261386
