11

O      0.001081    0.446526   -2.034151
C      0.939825   -0.077570   -1.162351
C      0.676379   -0.380132    0.081194
C     -0.667704   -0.178608    0.649570
C     -0.568402    0.753887    1.779870
N     -0.479055    1.509598    2.670886
H     -1.016346   -1.151647    1.105019
H     -1.405032    0.171935   -0.097731
H      1.449292   -0.780716    0.696604
H      1.931450   -0.234563   -1.554165
H     -0.861487   -0.078710   -2.134746
