11

C      3.818727    0.134596    0.965379
C      1.866941    0.037828    0.477760
C      0.531360   -0.005317    0.137209
C     -0.144369    1.044609   -0.355792
H      0.296455    2.028349   -0.533494
N     -1.474177    0.690547   -0.601774
H     -2.200626    1.330931   -0.985653
N     -1.656457   -0.636750   -0.252843
C     -0.409763   -1.133128    0.225623
H     -0.550188   -1.473422    1.273466
H     -0.077904   -2.018243   -0.349880
