13

O      2.342848    0.519921   -0.022496
C      1.029522    0.112402    0.091933
C     -0.119319    0.955958   -0.250934
H     -0.165356    1.353810   -1.268732
H     -0.146441    1.857611    0.447820
C     -1.352642    0.095555    0.020996
H     -1.886218   -0.009704   -0.938072
H     -1.921037    0.576769    0.808628
C     -0.818649   -1.237571    0.466488
H     -1.129683   -1.957700   -0.363838
N      0.613218   -1.134023    0.501154
H      0.957877   -1.426774    1.461134
H      2.595881    0.293746   -0.954081
