14

C      0.699359    0.763406    0.381539
H      1.340803    1.449748   -0.235109
H      0.831298    1.055784    1.354201
C     -0.639906    0.827077   -0.310145
H     -0.737722    1.316613   -1.118941
H     -1.136922    1.465744    0.448259
C     -1.465339   -0.459762   -0.036461
H     -1.776463   -0.638693    0.873888
H     -2.269944   -0.421447   -0.868432
O     -0.699725   -1.494341   -0.535455
C      0.456850   -1.582247   -0.536269
C      1.342963   -0.667042    0.065089
H      1.748940   -1.155004    1.094699
H      2.305808   -0.459837   -0.576864
