11

O      2.554075   -0.046778    0.289605
C      1.517557   -0.650712    0.217858
C      0.223510    0.014254    0.551632
H      0.279917    0.375016    1.618282
C     -0.083598    1.136113   -0.343675
H      0.488790    2.020065   -0.533083
N     -1.211441    0.884458   -0.901170
C     -1.708430   -0.362833   -0.437038
H     -2.662010   -0.793339   -0.772398
N     -0.890269   -0.876712    0.402364
H      1.491899   -1.699534   -0.092375
