13

N      3.089004    0.417560    1.093904
C      2.228652   -0.098583    0.585528
C      1.115159   -0.764102   -0.080320
H      1.532240   -1.503655   -0.850678
C     -0.154531   -0.908625    0.346470
C     -1.479059   -0.311074    0.228329
H     -2.182776   -0.363139    1.057907
H     -1.972947   -0.544983   -0.746331
C     -0.678560    0.980958    0.103173
H     -1.222019    1.741881   -0.459931
H     -0.238706    1.277830    1.067716
N      0.198502    0.147506   -0.707517
H     -0.234958   -0.071577   -1.638252
