12

C     -1.588812    0.046942   -0.033783
C     -0.103885   -0.157439   -0.249151
N      0.634278    0.671392    0.661977
C      2.030081    0.594648    0.585756
O      2.564978   -0.148577   -0.431397
H      1.970631   -0.799465   -0.841119
H      0.199866    0.706684    1.585082
H      0.114871    0.011864   -1.302802
H      0.131267   -1.224858    0.027121
H     -1.756648    0.951350    0.571870
H     -2.063954   -0.851500    0.427491
H     -2.132673    0.198960   -1.001045
