14

C      1.559872   -1.071874   -1.107001
O      0.294777   -0.884726   -0.643844
C     -0.134946    0.067695    0.021149
C      0.688171    1.233935    0.455458
H      0.905181    1.112290    1.524960
H      0.115592    2.195117    0.338544
H      1.606689    1.348358   -0.132025
C     -1.563880    0.082313    0.431894
O     -2.218171   -1.050035   -0.030533
H     -1.750373   -1.841352    0.315581
H     -2.061566    1.000414    0.013761
H     -1.585971    0.124975    1.536126
H      1.679969   -1.256396   -2.184800
H      2.464657   -1.060716   -0.539270
