15

C      2.043112    0.180878    0.486428
C      0.633498    0.127810    0.093007
C     -0.095797    1.006588   -0.585854
H      0.256131    1.951087   -0.963042
C     -1.498392    0.548574   -0.824919
H     -2.232109    1.200944   -0.434600
H     -1.654457    0.324445   -1.931636
C     -1.552165   -0.767684   -0.012979
H     -1.753556   -1.744762   -0.571487
C     -0.262853   -0.938106    0.678676
H      0.106235   -1.792942    1.176430
O     -1.477631   -0.556327    1.278528
H      2.754469    0.455902   -0.379442
H      2.259097    0.849607    1.280529
H      2.474419   -0.846013    0.710361
