15

C     -2.355488    0.255439    0.267589
C     -1.189113    0.021128   -0.666496
C      0.091103   -0.028327    0.133767
O      1.201432   -0.250759   -0.749525
C      2.497839   -0.338966   -0.279249
N      2.782086    0.046971    0.918939
H      3.772311   -0.022921    1.271345
H      3.256025   -0.737034   -0.940426
H      0.221371    0.862075    0.751840
H      0.064704   -0.914836    0.800782
H     -1.121488    0.920264   -1.321143
H     -1.309950   -0.893638   -1.255822
H     -2.223813    1.286275    0.683279
H     -3.312277    0.249058   -0.265694
H     -2.374740   -0.454730    1.103912
