11

C     -1.458847    0.291110   -0.402785
N     -0.683439   -0.250177    0.691599
C      0.601528   -0.790609    0.468309
C      1.526913   -0.244590   -0.268642
N      2.489784    0.395094   -0.802473
H      2.838291    1.222493   -0.232095
H      0.842142   -1.723686    0.941814
H     -1.081030   -0.239014    1.652283
H     -0.832702    0.829405   -1.148934
H     -2.034011   -0.532488   -0.876713
H     -2.208629    1.042463   -0.022362
