15

O      0.642938   -1.066890    0.519068
C      1.145999   -0.027734   -0.149256
C      2.398950    0.098866   -0.638029
H      2.692061    0.973086   -1.149409
H      3.102252   -0.757356   -0.525354
C      0.271076    1.139967   -0.454237
H      0.715692    2.070402   -0.874311
C     -1.007055    1.001796   -0.240829
H     -1.706049    1.778052   -0.432813
C     -1.579613   -0.337978    0.111132
H     -2.569446   -0.267878    0.549592
H     -1.665568   -0.831064   -0.912142
C     -0.655619   -1.077107    0.997288
H     -1.015048   -2.132155    1.156191
H     -0.770570   -0.564008    2.043109
