9

C      0.392372   -0.449617   -0.520661
C     -0.933940    0.236818   -0.221464
H     -1.659410   -0.448114    0.248625
H     -0.776147    1.098608    0.479829
H     -1.334398    0.708172   -1.156183
O      1.458506    0.215391    0.056492
H      2.020521    0.660497   -0.603097
H      0.352445   -1.460632   -0.035988
H      0.480050   -0.561123   -1.613211
