19

C     -2.975994   -0.114456   -0.217553
C     -1.618105    0.114851    0.363790
C     -0.509165   -0.361370   -0.550034
C      0.818872   -0.081312    0.135344
C      1.985014   -0.522744   -0.701440
C      3.073086    0.503080   -0.618197
H      3.377007    0.718716    0.441368
H      3.962607    0.199159   -1.229630
H      2.675042    1.460669   -1.018939
O      0.825131   -0.681654    1.379020
H      1.697299   -1.144272    1.484855
H      0.877331    1.014362    0.260753
H     -0.558280    0.114450   -1.546414
H     -0.587693   -1.456514   -0.705511
H     -1.461138    1.182105    0.614536
H     -1.513100   -0.439659    1.325335
H     -2.958666   -0.705221   -1.155558
H     -3.469670    0.848045   -0.457480
H     -3.639577   -0.648232    0.491867
