11

C     -1.057712    2.148022   -0.236959
C     -0.498314    1.077380   -0.089383
C      0.195007   -0.200865    0.100378
N      1.528492   -0.351937   -0.420024
N      2.444637    0.537930    0.097298
H      1.480935   -0.361562   -1.469073
C     -0.667290   -1.399619   -0.138680
H     -1.197657   -2.045615   -0.826275
C     -0.308376   -1.102177    1.153713
H     -0.382902   -1.385539    2.197140
H     -1.536821    3.083982   -0.368134
