13

C     -1.128503   -0.578136   -0.620089
H     -0.660342   -1.450521   -1.113446
H     -2.167705   -0.402722   -0.964751
C     -0.360737    0.597355   -0.173322
C      1.124726    0.659000   -0.188836
O      1.661647   -0.345722    0.613557
H      2.294926   -0.883506    0.056876
H      1.422620    1.669668    0.218156
H      1.560080    0.631428   -1.213533
H     -0.874680    1.582433   -0.266243
C     -0.935087   -0.398598    0.844130
H     -1.698705    0.031544    1.493709
H     -0.238240   -1.112223    1.313791
