15

O     -1.097731   -0.235939    1.455946
C     -0.971990   -0.249398    0.085053
C      0.395437   -0.603798   -0.494915
C      1.349120    0.405739    0.016107
C      2.391723    0.056852    0.746514
H      2.608735   -0.964880    1.010756
H      3.075741    0.816131    1.108853
H      1.167574    1.439020   -0.226086
H      0.332357   -0.480704   -1.611382
H      0.684696   -1.634297   -0.273252
C     -2.175011   -0.505389   -0.767877
H     -2.838245   -1.282825   -1.134585
C     -1.755695    0.760801   -0.662057
H     -1.986646    1.765482   -0.997241
H     -1.180067    0.713205    1.744165
