12

C      2.190442   -0.030204   -0.240944
C      0.859600   -0.030418    0.466330
H      1.040200    0.201496    1.566305
O      0.164430   -1.247482    0.349155
C     -1.097644   -1.041706   -0.092704
H     -1.838592   -1.843012   -0.259493
C     -1.354161    0.228787   -0.314830
H     -2.314722    0.615881   -0.670718
C     -0.109506    0.983696   -0.016868
H      0.201267    1.399899   -1.032170
H     -0.271069    1.865731    0.621984
H      2.529754   -1.102669   -0.376047
