12

N      3.277920    0.358750    0.513166
C      2.091834    0.003966    0.163946
C      0.801789   -0.376655   -0.238704
H      0.907597   -0.845232   -1.323882
O      0.074534   -1.260695    0.494673
C     -1.220100   -0.902053    0.642730
H     -1.911690   -1.596916    1.172862
C     -1.426028    0.267759    0.120849
H     -2.389993    0.769409    0.121914
C     -0.143892    0.803215   -0.440856
H     -0.269155    1.139486   -1.447274
H      0.207184    1.638967    0.220575
