13

O      1.656949    1.179748    0.784918
C      1.933747    0.178837    0.374036
C      0.767295   -0.512152   -0.446572
H      1.056317   -1.472181   -0.719984
O      0.305350    0.541454   -1.222492
C     -0.672889    0.751519   -0.365706
H     -0.760288    1.775061    0.189237
C     -1.738166   -0.254364   -0.191340
H     -2.021882   -0.780614   -1.097784
H     -2.591890    0.050133    0.440120
C     -0.473079   -0.430937    0.418721
H     -0.361385   -0.573338    1.469834
H      2.899921   -0.453166    0.367014
