12

O     -0.234199   -1.438901    0.490596
C      0.674657   -0.380166    0.084388
C      1.979134   -0.528865    0.269767
H      2.344754   -1.414591    0.763856
H      2.645370    0.315023   -0.035590
C     -0.226923    0.631294   -0.422097
H      0.046656    1.616698   -0.120599
H     -0.037273    0.602479   -1.521002
C     -1.543180    0.205503   -0.075148
H     -2.400250    0.556180   -0.742412
H     -1.768239    0.637710    1.073769
O     -1.480506   -1.215953    0.234472
