11

N     -0.473786    2.759596   -0.561659
C     -0.265080    1.686254   -0.170421
C      0.016502    0.346520    0.335111
C     -1.062824   -0.604736   -0.113467
H     -1.989870    0.019018   -0.268576
H     -1.265288   -1.327230    0.689316
H     -0.850173   -1.075848   -1.093452
O      1.251591   -0.009816   -0.049762
C      1.812662   -1.052227    0.147307
H      2.835617   -1.138409   -0.259720
H     -0.009351    0.396878    1.441152
