14

C      1.952304   -0.098626   -0.068147
C      0.507924   -0.529952   -0.126031
C     -0.556268    0.235623    0.037790
N     -0.517339    1.634372    0.303705
H     -0.562861    2.335598   -0.476715
H     -0.442111    1.918819    1.302822
C     -1.724318   -0.658355   -0.112893
H     -2.224656   -0.709852    0.875671
H     -2.403568   -0.356530   -0.928555
C     -1.095017   -1.973413   -0.374134
O      0.129062   -1.836808   -0.368719
H      2.549869   -0.944604    0.331672
H      2.076234    0.740834    0.646958
H      2.310745    0.242894   -1.043425
