15

C      1.024183   -0.887194   -0.319515
C     -0.114787   -0.641173    0.673066
O      0.440075   -0.303000    1.905801
H      0.804064    0.615580    1.811525
C     -0.857110    0.571061    0.170984
C      0.152068    1.629487   -0.042802
N      0.949174    2.451645   -0.209423
N     -1.441725    0.244230   -1.107498
H     -1.757022   -0.739823   -1.071762
H     -0.758170    0.364489   -1.880369
H     -1.639807    0.880464    0.877907
H     -0.730214   -1.526362    0.805759
H      0.624824   -1.031696   -1.333175
H      1.677266   -1.684017    0.042224
H      1.627182    0.056309   -0.322722
