14

O      2.126731   -0.666196   -0.434818
C      0.799030   -0.415092   -0.646592
H      0.434697   -0.923612   -1.575122
C      0.365032    1.022425   -0.565891
H     -0.088810    1.481002   -1.436220
H      1.164907    1.672952   -0.119287
C     -0.614785    0.657112    0.521070
H     -0.728296    1.256407    1.414213
C     -1.575165   -0.465745    0.248626
H     -2.330246   -0.638363    1.042538
H     -1.998197   -0.482013   -0.785943
C     -0.158868   -0.734714    0.468226
H      0.205603   -1.285475    1.364060
H      2.398366   -0.478688    0.505138
