11

C     -0.252443    0.294783    0.987019
H     -0.197352    0.681906    2.024946
C     -1.200028    0.358647    0.104115
H     -2.224971    0.819053    0.136998
C     -0.430084   -0.368448   -0.883177
H     -0.175045    0.261379   -1.770769
H     -0.891128   -1.347583   -1.164502
C      0.646123   -0.437185    0.129638
O      1.786981    0.240135   -0.313401
H      2.055088    0.975971    0.279071
H      0.882859   -1.478658    0.470062
