13

C     -0.177006   -1.091738   -0.250005
H      0.256120   -1.796697    0.476403
H     -0.509470   -1.636052   -1.146569
C      0.701326    0.112652   -0.511831
C      1.892467    0.169577    0.356601
N      2.825233    0.231239    1.049495
H      0.934517    0.259743   -1.576771
C     -0.347591    1.050337    0.029787
H     -0.098465    1.561219    0.977862
H     -0.721702    1.748943   -0.742400
C     -1.226282   -0.146045    0.292566
H     -1.388537   -0.366462    1.368531
H     -2.140611   -0.096716   -0.323670
