13

C     -2.086522    0.681409    0.205189
C     -0.558891    0.693955    0.477407
O      0.020788   -0.103380   -0.378146
C      0.601279   -0.794785   -1.063691
N      1.935320   -1.254733   -0.833150
C      2.564134   -0.971261    0.384254
N      3.101468   -0.720799    1.392069
H      2.390692   -1.792472   -1.597002
H     -0.480771    0.443172    1.576716
H     -0.276507    1.794773    0.432291
H     -2.211348    1.300735   -0.708726
H     -2.371341   -0.354823   -0.070243
H     -2.628301    1.078209    1.082043
