17

C      1.929925    0.097309   -0.532579
C      0.821571   -0.136298    0.441550
O      1.072203   -1.198533    1.330227
H      1.514982   -0.756024    2.123513
C     -0.540677    0.096861    0.067894
C     -0.985897    0.954600   -1.069927
H     -1.974670    1.408719   -0.767157
H     -0.321422    1.849648   -1.227025
H     -1.181257    0.407880   -2.008494
C     -1.613843   -0.789333    0.660868
H     -1.106055   -1.747931    0.965927
H     -2.168429   -0.318637    1.470697
H     -2.296696   -1.065440   -0.154517
O      0.172546    0.919965    1.054383
H      2.880870    0.303183    0.020708
H      1.702509    0.851523   -1.299142
H      2.094340   -0.877493   -1.076925
