14

C     -1.842727   -0.018444    0.163486
N     -0.415816    0.295362    0.248655
C      0.133756    1.587860    0.097832
H     -0.358762    2.540863    0.053634
C      1.413927    1.425674   -0.074910
C      1.854401    0.203246   -0.098034
H      2.889759   -0.081598   -0.229426
C      0.689907   -0.655619    0.220568
O      0.389996   -1.673848   -0.586178
H      1.010302   -2.426882   -0.608310
H      0.858518   -0.980311    1.329686
H     -2.011218   -0.935915   -0.458911
H     -2.277214   -0.089139    1.167159
H     -2.334828    0.808749   -0.415378
