8

C      1.455266   -0.034150    0.699278
C      0.310292   -0.515418   -0.154182
H      0.221430   -1.597904   -0.393620
C     -0.964189    0.232696    0.037158
H     -1.897047   -0.327815    0.087467
H     -0.953098    1.170604    0.621114
O     -0.221065    0.305588   -1.133050
H      2.048411    0.766399    0.235835
