15

C      0.568843   -1.005351    2.459307
C     -0.239967   -1.192265    1.261622
C      0.493957   -1.108103    0.098569
C      0.793698   -0.255986   -0.831735
C     -0.059651    0.127503   -1.918700
C     -0.857826    1.276859   -1.656845
C     -1.632677    2.368484   -1.390922
H     -2.243307    3.241505   -1.187905
H      0.893741    0.764209   -2.576061
H     -0.530149   -0.386312   -2.707970
H      1.784203    0.267746   -0.735912
H     -1.273158   -1.304714    1.185157
H     -0.032139   -0.391558    3.250365
H      1.535735   -0.446966    2.287061
H      0.798699   -1.955051    2.917067
