15

C      2.035506    0.735707   -0.457201
C      0.897699    0.070937    0.200691
C      0.499557   -0.959221    1.041100
H      0.841397   -1.797197    1.637392
C     -0.546633   -0.102469    0.522834
O     -1.133784    0.769184    1.410724
H     -1.581922    0.229969    2.112978
C     -1.433848   -0.678032   -0.586344
O     -1.937314    0.356232   -1.364431
H     -1.481732    1.221505   -1.178447
H     -2.293449   -1.209891   -0.136811
H     -0.852171   -1.338813   -1.237577
H      2.428837    1.563614    0.154564
H      2.869994    0.034232   -0.673352
H      1.687863    1.104243   -1.446120
