10

O     -2.174715   -0.274375   -0.591156
C     -1.394289    0.272046    0.175797
C      0.025044    0.458695   -0.300721
O      0.589426    1.404137    0.607622
H      0.790244    2.235814    0.125895
C      0.702336   -0.781733   -0.100598
C      1.278454   -1.870051    0.060004
H      1.781011   -2.845930    0.204184
H      0.062376    0.788968   -1.325652
H     -1.659886    0.612430    1.144625
