15

C     -1.489565    1.129838    0.284445
C     -1.188374   -0.332366    0.368745
H     -1.814725   -0.925933    1.063905
C     -0.891644   -1.030228   -0.955294
H     -0.816186   -0.387675   -1.849317
H     -1.232040   -2.076936   -1.069824
N      0.167866   -0.803996    0.087682
C      1.492446   -0.937383    0.507933
C      2.363212   -0.066343    0.021778
N      3.151905    0.868773   -0.293407
H      3.126908    1.738502    0.286751
H      1.890028   -1.659300    1.176902
H     -0.568062    1.723044    0.108487
H     -2.248377    1.315495   -0.523753
H     -1.943391    1.444507    1.238066
