9

N      3.108090   -0.238759    0.001686
C      1.939327   -0.189374   -0.010215
C      0.498544   -0.122778   -0.000648
C     -0.722548    0.744828    0.036585
H     -0.882998    1.357298   -0.892029
H     -0.863274    1.309190    0.975334
N     -0.813921   -0.667104   -0.013637
H     -1.168192   -1.137372    0.840547
H     -1.095028   -1.055928   -0.937622
