14

C      1.639549    0.230212    0.244149
C      0.480051    0.087308   -0.669722
H      0.869318    0.002361   -1.748381
C     -0.342325   -1.163993   -0.450202
H     -0.460314   -1.248736    0.683863
H      0.080447   -2.072670   -0.850849
C     -1.690879   -0.758616   -0.955532
C     -1.677025    0.718427   -0.725830
H     -2.051673    0.854776    0.342287
H     -2.363002    1.310520   -1.323823
O     -0.375932    1.175549   -0.679572
H      1.820049   -0.669769    0.867140
H      1.483092    1.110444    0.907981
H      2.588644    0.424186   -0.325152
