14

C     -2.453294    0.810111    0.641878
C     -1.783592   -0.496775    1.015816
C     -0.645990   -0.807669    0.105365
O      0.548709   -0.233866    0.616328
C      1.766981   -0.374366   -0.045201
O      1.736254   -1.040111   -1.119249
N      2.968421    0.194088    0.454619
H      3.004868    1.077471    1.002704
H      3.873433   -0.285999    0.272262
H     -0.451479   -1.892109    0.000885
H     -0.817522   -0.430558   -0.932193
H     -3.049258    0.715728   -0.284878
H     -1.618274    1.556288    0.515985
H     -3.079259    1.207766    1.456992
