10

C      1.983940   -0.033432    0.126773
C      0.668738    0.050174    0.046999
N     -0.228541   -0.991478    0.336431
C     -1.418505   -0.591743    0.134279
H     -2.274694   -1.283808    0.320167
N     -1.422724    0.744344   -0.373732
H     -2.282799    1.253949   -0.698838
O     -0.134524    1.151450   -0.340010
H      2.416420   -1.025437    0.457750
H      2.692689    0.725981   -0.009820
