11

C      1.887323    0.358262    0.227452
N      0.463751    0.097482    0.047027
C     -0.387770    0.541337   -0.750162
H     -0.333282    1.273897   -1.573558
C     -1.465944   -0.241709   -0.213978
H     -1.821506   -1.012367   -0.950730
H     -2.319953    0.319765    0.249878
C     -0.447056   -0.724350    0.684255
O     -0.355416   -1.536056    1.647910
H      2.618944    0.105763   -0.510280
H      2.160909    0.817977    1.142185
