10

O      2.448633   -0.688393    0.911867
C      1.403263   -0.218235    0.397607
N      1.171306    0.832792   -0.387668
H      1.720332    1.598825   -0.835716
N     -0.114965    0.541278   -0.403638
C     -1.425415    0.238466   -0.415784
H     -2.300404    0.677054   -0.878172
C     -1.205366   -0.847251    0.392023
H     -1.799647   -1.640889    0.851808
N      0.102263   -0.493648    0.367673
