12

N      2.603337   -0.157095   -0.340357
C      1.330176   -0.286753   -0.169230
C      0.410482    0.806439    0.109353
H      0.750976    1.843427    0.194464
C     -0.824973    0.343652    0.231405
O     -1.937848    1.125899    0.497920
H     -2.613476    1.229570   -0.245058
C     -0.800338   -1.129019    0.035477
H     -1.466208   -1.451858   -0.803155
H     -1.113581   -1.642730    0.989625
O      0.556939   -1.440232   -0.205632
H      3.104515    0.758701   -0.294811
