14

C      1.834457    0.679903   -0.183367
N      0.672525   -0.101496   -0.575275
C     -0.186579   -0.734669    0.411443
H     -0.002343   -0.702729    1.485058
C     -1.218949   -1.615347   -0.174476
H     -1.470607   -2.659722   -0.017980
C     -1.667296   -0.598669   -0.912771
H     -2.497490   -0.618569   -1.629975
C     -0.677259    0.343214   -0.413737
O     -0.958787    1.581233    0.055138
H     -0.393518    1.921156    0.814419
H      2.484042    0.066128    0.545857
H      1.601832    1.658146    0.280620
H      2.479971    0.781421   -1.086635
