14

C     -0.939231    0.814912    0.080733
H     -1.716354    0.705745    0.858035
H     -0.958479    1.701375   -0.544314
C     -0.828248   -0.517729   -0.666695
H     -1.712439   -0.985850   -0.994647
C      0.329219   -0.274126   -1.575647
C      1.307869    0.366763   -0.570224
H      1.677901    1.327208   -0.915694
H      2.102669   -0.408159   -0.429061
C      0.420696    0.407649    0.630966
H      0.744410    0.802986    1.552198
C     -0.162618   -1.012894    0.616509
H      0.574219   -1.801560    0.486440
H     -0.839615   -1.126320    1.471401
