12

C     -1.901429   -0.012720   -0.117645
C     -0.477477   -0.010621   -0.515023
C      0.449150   -0.021746    0.426967
C      1.908978   -0.020604    0.116647
H      2.332436   -1.025560    0.068574
H      2.495356    0.526120    0.908911
H      2.043075    0.474662   -0.851615
H      0.204511   -0.032512    1.495063
H     -0.237142   -0.000075   -1.562237
H     -2.588862   -0.293910   -0.945699
H     -2.153805    1.039497    0.183470
H     -2.074791   -0.622532    0.792587
