13

C     -2.322057    0.255413    0.307853
C     -0.973658    0.163225    0.343460
O      0.034679    0.986074    0.729528
C      1.010878    0.072423    0.413873
C      1.955904    0.535605   -0.650250
O      1.792905    1.641740   -1.134193
H      2.760847   -0.087994   -0.983648
H      1.606286   -0.339322    1.265355
C     -0.012265   -0.884023   -0.026780
H     -0.130891   -1.817615    0.562411
H     -0.022102   -1.088110   -1.122674
H     -2.862113   -0.574806   -0.055903
H     -2.838412    1.137390    0.635454
