14

C     -0.890811    1.410644   -0.222120
C     -0.517678    0.027115    0.040499
C     -1.314386   -1.176975   -0.110155
H     -1.625966   -1.243430   -1.192505
H     -2.280237   -1.075559    0.452299
H     -0.808940   -2.104606    0.137741
C      0.702169   -0.128658    0.465702
C      1.968532   -0.341792    0.770694
O      2.805089   -0.529937   -0.274017
H      2.896771    0.092110   -1.050919
H      2.123435   -0.329854    1.808387
H     -0.445447    2.102099    0.519139
H     -0.605332    1.759068   -1.241367
H     -2.007200    1.539775   -0.103378
