14

C     -0.364782    1.427928   -0.472355
C     -0.057996   -0.027455   -0.154077
C     -1.256251   -0.702527    0.501443
H     -1.704968   -1.368956   -0.250005
H     -1.983721    0.062624    0.812567
H     -0.903747   -1.238300    1.412313
C      1.215829   -0.254459    0.508037
H      1.664212    0.022165    1.454124
C      1.655561   -0.949019   -0.495785
H      2.629500   -1.474689   -0.693746
O      0.486286   -0.772795   -1.167863
H     -0.677226    1.886622    0.498289
H      0.529495    1.936462   -0.823542
H     -1.232192    1.452398   -1.129399
