9

N     -1.925299   -0.389267    0.037546
C     -0.671187   -0.107679    0.013141
N      0.347879   -1.016762   -0.009077
N      1.495048   -0.367376   -0.030566
H      2.452064   -0.779980   -0.050501
N      1.205653    0.943822   -0.022040
N     -0.099532    1.103309    0.004304
H     -0.599227    2.005276    0.016167
H     -2.205399   -1.391343    0.041026
