14

O     -1.748170   -1.990137    0.767733
C     -1.094057   -1.103471    0.243167
C     -1.327191    0.233675   -0.355642
H     -1.711645    0.946265    0.414762
H     -1.976851    0.230092   -1.262566
N      0.075107    0.345540   -0.629887
H      0.348687    0.477676   -1.617989
C      0.852965    1.031007    0.360529
H      1.720415    1.566334   -0.089280
H      0.307306    1.733192    1.021918
C      1.163691   -0.283177    1.009921
H      2.233906   -0.541214    0.866462
C      0.335575   -0.952123   -0.054163
H      0.820262   -1.693658   -0.674966
