16

C      2.566067    0.405792   -0.695294
C      1.554782   -0.576401   -0.151124
C      0.218910   -0.398776   -0.724828
C     -0.801897   -0.117810    0.052976
C     -2.161063    0.072807   -0.447936
C     -3.173311    0.353703    0.342696
H     -4.150529    0.481540   -0.094605
H     -3.088829    0.465828    1.412435
H     -2.336363   -0.021935   -1.511892
H     -0.627762   -0.023420    1.111926
H      0.075703   -0.499028   -1.785123
H      1.588347   -0.533920    0.938063
H      1.907245   -1.597959   -0.442267
H      2.653756    0.368533   -1.789305
H      3.536954    0.165814   -0.220012
H      2.237988    1.455231   -0.452831
