15

O      3.450426    0.252735   -0.049308
C      2.212774   -0.325365   -0.021022
C      1.112141    0.548824   -0.573369
C     -0.190680   -0.205620   -0.384722
C     -1.238968    0.667686    0.203944
C     -2.575781    0.055420    0.445392
H     -2.408303   -0.865249    1.076364
H     -2.975991   -0.308478   -0.538652
H     -3.278082    0.744360    0.951370
O     -1.056171    1.840962    0.492407
H     -0.569652   -0.582279   -1.366311
H     -0.075734   -1.085620    0.260241
H      1.877621   -0.645043    0.995973
H      2.220963   -1.254046   -0.644557
H      3.495440    1.161712   -0.394655
