12

C      0.363217   -2.035231    0.432006
C     -0.666295   -1.066710    0.835660
C     -0.716739    0.020619    0.120504
C     -0.708574    1.084840   -0.608172
C      0.149942    2.129986   -0.160157
C      0.874523    3.041657    0.217540
H      1.504496    3.827590    0.543414
H     -1.327507    1.084194   -1.456684
H     -1.364986   -1.122414    1.616885
H      0.430123   -2.793076    1.252672
H      0.103945   -2.585887   -0.480710
H      1.357854   -1.585567    0.334812
