14

C     -0.572040    1.389621    0.279941
C     -0.049520    0.031127   -0.045484
C      1.244402   -0.318837    0.585269
C      2.235658   -0.600598   -0.209621
H      3.148721   -0.857151   -0.662813
O      1.364620   -0.337212    1.966671
N     -0.333925   -0.630898   -1.266058
H     -0.750170   -0.175089   -2.078433
C     -1.123944   -1.042116   -0.133974
H     -2.185535   -0.738376   -0.105255
H     -0.876790   -1.952463    0.425275
H     -0.669228    1.448740    1.397094
H     -1.571440    1.583615   -0.152059
H      0.139191    2.199638   -0.000554
