12

O      0.747175    2.353404    0.136137
C      0.532506    1.092709    0.149570
N      1.541201    0.103193    0.223303
H      2.594198    0.268643    0.276524
C      0.902030   -1.142907    0.213679
H      1.401564   -2.125012    0.259980
C     -0.406087   -1.032255    0.141268
H     -1.138848   -1.862459    0.118383
C     -0.758910    0.394148    0.094079
O     -1.611437    0.763411    1.134710
H     -2.533960    0.629573    0.786193
H     -1.269432    0.557553   -0.886055
