15

C     -0.118665    1.313092   -0.087133
C      0.188665   -0.123105    0.143942
C      1.621354   -0.521783    0.257371
O      2.339544   -0.213014   -0.901037
H      3.196420   -0.720531   -0.841025
H      1.736323   -1.616711    0.402310
H      2.097309   -0.057638    1.165270
N     -0.783004   -0.919726    0.230331
C     -2.161023   -0.580598    0.128012
H     -2.392433    0.467090    0.326090
H     -2.698572   -1.181836    0.905094
H     -2.583820   -0.944097   -0.849620
H     -0.938642    1.469221   -0.796402
H      0.769606    1.852423   -0.532285
H     -0.273063    1.777213    0.902181
