10

C      0.068386   -0.489898   -1.353398
C      1.150109    0.041677   -0.437286
H      2.204796   -0.172851   -0.631152
O      0.827305    1.174119    0.360584
C      0.364230   -0.089663    0.669662
H      0.529179   -0.532396    1.668506
C     -0.849008   -0.486396   -0.142181
O     -1.729875    0.589372   -0.216369
H     -1.287056    1.432373    0.032340
H     -1.278067   -1.466336    0.049295
