16

C      0.225177   -0.854361    0.489308
H     -0.228684   -1.002833    1.496988
H      0.672088   -1.807138    0.177050
C     -0.897811   -0.428024   -0.411371
O     -2.142802   -0.853944    0.044742
H     -2.123396   -1.770821    0.401707
H     -0.723828   -0.761787   -1.458693
C     -0.857319    1.071692   -0.310568
H     -1.565276    1.415219    0.490745
H     -1.164540    1.542220   -1.236476
N      0.479151    1.462490    0.037207
H      0.933577    1.904989   -0.806508
C      1.184757    0.295406    0.495872
O      2.308195    0.109473   -0.267269
H      2.359167   -0.768566   -0.702783
H      1.541543    0.445986    1.560047
