9

C      0.827461   -1.122444    0.087472
C      0.976780    0.399085    0.152151
H      1.479266    0.834078    0.962913
H      1.415331    0.676831   -0.874756
C     -0.516167    0.477103   -0.018537
H     -1.072610    1.293383    0.507521
O     -1.042095   -0.070491   -1.151774
C     -0.677736   -0.878799    0.010182
H     -1.390230   -1.608745    0.324828
