11

C      3.095015    0.497304    0.002364
C      1.889837    0.361854   -0.145170
C      0.476500    0.191293   -0.300464
C     -0.349195    0.287433    0.754205
C     -1.766362    0.116553    0.599355
C     -2.958992   -0.029527    0.481743
H     -4.022983   -0.148376    0.373230
H      0.023338    0.494738    1.744935
O     -0.095782   -0.078452   -1.537380
H     -0.413687    0.695426   -2.096487
H      4.122311    0.602643    0.123669
