12

O     -1.568248   -1.040517    0.294250
C     -0.625599   -0.361816   -0.431098
H     -0.762898   -0.520179   -1.493650
C     -0.422377    1.050768   -0.002895
H     -1.108503    1.440187    0.694639
H     -0.490105    1.717760   -0.929350
N      1.032453    1.261831    0.287414
C      1.550618    0.058245    0.273841
H      2.689888    0.061939    0.560304
C      0.731206   -0.962357   -0.082281
O      0.974309   -2.210618   -0.175913
H     -2.000744   -0.495245    1.004738
