11

C      1.474501    1.052862    0.035331
C      1.018642   -0.370831    0.220495
C     -0.305915   -0.547298   -0.492370
H     -0.497869   -1.564082   -0.937233
C     -1.463477    0.282868   -0.083821
H     -1.339379    1.008593    0.745425
H     -2.456040   -0.228206   -0.164682
O     -0.753818    0.532014   -1.272356
H      0.840777   -0.620871    1.283765
H      1.771513   -1.056492   -0.252974
H      1.711065    1.511444    1.014249
