14

C     -1.960882   -0.956129    0.069469
C     -1.111138   -0.016343    0.851936
C     -0.013746    0.515060    0.363493
N      1.112109    1.413902    0.639359
H      1.632079    2.053192    1.259181
C      1.031964    0.766879   -0.661051
C      1.968032   -0.369805   -0.889680
H      1.791150   -1.349366   -0.457477
H      2.835175   -0.227629   -1.490738
H      0.791971    1.438478   -1.518429
O     -1.531117    0.280587    2.138035
H     -1.794635   -0.847777   -1.021759
H     -1.735720   -2.001797    0.416174
H     -3.015244   -0.699252    0.301486
