10

O      2.107587   -0.439188   -0.448677
O      1.264486   -0.322705    0.554549
C     -0.093858   -0.026534    0.405558
C     -0.445183    1.159426   -0.036754
H      0.308948    1.884709   -0.277880
H     -1.494033    1.371173   -0.145640
C     -1.094509   -1.036618    0.742832
O     -0.777871   -2.175324    1.166857
H     -2.146069   -0.820187    0.632167
H      2.370503    0.405249   -0.867192
