10

O      2.750569    0.080239   -1.080670
C      1.556628   -0.045927   -0.419475
C      0.420470   -0.385237    0.143477
O     -0.285409    0.577679    0.847863
C     -1.703710    0.517047    0.778907
H     -2.095189    1.341756    1.385420
H     -2.000549   -0.451903    1.209144
H     -2.040113    0.640293   -0.276110
O     -0.073430   -1.679042    0.041848
H      3.470732   -0.594906   -0.904584
