12

N      1.780824   -0.111392    0.663972
C      0.837304    0.144189   -0.366562
H      1.375211    0.402484   -1.324283
N     -0.009633    1.239738    0.058314
C     -1.400948    1.163379    0.230704
H     -2.017581    2.005306    0.552440
C     -1.992060    0.037059   -0.002494
C     -1.222968   -1.085718   -0.424151
H     -1.685400   -2.058534   -0.632259
N      0.031460   -1.030340   -0.583359
H      1.557563   -0.830399    1.338007
H      2.746227    0.124228    0.489671
