10

C     -1.444399    0.965187   -0.218732
H     -1.805261    1.968880   -0.348479
C     -1.646322   -0.360651   -0.338990
H     -2.259249   -1.210448   -0.623864
C     -0.346320    0.088509    0.231048
O      0.760664   -0.159027   -0.579640
C      1.991270   -0.398020   -0.015969
O      2.108350   -0.391793    1.209946
H      2.838857   -0.587719   -0.642836
H     -0.197591    0.085083    1.327516
