17

C     -1.025137   -1.010870   -0.437026
H     -2.053529   -0.680911   -0.283688
H     -0.874781   -2.007759   -0.899221
C     -0.107088   -0.823544    0.770228
H     -0.013546   -1.610268    1.464531
C     -0.332063    0.589310    1.197773
H     -1.214945    0.760254    1.809660
H      0.605581    1.031972    1.637968
C     -0.464232    1.246974   -0.192454
H      0.187869    2.110075   -0.297723
H     -1.545116    1.474377   -0.306226
C     -0.113783    0.067426   -1.043007
H     -0.059246    0.136732   -2.093156
C      0.993111   -0.650689   -0.284642
C      2.078420    0.207359    0.253157
H      2.667478    0.738135   -0.492517
H      1.271009   -1.578574   -0.803658
