11

N      2.165418   -0.430100    0.598862
C      0.766538   -0.305609    0.375871
C      0.292074    0.893244    0.408172
C     -0.964622    1.111504    0.217792
H     -1.382717    2.120183    0.241794
C     -1.863917   -0.006030   -0.037292
H     -2.937424    0.167001   -0.201138
N     -1.395169   -1.202533   -0.070335
O     -0.047218   -1.392874    0.137948
H      2.584920   -0.420208    1.541670
H      2.782118   -0.534578   -0.222455
