11

N     -1.618439   -0.328627   -0.061147
C     -0.226300   -0.090936   -0.002760
C      0.724663   -0.977506    0.049465
C      1.938415   -0.513923    0.097416
H      2.838803   -1.115250    0.144089
O      1.793688    0.865801    0.074838
C      0.447566    1.203362    0.011670
H     -0.029699    2.173039   -0.020709
H     -1.774742   -1.364153   -0.168102
H     -2.070877    0.052001    0.806168
H     -2.023079    0.096192   -0.930930
