14

C      1.744384   -0.765141    0.040913
C      0.641385    0.278127    0.122801
O      1.211944    1.545885    0.041477
H      0.675806    2.220788    0.528166
C     -0.312278    0.113160   -1.032045
C     -1.762989    0.189756   -0.595630
O     -1.922636   -0.159636    0.746498
H     -1.892020   -1.148121    0.864999
H     -2.196977    1.187401   -0.776883
H     -2.312586   -0.556574   -1.205793
H      0.132756    0.114277    1.091929
H      2.201929   -0.771991   -0.957422
H      1.291955   -1.728315    0.307354
H      2.499325   -0.519614    0.823634
