8

C     -0.364194    0.987807   -0.006425
H     -0.385233    2.065471   -0.106833
C      0.626318   -0.048975   -0.155958
H      1.028222   -0.205287   -1.198269
H      1.468571   -0.042033    0.600481
C     -0.501923   -0.863026    0.210120
H     -0.622178   -1.953324    0.347612
O     -1.249583    0.059367    0.309271
