10

N     -1.385798   -1.065856   -0.121252
C     -0.663310    0.156351   -0.053194
N      0.704711    0.199495    0.268624
C      2.094720    0.043108    0.052064
H      2.942670   -0.218878   -0.532271
N      1.675093    0.498258    1.224866
N     -1.260672    1.275059   -0.290367
H     -0.774124    2.196346   -0.252877
H     -0.905725   -1.986624   -0.224582
H     -2.427565   -1.097260   -0.071010
