13

O      2.600043   -0.238915   -0.302359
C      1.229266   -0.359593   -0.161601
C      0.236633   -0.736366   -0.896149
H      0.193377   -1.101627   -1.927059
C     -0.691445   -0.254683    0.070632
C      0.402350   -0.080817    1.086870
H      0.491680    1.022121    1.366595
H      0.493181   -0.788458    1.865909
C     -1.769095    0.565126   -0.250140
H     -2.218863    0.590488   -1.265225
H     -2.070943    1.422153    0.392851
O     -1.916280   -0.741831    0.359864
H      3.020094    0.702403   -0.340187
