16

C     -1.079980    0.439004   -1.223779
C     -0.348647   -0.201823   -0.068371
C     -1.329554   -0.584705    1.046411
H     -1.791339   -1.563137    0.776749
H     -2.076354    0.190078    1.224271
H     -0.683646   -0.737074    1.950360
C      0.717140    0.687056    0.465651
C      2.004396    0.330537    0.408138
O      2.378253   -0.867812   -0.146363
H      2.691512   -0.982333   -1.089095
H      2.775299    0.985089    0.800100
H      0.449978    1.617829    0.898463
H      0.111854   -1.155126   -0.401614
H     -2.092511    0.785748   -0.948958
H     -0.533300    1.319836   -1.620045
H     -1.193101   -0.263166   -2.071919
