11

C      1.433444   -0.009562   -0.259920
C      0.142002    0.262526    0.478608
H      0.290746    1.131298    1.163713
C     -1.057232    0.352998   -0.340558
H     -1.417560    0.996744   -1.139791
C     -1.585443   -0.675072    0.256650
H     -2.566860   -1.201097    0.124576
O     -0.490828   -0.807596    1.049169
H      1.541564    0.790947   -1.025763
H      1.450943   -0.976418   -0.765335
H      2.259223    0.135232    0.458651
