15

C      2.294567   -2.284507   -1.625521
C      1.490749   -1.377481   -0.820430
C      0.826816   -0.596691   -0.133900
C      0.035823    0.298785    0.679854
C     -0.835905    1.072082    0.066830
C     -1.652686    1.997666    0.912341
O     -2.989994    1.641559    0.698525
H     -3.006082    0.666036    0.565130
H     -1.423886    3.028543    0.570015
H     -1.456920    1.828968    1.978263
H     -0.923677    1.010041   -0.989048
H      0.156256    0.334010    1.766497
H      2.267304   -3.335651   -1.218530
H      1.858672   -2.310796   -2.651897
H      3.358964   -1.972563   -1.663650
