17

C     -1.816596    0.459054    0.974409
C     -1.223801   -0.195467   -0.203579
H     -1.864797   -1.048087   -0.605019
C     -0.555037    0.658296   -1.328090
H     -0.461959    1.780906   -1.023248
H     -1.012144    0.567386   -2.333378
C      0.178600   -0.269246   -0.548175
C      0.980579   -1.418797   -0.702886
H      1.613131   -1.598226   -1.635498
H      0.917498   -2.345945   -0.008963
C      1.395269   -0.204795    0.154001
C      2.336903    0.355194    0.849975
H      3.227302   -0.145035    1.215252
H      2.253088    1.469086    1.153197
H     -1.968891    1.538060    0.695053
H     -2.860639    0.087206    1.179038
H     -1.138508    0.310408    1.885745
