17

C     -2.043012   -0.349756    0.163493
C     -0.612321   -0.138818    0.578167
H     -0.547437   -0.381770    1.693568
C      0.377354   -0.959945   -0.183507
H     -0.015222   -1.392436   -1.130803
H      0.743987   -1.813086    0.437325
C      1.550877   -0.088054   -0.374167
O      2.795440   -0.490169   -0.846254
H      2.880021   -1.196023   -1.499627
C      1.292053    1.157391   -0.054688
H      1.946426    1.978847   -0.083803
C     -0.173747    1.290626    0.329996
H     -0.207434    1.837677    1.283486
H     -0.690583    1.740786   -0.491445
H     -2.530504    0.617788    0.008535
H     -2.609590   -0.881437    0.941003
H     -2.156309   -0.931623   -0.771279
