12

O     -2.176869    0.073811   -0.102237
C     -1.056050   -0.539497    0.447639
C      0.136212   -0.186721   -0.400192
H      0.199800   -0.810138   -1.339380
C      0.449169    1.266152   -0.512955
C      0.061535    2.443727   -0.924719
C      1.365389    0.288433    0.125848
N      2.519137    0.229626    0.713096
H      2.929638   -0.640458    1.079298
H     -0.966793   -0.179283    1.483138
H     -1.151262   -1.639179    0.451203
H     -2.309905   -0.306473   -1.020738
