14

C      0.029055    1.267999    1.334102
C     -0.121457    0.358708    0.185902
C     -1.012538    0.511906   -0.935125
C     -0.863623   -0.601608   -1.863130
N     -0.738643   -1.479145   -2.619799
H     -0.774177    1.494322   -1.437928
H     -2.060746    0.593218   -0.551811
C      0.648540   -0.675648    0.229783
C      1.421774   -1.747360    0.218029
H      2.348903   -1.600267   -0.261208
H      0.988678   -2.582278    0.690284
H     -0.532874    2.214857    1.209142
H     -0.407231    0.752717    2.219294
H      1.074339    1.492578    1.582465
