16

C     -1.227972    0.526283    0.367362
H     -2.064465    1.132731    0.078694
H     -1.208175    0.192850    1.427222
C      0.126438    1.154357    0.056011
H     -0.076883    1.874684   -0.783579
H      0.550609    1.671896    0.935313
C      1.067828    0.040445   -0.390085
O      2.271656    0.059681    0.248335
H      2.246544    0.696158    0.998767
H      1.109254   -0.008978   -1.492533
C      0.289463   -1.233855    0.028631
H      0.312995   -1.220444    1.141789
H      0.625183   -2.120665   -0.442695
C     -1.130302   -0.782029   -0.451090
H     -1.886387   -1.494115   -0.223024
H     -1.005789   -0.488998   -1.499119
