8

C     -0.892465    0.682109    0.077219
C     -0.430913    1.685821   -0.649625
C      0.011795   -0.478455    0.309159
C      1.226698   -0.370088   -0.486145
N      2.202859   -0.299765   -1.138483
H     -0.470430   -1.446672   -0.000386
H      0.239986   -0.490987    1.408848
H     -1.887529    0.718037    0.479413
