9

O     -0.958942   -1.081167    0.636583
C     -0.861877   -0.086966   -0.334927
C      0.415215    0.635730   -0.087234
C      0.361816    1.931453    0.173723
C      1.668618   -0.059577   -0.131494
N      2.679545   -0.627158   -0.156045
H     -1.711683    0.598258   -0.334896
H     -0.805717   -0.593154   -1.321703
H     -0.786974   -0.717420    1.555993
