10

C     -1.410076   -0.199999   -0.038035
H     -1.848185   -1.140309    0.194989
H     -2.075689    0.611060   -0.368120
C     -0.431501   -0.374487   -1.195836
O      0.658195   -0.142065   -1.053747
C      1.382752    0.210148    0.090317
H      1.832667   -0.798720    0.378750
H      2.068853    0.954201   -0.115986
O      0.431874    0.483666    1.027445
C     -0.608891    0.396506    1.080223
