14

C     -1.032266    1.462839    0.195061
N      0.048069    0.535149   -0.179826
C     -0.213882   -0.709377   -0.387431
N     -1.562403   -1.122414   -0.238616
H     -2.046876   -1.570904   -1.038886
H     -2.098719   -0.995799    0.648085
O      0.836688   -1.545830   -0.738653
C      2.118356   -0.952400   -0.759038
N      2.464833   -0.289228    0.283218
H      3.384270    0.192125    0.382393
H      1.837132   -0.201471    1.105792
H     -0.519167    2.360152    0.643167
H     -1.452862    1.831503   -0.770949
H     -1.763171    1.005656    0.855682
