11

C      2.369833    0.350965    0.208491
N      1.499007   -0.591873    0.099192
C      0.121432   -0.249275    0.013260
C     -0.979196   -0.974379   -0.107574
H     -1.189141   -2.032981   -0.178700
C     -1.833033    0.228944   -0.109072
H     -2.315667    0.424264   -1.102907
H     -2.533013    0.325783    0.740251
O     -0.628830    0.932954    0.018466
H      3.427230    0.182763    0.278942
H      2.061379    1.402835    0.235481
