15

C      2.113517    0.616349    0.108734
C      1.589792   -0.608687   -0.558393
N      0.219772   -0.550936   -0.945598
C     -0.645633   -0.876413    0.136876
C     -1.998474   -0.264550    0.200522
O     -1.991625    0.940911    0.904868
H     -2.541027    1.627262    0.411574
H     -2.415443   -0.085499   -0.830913
H     -2.673263   -0.983577    0.744334
H     -0.276912   -1.568231    0.882495
H      0.010027    0.376818   -1.332637
H      1.933070   -1.555559   -0.151905
H      1.259937    1.259353    0.472065
H      2.686991    1.263791   -0.601474
H      2.729272    0.408968    1.012548
