16

C      0.966949    0.895799   -0.178238
H      1.013657    1.734683    0.520525
H      1.077013    1.214504   -1.270402
C      1.999685   -0.155955    0.017291
H      2.999003    0.053635    0.416613
N      1.489981   -1.296529   -0.341237
C      0.153148   -1.187547   -0.789973
H      0.110893   -1.008564   -1.861375
H     -0.469418   -2.048157   -0.492683
C     -0.256131    0.091720   -0.057156
C     -1.612646    0.581416   -0.054435
H     -1.787226    1.661496   -0.013415
H     -2.411190   -0.026217   -0.572193
C     -0.987471   -0.091631    1.202082
H     -0.897474    0.654812    2.035804
H     -1.388773   -1.073463    1.438791
