11

C      2.163654    0.652095    0.120904
O      1.440273   -0.376410    0.156679
C      0.072146   -0.300753    0.052812
C     -0.778380   -1.367249   -0.103213
H     -0.440922   -2.400894   -0.160973
N     -2.018296   -0.876949   -0.162706
C     -1.942613    0.455642   -0.047169
H     -2.752170    1.177451   -0.053028
N     -0.658471    0.821661    0.086216
H      3.227199    0.599950    0.201078
H      1.687580    1.615456    0.005230
