10

O      2.250685    1.006999   -0.506012
O      1.330297    0.132669   -0.961231
C      0.719938   -0.674423   -0.027838
C     -0.544937   -0.478604    0.255957
C     -1.791213    0.283965    0.032367
H     -2.350425    0.097222   -0.912482
H     -1.905228    1.300312    0.432761
O     -1.734889   -0.803781    0.972982
H      1.292371   -1.444189    0.445444
H      2.733402    0.579829    0.268052
