15

C      1.825989    0.676301    0.230798
C      1.058987   -0.282266   -0.642812
N      0.427081   -1.297194    0.087224
C     -0.786462   -1.291615    0.404654
C     -1.662681   -0.188257    0.023883
O     -1.604910    0.883752    0.945961
H     -2.052659    1.668410    0.593238
H     -1.582334    0.155902   -1.007760
H     -2.726328   -0.559882    0.134234
H     -1.145927   -2.160963    0.981969
H      0.429024    0.303325   -1.314254
H      1.831462   -0.779018   -1.303938
H      1.120785    1.244238    0.857521
H      2.320645    1.438692   -0.432819
H      2.547328    0.188576    0.895200
