18

C     -0.760141   -1.778754   -0.295218
H     -1.131562   -2.117640    0.715556
H     -1.024077   -2.519740   -1.066156
C     -1.405970   -0.445437   -0.548090
H     -1.802772   -0.435688   -1.614151
H     -2.256416   -0.239654    0.087142
N     -0.340825    0.492475   -0.531077
C     -0.569082    1.594792    0.347797
H     -1.207884    2.320854   -0.191794
H      0.385471    2.087554    0.573849
H     -1.085022    1.341127    1.296623
C      0.842415   -0.226717   -0.323653
C      1.839261    0.317122    0.636883
H      1.563288    0.323982    1.687983
H      2.785685   -0.310264    0.505414
H      2.191055    1.311791    0.252911
H      1.384729   -0.153704   -1.353750
O      0.591845   -1.562102   -0.180270
