15

C      2.211966    0.516429    0.201521
C      1.821648   -0.621278   -0.722325
C      0.316345   -0.812386   -0.755182
N     -0.335542   -0.335772    0.441207
C     -1.783498   -0.203298    0.239576
C     -2.205832    1.179594    0.557557
N     -2.496120    2.193125    0.787715
H     -1.929278   -0.335155   -0.885424
H     -2.348702   -1.000366    0.720607
H     -0.204987   -0.960775    1.260135
H     -0.057643   -0.210513   -1.642219
H      0.020036   -1.875620   -0.967944
H      1.347948    1.094138    0.560908
H      2.851687    1.219077   -0.413738
H      2.791974    0.152801    1.070706
