11

N     -0.060008    1.745261    0.482358
C      0.179030    0.490964    0.306648
C     -0.888961   -0.487616    0.034652
O     -2.145459    0.078405   -0.009527
H     -2.453140    0.254375   -0.920705
H     -0.848134   -1.262056    0.846457
H     -0.623633   -1.026011   -0.898242
O      1.488169    0.035978    0.374378
C      1.812680   -0.908876   -0.391551
H      2.809961   -1.320416   -0.401041
H      0.729494    2.399991    0.672403
