19

C      1.961645   -0.262114    0.214486
C      0.921451    0.649049   -0.331499
C     -0.496226    0.168999   -0.101235
C     -0.775655    0.030277    1.390851
H      0.114403    0.290680    2.002488
H     -1.060481   -1.011355    1.642766
H     -1.660805    0.660129    1.657514
C     -0.742122   -1.181113   -0.744362
H     -0.747693   -1.972932    0.033457
H      0.034964   -1.457660   -1.469785
H     -1.758679   -1.162656   -1.215436
C     -1.338797    1.195392   -0.730480
O     -2.076312    0.898127   -1.619960
H     -1.285044    2.194824   -0.388675
H      0.999285    1.662641    0.096015
H      1.057381    0.735800   -1.426692
H      2.155345   -0.123203    1.299895
H      1.764584   -1.310223   -0.017759
H      2.932755   -0.004659   -0.291589
