12

C      1.484780    0.927793    0.538299
O      1.840359    2.084544    0.845059
C      1.408348   -0.247518   -0.000554
C      0.087558   -0.881218   -0.151243
C     -1.005575   -0.108527    0.537336
O     -1.120397    1.186259    0.027273
H     -2.013809    1.556253    0.139709
H     -1.971232   -0.620876    0.256431
H     -0.954744   -0.145400    1.628020
H      0.149098   -1.872912    0.380119
H     -0.172851   -1.071488   -1.197689
H      2.268465   -0.806910   -0.354989
