14

C      0.886140    1.534016    0.075989
C      0.069344    0.295684   -0.343216
O      0.905146   -0.766381   -0.240546
C      1.641503   -0.985790    0.687502
H      2.263706   -1.872446    0.651642
O     -1.017791    0.261837    0.514047
C     -1.953343   -0.753869    0.395652
N     -1.916466   -1.475267   -0.673222
H     -1.196505   -1.273791   -1.400080
H     -2.700234   -0.956469    1.158749
H     -0.148940    0.475561   -1.403494
H      1.468624    1.918511   -0.775405
H      0.183372    2.327366    0.412543
H      1.515445    1.271038    0.939839
