10

O      2.410412    0.490522   -0.041288
C      1.032154    0.303369   -0.046658
N      0.498225   -0.880202   -0.035151
C     -0.929292   -0.716289   -0.045085
H     -1.353320   -1.216583    0.845972
H     -1.401222   -1.146071   -0.962208
C     -1.149967    0.740811   -0.064132
H     -2.082360    1.288750   -0.076011
N      0.001790    1.300653   -0.064580
H      2.973579   -0.164960    0.489141
