11

N     -1.699663   -0.686126   -0.243065
C     -0.427698   -0.313069   -0.054510
C      0.637667   -1.043907    0.168963
C      1.766589   -0.458630    0.283598
H      2.708318   -1.029694    0.430895
O      1.564534    0.855838    0.169155
C      0.146195    1.124611   -0.024020
H     -0.072233    1.599731   -0.995524
H     -0.189723    1.691598    0.878730
H     -2.140569   -1.382954    0.446380
H     -2.293415   -0.357398   -1.060601
