14

C      2.189964    0.486145   -0.154011
C      0.944646    0.291348   -0.078464
C      0.105687   -0.917255   -0.007928
H      0.521622   -1.932095    0.317502
H     -0.069030   -1.124988   -1.183739
C     -1.245510   -0.453515    0.402080
H     -1.141836   -0.432307    1.555611
H     -2.067214   -1.144516    0.142684
C     -1.274294    0.871130   -0.015110
H     -1.969847    1.519638    0.512722
H     -1.627503    0.811858   -1.151654
O      0.022533    1.359699   -0.019414
H      2.777094   -0.615150   -0.182566
H      2.833689    1.280007   -0.137714
