15

C      2.813680   -0.626475   -0.705388
C      1.554858   -0.556649   -1.139548
C      0.401354   -0.769905   -0.186966
O     -0.342240    0.378374   -0.198759
C     -1.444409    0.365498    0.618772
H     -1.563279   -0.606131    1.179670
C     -2.685038    1.033758    0.302189
H     -3.597653    1.140625   -0.277541
C     -1.909992    1.537055    1.330129
H     -1.867205    2.324935    2.072176
H     -0.149713   -1.655847   -0.537426
H      0.833634   -0.917000    0.821240
H      1.313351   -0.349358   -2.167292
H      3.592369   -0.463855   -1.439287
H      3.050283   -0.835027    0.328031
