10

N      3.237881    0.931864   -0.905876
C      1.894989    0.566972   -0.708994
C      0.683093    0.260423   -0.531590
C     -0.400646    0.840375    0.001193
H     -0.621304    1.793404    0.433999
C     -1.201868   -0.303618   -0.156114
H     -2.323857   -0.182072   -0.489960
C     -0.229415   -0.989363   -0.795764
H     -0.233200   -1.383347   -1.781164
O     -0.805674   -1.534637    0.272208
