13

C     -1.665421    0.485487    0.633886
C     -1.017137   -0.381274   -0.390079
N      0.212462   -1.057854   -0.163080
C      1.242495   -0.402719    0.223688
C      2.570772   -1.021707    0.486908
O      3.539183   -0.398964   -0.297754
H      3.596365    0.571506   -0.116019
H      1.122645    0.669692    0.363510
N     -1.597910   -0.517180   -1.518561
H     -2.498506   -0.035381   -1.715619
H     -0.942610    0.632744    1.472744
H     -2.558531    0.006436    1.087571
H     -2.003805    1.449215    0.217291
