11

C      2.008838    0.047555    0.087547
O      0.990167   -0.627536    0.386850
C     -0.262643   -0.063365    0.195013
C     -1.470363   -0.800022   -0.212546
H     -1.256128   -1.795317   -0.643124
H     -2.128736   -0.913260    0.692929
H     -2.029608   -0.195222   -0.961172
C     -0.369016    1.219299    0.393400
N     -0.388629    2.498033    0.221169
H      2.971029   -0.427918    0.251818
H      1.935089    1.057752   -0.316056
