13

C      1.509433   -0.554354    0.463878
H      2.113268   -1.259757    1.011230
C      1.788713    0.609322   -0.389305
H      2.202696    1.489630    0.160744
H      2.299428    0.397507   -1.353763
C      0.309017    0.619998   -0.455008
N      0.113792   -0.393608    0.290029
C     -1.306374   -0.668280    0.438547
H     -1.566864   -1.686252    0.083385
H     -1.567479   -0.577757    1.503227
C     -1.922109    0.404378   -0.382038
H     -2.997445    0.512406   -0.504272
N     -0.976075    1.106768   -0.866656
