14

C     -2.021195   -0.561168    0.952375
C     -1.060965    0.231038    0.179135
C      0.172849   -0.296666   -0.449097
C      1.348794    0.018273    0.402851
C      2.376980    0.751574    0.005187
H      2.390790    1.160710   -0.994800
H      3.217576    0.959706    0.654712
H      1.390106   -0.371217    1.431596
H      0.300622    0.232932   -1.430031
H      0.105215   -1.383202   -0.676951
O     -1.290063    1.426742    0.035946
H     -2.020395   -1.631045    0.786451
H     -3.051302   -0.161544    0.756849
H     -1.859013   -0.376131    2.047089
