12

N     -1.263273    0.001151   -0.031116
H     -1.992520    0.007350    0.697275
H     -1.623930    0.079609   -1.025105
C     -0.239003   -0.983974    0.031867
H     -0.313381   -1.983998    0.059411
C      0.669114   -0.081331   -0.657872
H      0.899232   -0.048905   -1.656768
N      1.602381   -0.196830    0.409503
H      2.115918    0.707400    0.559097
C      0.348326   -0.168776    1.201838
C     -0.123686    0.837483    0.133772
H     -0.079178    1.830823    0.278100
