11

O      1.603972    0.755011    0.751153
C      0.911570    0.218005   -0.337437
H      0.940207    0.767970   -1.283637
C     -0.542919   -0.252934   -0.054844
C     -1.608517    0.633872    0.100676
O     -2.759980    0.376119   -0.168715
H     -1.503512    1.663847    0.499500
C      0.267058   -1.106103   -0.337122
H      0.520285   -2.005272   -0.863221
O     -0.241499   -1.277608    1.070813
H      2.413334    0.227092    0.873302
