15

C      2.505101   -0.314528    0.057294
N      1.100236   -0.336805   -0.273664
C      0.161226    0.395483    0.493332
H      0.349191    0.335999    1.598227
C     -1.253113    0.294169    0.055870
C     -2.485670   -0.478618   -0.160011
H     -3.360824    0.189129   -0.376823
H     -2.318156   -1.165287   -1.014705
H     -2.777114   -1.051703    0.743590
C     -0.555070    1.499159   -0.006877
H     -0.710807    2.537802   -0.308325
N      0.756943   -1.020136   -1.251096
H      2.715252    0.477517    0.828292
H      2.776711   -1.308343    0.457987
H      3.096094   -0.053841   -0.843090
