13

C      2.439099    0.151943    0.160929
C      0.959111   -0.102389    0.133012
C      0.347423   -1.262288    0.533461
N     -0.964296   -1.071790    0.346223
H     -1.676070   -1.794519    0.567213
C     -1.166512    0.176006   -0.158551
N     -2.449303    0.697702   -0.472648
H     -3.082431    1.149937    0.223777
H     -2.798807    0.635652   -1.450941
O      0.015641    0.701376   -0.262083
H      2.576827    1.075123    0.789291
H      2.940097   -0.657366    0.710237
H      2.859223    0.300614   -0.835433
