12

O      1.979727   -1.036438    0.616376
C      1.609330   -0.113347   -0.092049
C      0.185660    0.218708   -0.340992
H      0.062940    0.659703   -1.375456
C     -0.756599   -0.949111   -0.176571
H     -0.871704   -1.550445   -1.103222
H     -0.515371   -1.591609    0.678010
N     -2.009558   -0.247379    0.083884
C     -1.617016    0.785852    0.759564
C     -0.412308    1.231750    0.612421
H     -0.006108    2.091282    0.954238
H      2.351008    0.501035   -0.616204
