14

C      2.455054    0.215708   -0.397362
C      1.007247    0.296865   -0.710092
N      0.016884   -0.160376    0.207979
C     -1.385986   -0.055796   -0.152320
H     -1.647167    0.372347   -1.119949
C     -2.356358   -0.112539    0.923558
H     -3.416446    0.171010    0.786995
H     -1.996107   -0.156301    1.953591
O     -2.104952   -1.325366    0.132992
H      0.284409   -0.565518    1.127257
O      0.692356    0.789155   -1.825949
H      2.816150    1.109159    0.165641
H      2.601938   -0.697517    0.229285
H      3.032979    0.119167   -1.321627
