11

N      3.520238   -0.010495   -0.489620
C      2.507285    0.172597    0.049004
C      1.228674    0.398293    0.756688
C      0.117019   -0.296646    0.050105
O     -0.960995    0.274725    0.022361
C     -1.983142   -0.365068   -0.627757
H     -1.644012   -0.757307   -1.602181
H     -2.817349    0.361101   -0.764887
H     -2.326968   -1.184066    0.062314
H      1.294749    0.007807    1.811532
H      1.064501    1.494886    0.732442
