12

N     -0.528256    1.506616   -0.487270
C     -0.267885    0.260206    0.136279
C      1.054244   -0.301273    0.365797
O      1.789052   -0.512555   -0.795772
H      2.741087   -0.601777   -0.556512
H      1.623928    0.442540    0.999346
H      0.972359   -1.200932    0.998041
C     -1.332654   -0.411695    0.521313
N     -2.294137   -1.260426    0.533506
H     -2.513074   -1.864480   -0.310683
H     -0.529741    2.349525    0.097188
H     -0.714922    1.594252   -1.501232
