14

C     -2.356146    0.157216    0.891193
N     -1.329781   -0.610681    0.213349
C      0.030066   -0.222359    0.368219
O      0.349340    0.776479    1.084443
N      1.108237   -0.936460   -0.274481
C      2.426770   -0.459536   -0.054644
N      2.676081    0.791484   -0.151186
H      3.631544    1.198335    0.001631
H      1.927625    1.460171   -0.396296
H      0.883328   -1.784843   -0.877652
H     -1.545147   -1.440372   -0.386612
H     -3.280430    0.250171    0.294299
H     -1.969292    1.175677    1.116782
H     -2.552195   -0.355282    1.872267
