12

O      2.407436    0.929777   -0.351469
C      1.300808    0.431629   -0.151153
C      0.696643   -0.899377   -0.083369
H      1.169523   -1.514242    0.720154
H      0.801230   -1.382463   -1.101721
C     -0.617760   -0.311060    0.200901
C     -1.725888   -0.572284   -0.795370
H     -2.680007   -0.529676   -0.216120
H     -0.922912   -0.532568    1.267766
C      0.000046    1.044268    0.131346
H     -0.051605    1.639420    1.074525
H     -0.377515    1.696576   -0.695492
