10

C     -0.388218   -0.069424   -0.026918
C     -1.692967   -0.346470   -0.101468
H     -2.048630   -1.300749    0.197050
H     -2.362162    0.398110   -0.461353
N      0.450212    1.019891   -0.309661
N      0.207100    2.194432   -0.768461
C      1.538176    0.246304    0.117033
H      2.599406    0.448640    0.186002
C      0.794784   -0.779177    0.389366
H      0.902298   -1.811558    0.778410
