14

C      1.723334   -0.103665    1.141208
H      1.475837   -0.741510    2.001172
H      2.491287    0.664932    1.325909
N      1.632750   -0.718677   -0.161324
H      2.399276   -0.477492   -0.835254
C      0.657628    0.291661    0.155764
N     -0.684006   -0.136145    0.460681
H     -0.856327   -0.536645    1.416862
C     -1.404243   -0.693535   -0.666933
H     -2.028643   -1.586711   -0.504483
C     -1.801402    0.588908   -0.128155
H     -1.592486    1.549587   -0.638264
H     -2.734552    0.634259    0.490735
H      0.721544    1.265032   -0.356607
