14

C      1.341945   -0.587966   -0.124930
C      0.448459    0.452246    0.524929
N      1.078481    1.696586    0.361358
C      1.594157    2.718298    0.246878
C     -0.843172    0.444625   -0.205308
O     -1.194974    1.423992   -0.814998
C     -1.725062   -0.752216   -0.205118
H     -1.388998   -1.439588    0.609651
H     -2.751242   -0.406874    0.025197
H     -1.620325   -1.259287   -1.165059
H      0.306229    0.227233    1.603965
H      1.961177   -1.042946    0.677785
H      0.746290   -1.336885   -0.680252
H      2.047033   -0.137218   -0.854098
