8

N      1.109189   -0.111027   -0.049928
H      2.112677    0.123303   -0.185116
C      0.027969    0.737661    0.293920
H      0.100851    1.804319    0.473012
N     -1.113122   -0.109694    0.343108
H     -2.083148    0.212841    0.572604
C     -0.697748   -1.273434    0.060243
N      0.543332   -1.383969   -0.179009
