14

C     -0.849354   -1.442806    0.780724
C     -0.232605   -0.210251    0.398430
C      1.043341   -0.092357    0.565569
C      2.325279    0.070410    0.552965
H      2.914671   -0.197013   -0.264129
H      2.750985    0.487865    1.407788
C     -1.034797    0.859579   -0.159278
O     -0.198179    1.951254   -0.447316
H     -0.231056    2.185035   -1.410103
H     -1.783859    1.249468    0.565752
H     -1.511854    0.518379   -1.103179
H     -1.665510   -1.223566    1.529700
H     -1.355016   -2.002938   -0.054040
H     -0.172046   -2.153059    1.338429
