16

C     -1.467770    1.139509   -0.233823
C     -0.480756    0.057579    0.031595
C     -1.022990   -1.276226    0.252405
H     -1.512644   -1.609664   -0.705321
H     -1.842841   -1.197003    1.010566
H     -0.322630   -2.042451    0.553511
C      0.811079    0.361289    0.051977
C      1.873985   -0.630244    0.304788
H      1.615096   -1.654941    0.046789
H      2.788496   -0.377920   -0.308216
H      2.238475   -0.578545    1.369634
O      1.235241    1.665228   -0.170303
H      1.256694    1.952023   -1.154723
H     -1.042373    2.144949   -0.063473
H     -2.401096    0.984847    0.336997
H     -1.725963    1.061570   -1.322404
