11

O      2.076529   -1.003293    0.288726
C      0.872879   -0.356546    0.036685
C     -0.362367   -0.748110    0.245987
N     -0.812537    0.500949   -0.294898
C      0.523771    0.955058   -0.534862
H      0.858017    1.828200    0.060010
H      0.804916    1.104907   -1.595877
C     -1.801706   -0.399443    0.132943
H     -2.355782   -0.094166    1.057015
H     -2.365642   -1.059282   -0.527456
H      2.561921   -0.728274    1.131727
