15

C     -1.955729    0.832297   -0.065244
O     -0.946986    0.118076   -0.691007
C     -0.070781   -0.390330    0.259094
H     -0.364733   -0.118626    1.289332
C      0.379180   -1.774399    0.008757
H      0.377012   -2.455085    0.881298
H     -0.078316   -2.222078   -0.916714
O      1.667709   -1.339165   -0.272480
C      1.308990   -0.035325   -0.053037
C      1.961314    1.136012   -0.101197
H      3.001408    1.152996   -0.361314
H      1.485596    2.069385    0.111006
H     -2.484159    0.131438    0.611668
H     -2.692617    1.214138   -0.779517
H     -1.587888    1.680668    0.532454
