17

C      0.160204    1.488547    0.626398
C      0.257245    0.106256    0.003181
O      0.933193   -0.780917    0.835047
C      2.112280   -1.208218    0.255335
H      2.767792   -0.318686    0.064229
H      1.904251   -1.683550   -0.718545
H      2.625731   -1.902638    0.949687
C     -1.093503   -0.426267   -0.390848
H     -1.054899   -1.074687   -1.313785
C     -2.148855   -0.620319    0.586736
H     -2.673871   -1.056465    1.392736
C     -2.269084    0.477359   -0.355936
H     -2.897363    1.288295   -0.646016
H      0.851352    0.241180   -0.923850
H     -0.311019    2.152124   -0.116896
H     -0.374973    1.482096    1.573021
H      1.211519    1.835888    0.776248
