17

C      2.658777    0.565402    0.419018
O      1.586395   -0.227290    0.820011
C      0.719435   -0.339202   -0.259949
C     -0.489403   -1.184730    0.064705
H     -0.268049   -2.166526    0.480889
C     -1.817727   -0.661260    0.055125
C     -2.152186    0.806705   -0.038854
H     -2.698693    0.966973   -1.001896
H     -2.895630    1.072316    0.765975
H     -1.290114    1.468305    0.081763
H     -2.638817   -1.268899    0.480360
O     -1.336774   -1.231070   -1.157621
H      0.463192    0.672891   -0.590816
H      1.310179   -0.839752   -1.079899
H      3.176598    0.093804   -0.439534
H      3.327045    0.689554    1.298798
H      2.345773    1.582780    0.101924
