14

O     -0.939288    1.533124   -0.490805
C     -0.605645    0.191858   -0.438481
C      0.412511   -0.124988    0.640787
N      1.611161    0.633077    0.343480
C      2.183227    0.083146   -0.849673
H      2.568232   -0.923271   -0.625495
H      2.266716    0.536261    1.151192
H      0.006570    0.160374    1.629186
H      0.594886   -1.214795    0.615742
C     -1.822641   -0.641485   -0.318744
O     -1.872483   -1.840590   -0.243079
H     -2.789253   -0.101526   -0.294847
H     -0.071178   -0.028347   -1.406984
H     -1.542814    1.737162    0.287721
