15

O      1.370613    1.368004   -0.522953
C      1.952994    0.439594   -0.015427
C      1.300590   -0.871921    0.184233
C     -0.131262   -0.876920   -0.315176
C     -0.906461    0.175714    0.452062
H     -0.675051    0.214954    1.543143
C     -2.337651    0.374056    0.153176
H     -3.392716    0.182919    0.104976
C     -1.375173    1.390643   -0.232611
H     -1.271507    2.335712   -0.700529
H     -0.164517   -0.696931   -1.408292
H     -0.553538   -1.871491   -0.058408
H      1.298010   -1.078885    1.274469
H      1.913773   -1.643487   -0.308757
H      2.971896    0.558038    0.303193
