15

O      1.942082    0.755420    0.423006
C      1.408306   -0.523754    0.304127
C      0.286761   -0.564283   -0.716310
C     -0.803464    0.381634   -0.273555
O     -0.430687    1.734557   -0.138611
H     -1.108984    2.251533   -0.640496
C     -1.828985   -0.174440    0.658266
H     -1.732926   -1.260738    0.939724
H     -2.187918    0.513379    1.444359
O     -2.123784    0.122272   -0.683633
H     -0.150726   -1.593265   -0.671220
H      0.665256   -0.357167   -1.729855
H      1.075852   -0.945895    1.272551
H      2.249501   -1.187240   -0.031950
H      2.739714    0.847984   -0.156404
