16

C     -2.085317    0.312277   -1.028175
C     -0.980077    0.448488   -0.020843
H     -0.986265    1.427359    0.510269
C     -0.653646   -0.787637    0.762159
H     -1.202742   -1.741485    0.554706
H     -0.488412   -0.643325    1.851618
C      0.318523   -0.243476   -0.230786
O      1.425710    0.400261    0.306577
C      2.580804    0.193050   -0.428548
H      2.819820   -0.887763   -0.473881
H      3.400941    0.715753    0.103151
H      2.486987    0.612143   -1.455233
H      0.517900   -0.824318   -1.161235
H     -1.998242    1.168650   -1.731232
H     -3.047665    0.498248   -0.469271
H     -2.108319   -0.648225   -1.546400
