14

C     -1.383871   -0.840070   -0.072139
C     -0.249226   -0.021103    0.521783
H     -0.418028    0.097004    1.630724
C      1.041250   -0.677512    0.305641
H      1.363404   -1.677381    0.633405
C      1.820579    0.125417   -0.372486
H      2.849342   -0.056437   -0.700682
O      1.184045    1.312454   -0.660023
C     -0.112794    1.310721   -0.140850
H     -0.303273    2.161886    0.551985
H     -0.811875    1.343472   -1.012824
H     -1.823925   -0.277695   -0.901303
H     -2.178002   -1.015604    0.694577
H     -0.977627   -1.785152   -0.477811
