12

N     -2.091261   -0.677803   -0.346172
C     -0.924039   -0.007482    0.121639
C      0.058909    0.988286   -0.350369
C      1.442159    0.458721   -0.370381
N      1.823193   -0.561083   -0.995421
H      2.802082   -0.925730   -1.002412
H      2.181226    1.004784    0.206590
H     -0.041371    1.882028    0.283996
H     -0.151171    1.342556   -1.399347
C     -1.632826   -0.973912    0.960573
H     -2.199937   -0.515126    1.810924
H     -1.266963   -2.015240    1.080379
