15

O      1.874750   -0.376469    1.012511
C      1.242997    0.059774   -0.151678
H      2.009279    0.351148   -0.893084
C      0.146884    1.073059    0.051844
H     -0.036858    1.346208    1.118745
H      0.197859    1.963120   -0.597538
C     -0.867332    0.070617   -0.449757
C     -1.893542   -0.280235    0.562036
O     -3.070187   -0.060175    0.316205
H     -1.660283   -0.718737    1.502838
H     -1.304761    0.362660   -1.423738
C      0.224647   -0.940125   -0.652955
H      0.124122   -1.826659    0.031443
H      0.418775   -1.241793   -1.705857
H      2.593650    0.217606    1.278985
