13

N      2.461061    0.910458   -0.048164
C      1.420018    0.417776    0.535807
O      0.416834    0.707338    1.433857
C      0.394691   -0.572451    0.889426
C     -0.586185   -0.922528   -0.200709
C     -1.369738    0.275527   -0.677529
H     -0.914854    1.235822   -0.375213
H     -2.422611    0.253656   -0.279275
H     -1.470503    0.262983   -1.790594
H     -0.034409   -1.374432   -1.058479
H     -1.313869   -1.689528    0.126401
H      0.626095   -1.387335    1.606077
H      2.793473    1.882713    0.122882
