14

C     -1.619462   -1.366417    1.213733
C     -0.974441   -0.090860    0.655566
C      0.328468    0.136442    1.398445
C      1.340132    0.658077    0.439660
O      0.857519    0.620326   -0.907259
C      1.716519    1.082221   -1.883656
N      2.438343    1.489924   -2.698279
H      2.336055    0.180860    0.514187
H      1.498552    1.744381    0.657063
H     -0.834406   -0.162060   -0.428092
H     -1.711193    0.725247    0.847668
H     -1.497907   -1.424612    2.299210
H     -1.188698   -2.252203    0.677823
H     -2.689480   -1.341326    0.915243
