15

C     -1.201755   -1.011345    0.128047
C     -0.067200   -0.030175    0.371650
C     -0.517289    1.344567    0.005451
H     -1.558076    1.470114    0.387526
H     -0.565993    1.476512   -1.085069
H      0.132826    2.144653    0.417741
C      1.113301   -0.515419   -0.433008
C      2.322986    0.378426   -0.280244
H      2.276486    0.813685    0.735629
H      1.409726   -1.504109    0.026695
H      0.886191   -0.647103   -1.494939
H      0.178711   -0.100557    1.446843
H     -0.796662   -2.039520    0.230619
H     -1.616749   -0.870074   -0.906063
H     -1.996503   -0.909656    0.902218
