15

C      1.918990   -0.414208    0.546064
C      1.098880   -0.018185   -0.669426
N     -0.293888    0.198113   -0.292501
C     -0.831894    1.367382    0.108336
H     -0.304193    2.324241    0.209721
C     -2.175203    1.152676    0.372382
N     -2.450989   -0.143977    0.132131
H     -3.391793   -0.627713    0.238674
C     -1.294413   -0.690310   -0.267101
H     -1.161827   -1.725775   -0.541577
H      1.160820   -0.779175   -1.447847
H      1.502964    0.974828   -0.993531
H      2.178178   -1.493864    0.437787
H      2.783233    0.229109    0.716246
H      1.261136   -0.353142    1.450643
