20

C     -2.248307    0.813659   -0.746056
C     -1.052954   -0.120763   -0.515439
N      0.005093    0.634980    0.021595
C      1.205938    0.327583    0.146388
C      1.678644   -1.001492   -0.307080
H      2.646594   -0.835349   -0.844057
H      1.875142   -1.619134    0.616267
H      0.985213   -1.495249   -0.991060
C      2.140304    1.309657    0.751556
H      2.161652    2.211254    0.098489
H      3.152153    0.881502    0.883842
H      1.805642    1.656091    1.750970
C     -1.435014   -1.145381    0.549184
H     -1.830259   -0.551606    1.398723
H     -0.508790   -1.653140    0.889571
H     -2.168725   -1.852535    0.137547
H     -0.784905   -0.606364   -1.477140
H     -1.925539    1.866001   -0.840699
H     -2.779859    0.450340   -1.650153
H     -2.922021    0.729948    0.127554
