13

O      1.775607   -0.745344   -0.676091
C      0.916877   -0.229230    0.248076
H      1.316718   -0.144800    1.267094
C      0.233885    1.040148   -0.108909
H      0.399813    1.905607    0.547006
H      0.455650    1.294519   -1.190378
N     -1.020222    0.405446    0.009036
H     -1.781039    0.787887    0.689206
C     -1.342087   -0.664487   -0.910762
H     -2.387001   -1.033442   -0.786665
C     -0.389162   -0.874378    0.240091
H     -0.730625   -1.606432    1.022048
H      2.551585   -0.135492   -0.864690
