11

C      1.751503    0.045277   -0.141646
C      0.253148   -0.059377   -0.110708
C     -0.714896    0.500324    0.551953
H     -0.735971    1.254984    1.327037
C     -1.715513   -0.283921   -0.159345
H     -2.191624   -1.051594    0.513892
H     -2.450173    0.280717   -0.770250
O     -0.630964   -0.824796   -0.813361
H      2.135410   -0.001052    0.902559
H      2.097899    0.956113   -0.631177
H      2.201182   -0.816675   -0.668954
