12

C     -2.463509    0.484318    0.061182
C     -1.595943   -0.679259    0.390397
C     -0.362210   -0.636730   -0.022641
C      0.900827   -0.536509   -0.293050
C      2.163619   -0.282074   -0.432416
C      3.384468    0.154565   -0.249042
H      4.152819   -0.565977   -0.018242
H      3.667445    1.188879   -0.314714
H     -1.987863   -1.517194    0.949651
H     -3.519979    0.265741    0.221987
H     -2.096285    1.324536    0.700703
H     -2.243389    0.799704   -0.993816
