16

C      2.935293    0.167581    0.568704
O      1.785162    0.342077   -0.163698
C      0.700927   -0.059054    0.313168
C     -0.523568    0.142316   -0.498745
C     -1.204032   -1.165088   -0.829255
H     -1.914296   -0.956769   -1.657581
H     -0.493817   -1.968326   -1.096240
H     -1.815097   -1.467736    0.054405
C     -1.480651    0.990839    0.317678
H     -1.358865    2.044654   -0.057348
H     -2.537395    0.700025    0.145365
H     -1.270745    0.929622    1.392287
H     -0.265089    0.621144   -1.459957
H      0.698860   -0.528094    1.280455
H      3.051030   -0.720817    1.157598
H      3.692284    0.927625    0.533165
