12

N      1.377665    0.007429    0.219669
C      0.092111   -0.393166   -0.193810
C     -0.797987    0.572003   -0.791565
H     -1.202825    0.266345   -1.779589
H     -0.535669    1.665716   -0.644339
C     -1.170372   -0.156684    0.487936
H     -1.271080    0.445450    1.418333
O     -1.448677   -1.466713    0.508993
C     -0.405997   -1.762209   -0.113424
O      1.423230    1.390583    0.364435
H      1.844643   -0.397830    1.087102
H      2.094959   -0.170924   -0.563742
