12

N      1.092678   -1.204814   -0.960481
C      1.846882   -1.919415   -1.439319
C      0.261996   -0.386896   -0.422913
C     -0.487675   -0.576873    0.834607
H     -1.262204   -1.367714    0.848743
H      0.052935   -0.502103    1.783719
C     -0.973458    0.682216    0.201914
H     -1.690533    1.310412    0.530408
C      0.456395    1.030988   -0.107388
H      0.591913    1.644754   -1.022050
H      1.083097    1.309730    0.752527
O     -0.972028   -0.020285   -0.999768
