14

C     -1.879621    1.044883    0.434727
O     -0.766290    0.430820    0.960802
C     -0.258927   -0.507503    0.068056
C      0.972259   -1.194333    0.636448
N      2.030075   -0.262508    0.921867
C      2.469667    0.436403   -0.047542
O      2.993669    1.419497   -0.596647
H      0.647508   -1.771986    1.511101
H      1.362698   -1.912693   -0.112938
H     -1.042934   -1.289668   -0.042584
H      0.014112   -0.046480   -0.905638
H     -2.689944    0.299941    0.216426
H     -1.604892    1.552550   -0.502895
H     -2.247380    1.801078    1.160132
