10

N      1.814388   -0.423337    0.371199
C      0.500499    0.102573    0.086937
O     -0.496374   -0.838111   -0.031526
C     -1.801728   -0.479002   -0.302046
O     -2.066545    0.738262   -0.439946
H     -2.587790   -1.245628   -0.393643
N      0.395536    1.340357   -0.022549
H     -0.313845    2.020337   -0.204769
H      2.003418   -0.808530    1.305524
H      2.552438   -0.406920   -0.369181
