16

C     -1.692060    0.762180   -0.263980
C     -1.037806   -0.058957    0.845147
H     -1.667748   -0.403081    1.679482
C     -0.116462   -1.114264    0.208645
H     -0.230048   -2.123300    0.502580
C      0.795787   -0.693904   -0.825280
H      1.513043   -1.418544   -1.211783
H      0.235744   -0.205167   -1.709733
C      1.386563    0.319318    0.041169
N      2.315636    1.212777   -0.026343
H      2.888482    1.354538   -0.867135
C      0.430111   -0.079902    1.117379
H      0.813026   -0.188886    2.146976
H     -2.632979    1.120812    0.126803
H     -1.957723    0.023579   -1.061806
H     -1.043567    1.492799   -0.702120
