16

C     -1.904190   -0.168965    0.711333
C     -0.910080    0.166362   -0.380887
H     -1.474268    0.430497   -1.315973
C      0.173553    1.107293   -0.021595
H      0.347506    1.893517   -0.799607
H      0.043247    1.502840    1.001711
C      1.199548    0.050878   -0.171826
C      2.526167   -0.045641   -0.046420
H      3.106571    0.820644    0.237226
H      3.058530   -0.968712   -0.218793
C      0.122217   -0.895260   -0.531696
H      0.184341   -1.296709   -1.568469
H      0.059677   -1.684999    0.258352
H     -2.768047    0.537393    0.723966
H     -2.330671   -1.173128    0.434982
H     -1.434101   -0.276012    1.687695
