12

C      1.589185    0.091496    0.217919
N      0.405469   -0.656854   -0.014849
C     -0.758095    0.114039   -0.327488
N     -1.825531   -0.800681   -0.529302
C     -2.710842   -1.533121   -0.694240
C     -1.084462    1.040881    0.772302
N     -1.341015    1.759266    1.641864
H     -0.670210    0.708662   -1.261935
H      0.536938   -1.428877   -0.675357
H      2.228502    0.030147   -0.699777
H      1.455457    1.118183    0.550490
H      2.174603   -0.443142    1.020373
