11

C     -2.143831    0.325931   -0.087781
C     -0.880824   -0.010586   -0.293655
C      0.246992    0.088111    0.622750
H      0.209015    0.460067    1.626221
C      1.330391   -0.357732    0.012952
O      2.633156   -0.446190    0.513494
H      3.317574    0.310402    0.363120
N      0.916456   -0.744831   -1.290449
N     -0.308964   -0.561895   -1.486406
H     -2.422093    0.731464    0.870938
H     -2.897871    0.205256   -0.851183
