11

C      0.163009    1.020541   -2.932119
C      0.055761    0.669615   -1.614882
C     -0.037624    0.328730   -0.398798
C      0.111290   -0.999742    0.192204
H      0.289882   -1.867808   -0.434378
N     -0.018893   -0.893522    1.502684
H      0.043836   -1.704200    2.211573
N     -0.237375    0.373731    1.838627
H     -0.345555    0.625283    2.877946
C     -0.260280    1.126275    0.768449
H      0.235947    1.321097   -4.011306
