17

C      2.953997    0.277077   -0.480035
C      1.691330   -0.365814    0.034538
C      0.533939    0.273410    0.068785
C     -0.706372   -0.366589    0.577265
H     -0.577335   -1.220215    1.239190
O     -1.485447    0.607666    1.225072
C     -2.558201    0.482887    0.349330
H     -3.440886    0.090313    0.933138
H     -2.771303    1.420041   -0.196859
C     -1.800697   -0.569592   -0.407504
H     -1.591262   -0.267992   -1.452160
H     -2.328734   -1.555727   -0.334748
H      0.513997    1.297030   -0.291181
H      1.708951   -1.382769    0.392643
H      3.488560   -0.413199   -1.160748
H      2.741680    1.258056   -0.897651
H      3.627784    0.435417    0.400926
