14

C     -1.186016    1.247278   -0.076756
C     -0.806625   -0.096901    0.470440
H     -1.231805   -0.310400    1.469319
C     -0.762064   -1.292390   -0.460877
H     -0.945271   -2.299841   -0.080457
H     -1.140698   -1.084262   -1.481313
C      0.459568   -0.647237    0.033325
C      1.789737   -0.588489    0.070107
O      2.443176    0.394345    0.831083
H      2.741365    1.215392    0.313159
H      2.420886   -1.279831   -0.472537
H     -0.593624    2.013283    0.471219
H     -2.270233    1.446835    0.061304
H     -0.918397    1.282218   -1.148013
