16

N     -1.994937   -1.202447   -0.004067
C     -0.881502   -0.282681   -0.143841
O     -1.054236    0.907030    0.567816
H     -1.993935    1.179396    0.525247
C     -0.039523   -0.244047   -1.340527
H      0.389439    0.758865   -1.618865
H     -0.321300   -0.832266   -2.245527
C      0.466820   -0.941291   -0.137203
C      1.546016   -0.311939    0.714081
O      1.815337    0.998092    0.324356
H      2.777023    1.154055    0.465814
H      2.472984   -0.912942    0.651532
H      1.175580   -0.280517    1.766649
H      0.530425   -2.048355   -0.213729
H     -2.898214   -0.805713   -0.281425
H     -1.989977   -1.592362    0.969688
