14

O      2.310393   -0.732270   -0.243230
C      1.000629   -0.623858    0.117669
H      0.732033   -1.190511    1.028173
C      0.488037    0.785924    0.211980
H      1.231366    1.550974   -0.039931
C     -0.904603    0.799036   -0.243970
H     -1.333062    1.560332   -0.896192
C     -1.286433   -0.661019   -0.487370
H     -2.071999   -0.809295   -1.193768
H     -1.426133   -1.168946    0.502034
C      0.084022   -1.207951   -0.991989
N     -0.574273    1.137020    1.108954
H     -0.866133    0.489678    1.877095
H      2.616157    0.070885   -0.749456
