18

C      2.184489    0.558719   -0.169247
C      1.222762   -0.522023    0.051589
C     -0.201730   -0.237198    0.036218
C     -0.758193   -0.404090    1.455235
H      0.057990   -0.357453    2.194902
H     -1.465298    0.407686    1.711469
H     -1.276686   -1.355796    1.568359
C     -0.913835   -1.288563   -0.823294
H     -1.186717   -2.170559   -0.227010
H     -0.226827   -1.611516   -1.623350
H     -1.801773   -0.847500   -1.313855
C     -0.641435    1.101202   -0.455636
H     -0.660113    1.159429   -1.573284
H     -1.731505    1.183240   -0.163265
H     -0.147397    1.957258    0.015131
H      1.857208    1.579210    0.012048
H      3.074256    0.389845    0.507413
H      2.614803    0.458109   -1.203422
