12

C      1.710376   -0.167981    0.016950
N      0.423237    0.165771    0.592981
C     -0.782504    0.225751   -0.124266
O     -1.189155    1.413515   -0.677552
H     -1.530305    2.211836   -0.187333
C     -1.514867   -0.845403   -0.264520
H     -1.183652   -1.786290    0.179054
H     -2.454742   -0.882644   -0.801221
H      0.400485    0.375087    1.615121
H      2.479363    0.441701    0.528140
H      1.888212   -1.256162    0.185769
H      1.753552    0.104819   -1.063123
