10

C     -1.002746   -0.493533   -0.500961
H     -0.895660   -0.985908   -1.490274
H     -1.555985   -1.107628    0.225089
C     -0.794274    0.891736   -0.265602
H     -1.323776    1.387980    0.584566
H     -0.493273    1.596000   -1.068998
N      0.292028   -0.030372    0.118640
C      1.567209   -0.364208    0.647116
O      2.338434    0.504655    1.077508
H      1.868044   -1.398722    0.672917
