15

C     -1.422224    0.142871    1.419128
C     -0.938067   -0.034149    0.040472
C     -1.899831   -0.021299   -1.079525
H     -2.956921   -0.078651   -0.716214
H     -1.751967   -0.871770   -1.778573
H     -1.727981    0.911805   -1.655910
C      0.320378   -0.201481   -0.208471
C      1.571976   -0.228913   -0.554394
C      2.819507    0.182466   -0.681686
O      3.706068    0.110611    0.375288
H      3.720543   -0.613358    1.054399
H      3.165066    0.584973   -1.626074
H     -0.646411   -0.222116    2.106277
H     -2.344518   -0.427543    1.641802
H     -1.615617    1.219652    1.663482
