10

N     -1.788410    0.863552    0.426222
C     -1.167108   -0.312397    0.899724
C     -0.461505   -1.051917    0.045796
N      0.391745   -1.316645   -1.001777
C      1.661427   -0.655453   -0.655888
C      2.742144   -0.079655   -0.376644
H      3.824763    0.519273   -0.096033
H     -1.201521   -0.589903    1.923473
H     -2.839700    1.024080    0.590270
H     -1.161834    1.599065   -0.029324
