13

O      3.260582    0.520830    0.198650
C      2.296114   -0.164068   -0.229361
N      1.341804   -0.999964   -0.344010
C      0.042475   -0.726633    0.258829
H     -0.197143   -1.401078    1.114947
C     -1.062507   -0.497061   -0.713285
H     -1.977043   -1.065842   -0.354507
H     -0.825069   -0.721783   -1.780634
N     -1.127594    0.879255   -0.361222
H     -2.029525    1.281946   -0.082564
C     -0.089338    0.727826    0.572317
H     -0.486984    0.869576    1.612723
H      0.854228    1.296997    0.392606
