11

C      0.814120   -0.612832    0.403901
H      1.536036   -1.433475    0.810073
C      1.329165    0.434293    0.054917
H      2.260243    0.918717   -0.040910
O      0.348814    1.510061   -0.356809
C     -0.957055    1.283571   -0.357890
H     -1.724335    2.054602   -0.599591
N     -1.494627    0.107517   -0.084348
C     -0.563338   -1.002039    0.206990
H     -0.517455   -1.539637   -0.879138
H     -1.031569   -1.720778    0.842806
