12

N     -1.144403    1.775923    0.587592
C     -0.429823    0.743773    0.320151
C      0.598494    0.152616    1.168665
H      0.896237    0.505199    2.136876
C      1.134051   -0.914356    0.563434
H      1.917879   -1.517011    1.000460
C      0.470422   -1.065432   -0.718749
H      0.665437   -1.828231   -1.455379
N     -0.487395   -0.043600   -0.859077
H     -0.318829    0.578546   -1.691857
H     -1.458907   -0.469723   -0.931651
H     -1.843162    2.082297   -0.120466
