15

C     -1.764873   -1.034679   -0.095098
N     -0.960387    0.005904    0.517645
H     -1.391440    0.352495    1.407990
C     -0.689541    1.067350   -0.386911
H     -1.448262    1.693070   -0.824797
C      0.604213    1.188290   -0.621097
H      1.122515    1.892341   -1.256248
C      1.236088    0.139155    0.179562
N      2.614580   -0.169872    0.291589
H      3.047146   -0.771165   -0.431874
H      3.196977    0.182993    1.066108
C      0.307977   -0.549717    0.844727
H     -1.121400   -1.728435   -0.686060
H     -2.193870   -1.663950    0.729245
H     -2.559724   -0.603781   -0.734783
