10

C      1.846887    0.025027   -0.014414
C      0.454022    0.009819    0.592417
H      0.464947    0.012608    1.690444
C     -0.571955    0.832829   -0.154775
H     -1.180063    1.468063    0.518356
H     -0.299555    1.315618   -1.106721
C     -0.648855   -0.646008   -0.116839
H     -0.501920   -1.167718   -1.100175
H     -1.468539   -1.106179    0.483227
H      1.905031   -0.744059   -0.791519
