10

O      1.429395   -0.710185    1.656039
C      1.586157   -0.348794    0.462156
N      1.125149    0.949987    0.108844
C     -0.120183    1.197608   -0.125627
C     -1.118720    0.140997   -0.036499
N     -0.837604   -1.074945    0.272571
H     -1.584964   -1.812833    0.327584
H     -2.147919    0.394051   -0.240978
H     -0.374520    2.213617   -0.386668
H      2.043209   -0.949503   -0.311602
