12

C     -1.846518   -0.535780    0.104005
C     -0.520969    0.166727    0.050668
C      0.114865    1.337103    0.295147
H      0.056455    2.366847    0.641220
C      0.923632    0.246011   -0.229873
C      1.880535   -0.397171    0.679597
O      2.968303   -0.792423    0.298132
H      1.632642   -0.533387    1.720000
H      1.274302    0.341548   -1.292381
H     -2.445253   -0.179803    0.969455
H     -1.645946   -1.613209    0.245053
H     -2.392049   -0.406463   -0.833253
