9

O      1.232057    0.450914   -2.183907
C      0.176412   -0.158096   -1.441048
N      0.728894    0.578088    0.278825
H      0.908571    0.825018    0.875521
C     -0.986115   -0.568846    0.692836
H     -1.221078    0.473910    1.295355
H     -0.197332   -0.944532    1.570750
C     -0.435876   -0.370931   -0.336262
C     -0.205533   -0.285526   -0.752070
