14

C      2.599956   -0.033812    0.312137
C      1.249685    0.382276   -0.109126
C      0.013639    0.688955   -0.382867
C     -1.078051    0.223836    0.484989
C     -2.079946   -0.640026   -0.222919
H     -1.702575   -0.923059   -1.240120
H     -3.046602   -0.111754   -0.369082
H     -2.245040   -1.595791    0.349573
H     -0.696749   -0.247918    1.409753
H     -1.620120    1.150890    0.836234
O     -0.268093    1.460074   -1.502476
H      3.280945    0.842363    0.373963
H      2.590066   -0.486009    1.325091
H      3.002883   -0.710027   -0.455279
