16

C      2.788367   -0.242067    0.024161
C      1.491967    0.459366   -0.025710
N      0.265044   -0.233825   -0.080708
C     -0.975813    0.485088   -0.128173
H     -0.905842    1.600710   -0.118802
C     -2.072467   -0.148352    0.738245
H     -2.569760    0.556130    1.405254
H     -1.888141   -1.139473    1.178001
C     -2.191902   -0.097132   -0.737230
H     -2.956227    0.605044   -1.125522
H     -2.165419   -1.063014   -1.296395
H      0.264767   -1.264108   -0.086638
O      1.527588    1.735905   -0.016889
H      2.731883   -1.273886   -0.369996
H      3.096591   -0.355617    1.103588
H      3.559365    0.375231   -0.463187
