11

N      2.060104   -0.095582   -0.117251
C      0.636899   -0.163062   -0.044826
C     -0.003337   -1.292636   -0.109464
N     -1.243386   -1.397623   -0.050444
C     -2.090600   -0.270373    0.095927
H     -3.184763   -0.400720    0.144679
N     -1.548757    0.894651    0.169118
N     -0.162818    1.002441    0.102303
H      0.351453    1.909662    0.154220
H      2.524839   -0.662754   -0.851257
H      2.660366    0.475997    0.506995
