12

O      0.977096   -0.602778    1.276950
C      0.931364    0.425860    0.334845
H      1.731818    1.170763    0.464193
C     -0.423336    0.923032   -0.091381
H     -0.824163    1.622029    0.651644
H     -0.390818    1.398702   -1.083446
C     -1.201773   -0.355797   -0.219757
H     -2.080570   -0.261070   -0.885212
H     -1.577197   -0.647909    0.775264
C     -0.211203   -1.390876   -0.685906
C      1.077145   -0.900087   -0.072522
H      1.991636   -1.381869   -0.464671
