11

O     -2.193973    1.046473   -1.455984
C     -1.396398    0.534746   -0.674977
C     -1.383873   -0.709000    0.249819
H     -2.023803   -0.635556    1.144678
H     -1.329766   -1.655044   -0.310851
C     -0.248825    0.206314    0.147566
O      0.939407   -0.316717   -0.420401
C      2.205763    0.041266   -0.038596
O      2.338339    0.889393    0.875526
H      3.116321   -0.358987   -0.473228
H     -0.023191    0.957112    0.956448
