14

C     -1.111167   -1.428136   -0.111419
C     -0.140278   -0.319773    0.022727
C      1.065870   -0.487616    0.543136
C      2.057888    0.613801    0.687305
H      2.925774    0.364627    0.010941
H      1.300474   -1.511419    0.871365
C     -0.502210    1.051478   -0.435907
O      0.530686    1.955363   -0.230139
H      0.252148    2.568665    0.497118
H     -1.415003    1.337044    0.151382
H     -0.768858    1.009530   -1.522587
H     -2.051644   -1.048061   -0.552768
H     -0.754029   -2.229544   -0.798294
H     -1.389650   -1.875959    0.867140
