13

C     -2.088279    0.189046    0.402662
N     -0.964664   -0.552337   -0.095360
C      0.332749   -0.016945   -0.032586
O      1.390481   -0.635741    0.613685
C      2.495129   -0.731392    0.055334
H      2.627644   -0.334952   -0.925344
H      3.312061   -1.207658    0.550767
C      0.521980    1.145558   -0.634959
N      0.697779    2.400416   -0.855788
H     -1.123803   -1.482842   -0.499496
H     -1.793009    0.782938    1.313331
H     -2.918232   -0.467900    0.751287
H     -2.489836    0.911810   -0.359048
