11

O     -0.872384    1.619565    1.514854
C     -0.408498    0.759691    0.710006
C      0.710695    1.066647   -0.039467
H      1.228806    2.012272    0.015880
C      1.188451    0.104437   -0.906758
H      2.073026    0.322720   -1.511300
N      0.545068   -1.070976   -0.976063
C     -0.531716   -1.383247   -0.263476
H     -1.061499   -2.326420   -0.308177
N     -1.009794   -0.454354    0.587394
H     -1.862154   -0.650336    1.177106
