12

C      1.795530    0.102645   -0.278032
N      0.443778   -0.256571   -0.687166
C     -0.650938    0.147255    0.153617
N     -0.438060    1.184249    0.912122
H     -1.196840    1.524082    1.544430
C     -1.909992   -0.569509    0.144339
O     -2.042513   -1.544669   -0.600268
H     -2.697020   -0.239154    0.781909
H      0.257283   -0.782154   -1.546711
H      2.428959    0.399142   -1.131129
H      2.218553   -0.829505    0.198428
H      1.791259    0.864189    0.508461
