14

N     -2.093324    2.514003   -0.567512
C     -1.041502    2.099996   -0.306158
C      0.250236    1.575558    0.036528
C      0.112419    0.304284    0.816531
C     -0.584697   -0.767600    0.126599
C      0.040997   -1.919117   -0.100210
C      1.458385   -2.146071    0.339343
H      1.499958   -2.468899    1.403101
H     -0.428672   -2.754385   -0.610287
H     -1.608075   -0.729184   -0.240890
H      1.117178   -0.038615    1.121261
H     -0.417341    0.542578    1.785116
H      0.949101    1.463985   -0.817660
H      0.745335    2.323466    0.715550
