15

C     -1.746030   -1.017012   -0.006198
O     -0.958506   -0.136396   -0.745263
C     -0.279546    0.773266    0.053088
O     -0.685984    2.049858   -0.358110
H     -1.505786    2.312760    0.094790
C      1.184437    0.685531   -0.213015
C      1.958349   -0.553065    0.108201
H      2.477824   -0.865782   -0.819061
H      2.760414   -0.336736    0.866848
H      1.309606   -1.390772    0.412181
O      1.829121    1.606655   -0.702026
H     -0.508302    0.607641    1.130115
H     -1.124234   -1.618157    0.715291
H     -2.248027   -1.693031   -0.707624
H     -2.463336   -0.424759    0.623880
