14

C     -2.084555    0.387704    0.227352
C     -0.606172    0.117000    0.330501
C      0.435042    0.783304    0.795906
H      0.553736    1.767286    1.265125
C      1.389553   -0.281080    0.454885
O      2.276462    0.158799   -0.526803
H      2.973552    0.727911   -0.105587
H      1.893953   -0.717170    1.343653
C      0.224050   -1.046276   -0.074961
H     -0.059259   -1.949777    0.495730
H      0.260140   -1.208043   -1.183111
H     -2.606034   -0.548462    0.542648
H     -2.315940    0.643298   -0.820473
H     -2.334528    1.165508    0.956445
