14

N      2.593653   -1.106937   -1.308213
C      2.037208   -0.536473   -0.465248
C      1.344934    0.155977    0.602628
C      0.371726    1.138768   -0.057049
C     -0.574598    0.412234   -0.891383
C     -1.432815   -0.367462   -0.293274
C     -2.252097   -1.121945    0.421205
H     -1.902990   -2.102149    0.592026
H     -3.142811   -0.633027    0.720908
H     -0.679115    0.418895   -1.958159
H     -0.099617    1.690871    0.789477
H      0.970055    1.880222   -0.659986
H      0.729551   -0.516236    1.224619
H      2.036915    0.687260    1.282451
