15

C      1.593973   -0.056532    0.353648
C      0.662196   -0.133622   -0.817117
C     -0.780486   -0.022777   -0.442288
C     -1.052220    1.276710    0.234542
O     -0.197635    2.109933    0.438608
H     -2.072823    1.454629    0.546974
C     -1.247666   -1.096740    0.458245
O     -0.537141   -1.973204    0.850587
H     -2.283931   -1.071643    0.765800
H     -1.375109   -0.089596   -1.382388
H      0.831696   -1.015255   -1.460453
H      0.869608    0.762334   -1.474139
H      2.201388   -1.006258    0.346015
H      2.312439    0.786115    0.258393
H      1.075710    0.075906    1.323574
