10

C     -1.233470    0.149909    0.038410
H     -2.102509   -0.522557   -0.038445
H     -1.351881    1.220297    0.242329
C      0.042322   -0.277658   -0.760546
H      0.110377   -0.715300   -1.679870
C      0.057081   -0.534230    0.605657
H      0.132816   -1.281536    1.297315
C      1.160491    0.437961    0.072895
H      1.013883    1.507888    0.263328
H      2.170890    0.015227   -0.041072
