13

C      2.124239   -1.097438    0.789208
O      1.209135   -0.173250    1.353532
C      0.444248    0.639673    0.509101
C      0.165117    1.743336   -0.131679
H      0.447762    2.765012   -0.364557
N     -0.731000    0.688033   -0.293474
C     -1.910326    0.114560   -0.842473
N     -3.020843    0.016811   -0.171580
H     -3.846111   -0.422461   -0.657742
H     -1.901752   -0.262958   -1.863688
H      2.608973   -1.622237    1.641102
H      2.835998   -0.572550    0.143327
H      1.574560   -1.816530    0.173410
