15

C     -0.341267   -1.021876   -0.717227
H     -0.809564   -1.948247   -0.358007
H     -0.082566   -0.961616   -1.768188
C     -1.065080    0.173430   -0.126515
H     -2.146714    0.106348   -0.071168
C     -0.472165    1.447235   -0.560237
H     -1.111166    2.253527   -0.850779
O      0.908383    1.553092   -0.575273
C      1.558445    0.519427   -0.212194
H      2.626925    0.574515   -0.267103
C      0.795448   -0.651089    0.247288
H      1.366785   -1.494185    0.619420
C     -0.334537   -0.186323    1.180257
H     -0.806734   -1.041961    1.665523
H     -0.086191    0.677722    1.794204
