16

C     -2.395217    0.289823   -0.308847
C     -1.212157   -0.280704   -1.025235
C      0.022107   -0.373598   -0.134782
O      0.398723    0.846223    0.330680
C      1.561412    1.124739    0.433402
C      2.659099    0.181702    0.068968
H      2.714455    0.097007   -1.025185
H      3.625459    0.510295    0.446721
H      2.420658   -0.796839    0.567589
H     -0.107413   -1.129624    0.668662
H      0.838512   -0.746666   -0.790687
H     -1.390396   -1.315429   -1.410399
H     -0.915684    0.417524   -1.857755
H     -2.850604    1.105630   -0.907799
H     -2.188208    0.589102    0.727361
H     -3.180745   -0.519185   -0.239817
