11

C     -0.247043    1.129228    0.167955
C     -1.062485   -0.004812   -0.272074
O     -0.571878   -1.236704    0.217584
H     -0.926105   -1.372410    1.129932
H     -2.083078    0.082157    0.157230
H     -1.193113   -0.042341   -1.373796
N      1.025606    0.974612    0.216434
C      1.731362   -0.180166   -0.111230
O      1.625111   -0.829717   -1.179967
H      2.447979   -0.575077    0.611968
H     -0.746356    2.055229    0.435963
