12

C     -1.327351    0.570527    0.164031
H     -2.211825    0.998204   -0.310071
H     -1.000068    0.851808    1.174236
C     -0.858038   -0.829111   -0.354953
H     -1.428463   -1.647554   -0.588602
C     -0.190724    0.261030   -0.873612
H      0.045257    0.772364   -1.719761
C      0.668829   -0.810780   -0.047829
O      1.099038   -0.393286    1.143054
C      1.767260    0.494534    1.349936
H      2.186853    1.214651    0.717404
H      1.249231   -1.482387   -0.653834
