17

C     -1.828029    0.419661    0.305496
C     -1.188304   -0.763276   -0.385919
C      0.305312   -0.657118   -0.397465
H      0.681101   -1.615526   -0.875485
C      0.896362   -0.540459    0.956400
H      0.263710   -0.777830    1.796559
H      1.865278   -1.143595    1.009386
C      1.435853    0.884591    0.962162
C      1.622792    1.141859   -0.525535
H      2.689693    0.763615   -0.781565
H      1.577965    2.176982   -0.790512
O      0.720359    0.353329   -1.191847
H     -1.595433   -1.705416   -0.032322
H     -1.504112   -0.676599   -1.470525
H     -1.697355    0.319728    1.419408
H     -2.896741    0.469757    0.019436
H     -1.348449    1.350297   -0.017672
