17

C     -2.411025    0.671886    0.528254
C     -1.722126   -0.504047   -0.083071
H     -2.374264   -1.404098   -0.172496
O     -1.070732   -0.142882   -1.332695
C     -0.311279   -0.672471   -0.201834
C      0.733081    0.269921    0.286417
C      2.116973   -0.260552   -0.027669
C      3.205003    0.647215    0.441043
H      3.900070    0.143557    1.137919
H      2.229188   -1.232599    0.476789
H      2.235163   -0.406055   -1.133044
H      0.690148    0.465122    1.377051
H      0.660409    1.259917   -0.205122
H      0.070619   -1.683183   -0.491300
H     -3.230177    0.991507   -0.180110
H     -1.774355    1.527818    0.733244
H     -2.946697    0.328943    1.443366
