13

C     -2.332010    0.760665    0.084482
O     -1.495310   -0.315431    0.121777
C     -0.249758   -0.272200    0.089912
C      0.633247   -1.463486    0.132226
H      0.544710   -2.013222    1.069031
H      0.428859   -2.114308   -0.738472
N      1.985556   -0.928525    0.071710
C      1.975182    0.363452    0.003333
H      2.893050    0.935611   -0.048848
N      0.628841    0.836475    0.010170
H      0.346111    1.829327   -0.035849
H     -3.403646    0.629307    0.107066
H     -1.954833    1.752336    0.032473
