14

N      3.594758    0.076948    0.368688
C      2.370701    0.353303    0.124585
C      1.085370    0.674027    0.163772
C      0.118854   -0.385269    0.500038
C     -1.125359   -0.203508   -0.315756
H     -0.979584   -0.206128   -1.414746
O     -2.092098   -1.273620    0.029106
C     -2.428248    0.063426    0.249233
H     -3.219950    0.436991   -0.414273
H     -2.531229    0.415344    1.295328
H      0.551102   -1.370529    0.232547
H     -0.149491   -0.386555    1.578197
H      0.869820    1.689404   -0.055833
H      3.935353    0.116167    1.360428
