15

C      1.442049    0.379847    0.026227
C      0.087331   -0.098159   -0.261604
O     -0.030357   -0.727591   -1.518220
H      0.617504   -1.483170   -1.601338
C     -0.500493   -1.017957    0.773592
H     -0.211467   -0.617575    1.800956
H     -0.340402   -2.060502    0.661179
C     -1.972076   -0.610270    0.676720
O     -2.055033    0.404561    0.103266
C     -0.962793    1.026215   -0.298299
H     -0.896086    1.504846   -1.258977
H     -0.691041    1.748500    0.545359
H      2.158318    0.234187   -0.824554
H      1.482922    1.465331    0.255354
H      1.871623   -0.148262    0.920338
