10

C      1.204356   -0.144198   -0.102275
C     -0.195181    0.226691    0.140092
N     -0.543738    1.602731    0.083502
O     -1.045291    2.011352   -1.002983
C     -1.107964   -0.695473    0.404227
H     -0.816929   -1.736244    0.441629
H     -2.137970   -0.461095    0.586109
H      1.249458   -1.236137   -0.323384
H      1.804428    0.072946    0.789981
H      1.588832    0.359428   -1.016898
