9

C      1.861357   -0.118796   -0.143688
O      3.091122   -0.119162    0.055529
C      0.546370   -0.113196   -0.061116
C     -0.642090    0.774079   -0.055280
H     -0.669552    1.429865    0.836739
H     -1.018824    1.213599   -0.979755
C     -0.800235   -0.702036    0.069835
H     -1.243374   -1.255083   -0.783733
H     -1.124773   -1.109270    1.061468
