14

C     -0.820306   -1.279221    0.477228
C     -0.016089   -0.000818    0.206534
C     -1.005350    1.156074    0.190275
H     -1.059185    1.600091    1.203973
H     -1.993706    0.756096   -0.101311
H     -0.732932    1.914758   -0.573916
O      0.916209    0.111959    1.238876
C      2.138618    0.283309    1.127046
O      2.777455    0.391474   -0.096684
H      2.435412   -0.182441   -0.856884
H      0.402775   -0.100299   -0.795324
H     -1.338436   -1.607495   -0.440535
H     -0.125043   -2.038632    0.872574
H     -1.579423   -1.004853    1.249463
