15

C      2.614895    0.203603    0.099443
C      1.297921   -0.232792   -0.456230
N      0.237208    0.224254    0.074236
C     -1.090786   -0.107422   -0.354994
C     -1.448978   -1.483093   -0.053336
N     -1.715199   -2.584777    0.190173
C     -2.027531    0.801510    0.452645
H     -1.769914    0.592216    1.523281
H     -3.079045    0.597813    0.250737
H     -1.703271    1.837087    0.226693
H     -1.250850    0.076818   -1.434789
H      1.192787   -0.912225   -1.280297
H      2.931897    1.109975   -0.451290
H      3.333195   -0.616019    0.058175
H      2.477671    0.493051    1.155553
