9

C     -0.956222   -0.511128   -0.097174
C      0.305644    0.189986    0.250022
O      0.281056    1.523664    0.611003
H      0.178381    2.198710   -0.153463
C      1.438250   -0.437963    0.218504
O      2.514601   -0.975247   -0.149674
H     -1.844623    0.018118    0.293759
H     -0.875487   -1.552489    0.240157
H     -1.041599   -0.453652   -1.213134
