9

N     -1.136452   -0.626942   -0.054331
H     -2.139893   -0.971839   -0.110969
C     -0.654889    0.689205   -0.074916
H     -1.288832    1.561569   -0.155956
C      0.651370    0.725011    0.015962
H      1.316185    1.603461    0.026503
N      1.122751   -0.608798    0.104661
H      2.134548   -0.868905    0.187001
C     -0.004789   -1.502762    0.062045
