17

C     -0.594936    1.578669   -0.241765
C     -0.430464    0.219570    0.395051
H     -0.449784    0.370334    1.499300
C     -1.514895   -0.733019    0.034240
H     -2.143947   -0.353736   -0.818745
H     -2.168698   -1.009064    0.888660
C     -0.756270   -1.881011   -0.497195
H     -1.141270   -2.813798   -0.882195
O      0.585561   -1.574295   -0.427434
C      0.795805   -0.452367    0.047421
C      2.171842    0.112779    0.227223
H      2.553524   -0.315469    1.173019
H      2.114077    1.212224    0.268559
H      2.802395   -0.139039   -0.646885
H     -0.457812    1.563106   -1.319442
H      0.199074    2.226779    0.196386
H     -1.564201    1.988336    0.103801
