12

C     -1.948893    0.273297    0.174994
C     -0.996716   -0.147521   -0.848314
C      0.188131   -0.533004   -0.399195
C      1.350709   -0.787217    0.121189
C      2.252059    0.331302    0.261784
O      2.360891    0.912457    1.376948
H      2.849177    0.696117   -0.571088
H      1.495696   -1.803185    0.384495
H     -1.082440   -0.199580   -1.892142
H     -2.990715    0.364743   -0.183931
H     -1.620780    1.294303    0.527111
H     -1.857121   -0.401710    1.048149
