12

O      1.572085    1.290699   -0.636502
C      1.395042    0.145598   -0.171025
C      0.284590   -0.076592    0.790137
C     -1.027452   -0.173659    0.137403
C     -1.980161    0.668531    0.437576
H     -1.797232    1.440263    1.171418
H     -2.976153    0.655803   -0.005205
H     -1.217870   -0.933794   -0.590946
H      0.448446   -1.065179    1.314245
H      0.238795    0.734584    1.554014
N      2.186815   -0.897270   -0.518258
C      2.873096   -1.788983   -0.835087
