12

O      0.222163    1.637683    1.479659
C     -0.067758    0.390236    1.269978
C      1.000629   -0.412899    0.714077
C      1.836170   -1.056694    0.292263
H      2.914903   -1.860333   -0.243758
C     -1.201632    0.305041    0.046850
H     -2.174605    0.730349    0.187982
C     -0.681097   -0.168526   -1.208856
H     -0.261809   -0.488133   -2.197259
N     -1.249063   -1.122289   -0.317709
H     -0.603359   -0.244328    1.929674
H      0.265458    2.289893    0.694870
