16

O     -2.075081    0.753085   -0.939794
C     -1.025725    0.322723   -0.182371
H     -1.324114    0.516878    0.951395
C     -0.678622   -1.072571   -0.206741
H     -1.379569   -1.814484    0.178596
H     -0.504905   -1.394626   -1.328677
C      0.690753   -1.214973    0.448106
H      1.255076   -2.058403    0.132854
H      0.415352   -1.306596    1.577300
C      1.267882    0.142334    0.254935
N      2.491304    0.548317    0.503134
H      2.782316    1.547799    0.321674
C      0.258447    1.088154   -0.268603
H      0.235801    2.074565    0.289181
H      0.491615    1.220922   -1.355715
H     -2.900528    0.646875   -0.375275
