18

C      2.746676   -0.183630   -0.499924
C      1.480751    0.506248   -0.173421
C      0.313260   -0.454762    0.060987
C     -0.879807    0.431388    0.378600
C     -2.103458   -0.352594    0.633742
C     -3.171445   -0.172745   -0.136571
H     -3.156889    0.542068   -0.950331
H     -4.090123   -0.719575    0.006997
H     -2.181384   -1.084317    1.433621
H     -0.609508    1.066333    1.265720
H     -1.068236    1.162481   -0.434567
H      0.546152   -1.055963    0.937509
H      0.149610   -1.067073   -0.835565
H      1.120909    1.203000   -0.974726
H      1.570383    1.117340    0.750340
H      2.703922   -1.278111   -0.535637
H      3.551427    0.188741    0.191920
H      3.077760    0.151170   -1.518582
