17

C     -2.187565    0.440944   -0.003665
C     -0.756315    0.303791    0.382966
H     -0.662782    0.283993    1.477595
C     -0.155006   -0.979391   -0.174427
H     -0.330815   -1.090051   -1.208366
H     -0.637563   -1.784257    0.408267
C      1.313206   -1.033597    0.256413
H      1.796355   -1.861217   -0.282591
H      1.419986   -1.170630    1.339048
C      1.959806    0.246670   -0.239088
H      2.989531    0.207219   -0.460749
C      1.274610    1.363265   -0.397555
H      1.845528    2.245344   -0.772358
O     -0.062875    1.423535   -0.101893
H     -2.432603    1.301224   -0.640711
H     -2.809330    0.581225    0.933208
H     -2.564167   -0.478067   -0.516094
