12

N      0.873119    1.539202    0.242950
C     -0.375018    1.345111   -0.028222
H     -1.137327    2.097774    0.034175
C     -0.562216   -0.057748   -0.428418
N     -1.448832   -0.771555    0.471761
H     -1.291676   -1.808293    0.305114
H     -1.284857   -0.508069    1.469677
H     -0.943465   -0.111492   -1.448794
C      0.801933   -0.619552   -0.334608
H      1.071491   -1.626491   -0.550563
C      1.619251    0.338745    0.060501
H      2.677597    0.182369    0.206428
