16

C     -0.822669   -1.282277    0.257011
C     -0.542566    0.192969    0.345659
C      0.658010    0.607874   -0.465908
C      1.919647   -0.093219   -0.014912
H      1.875395   -1.185888   -0.121888
H      2.748694    0.295526   -0.641040
H      2.130056    0.220433    1.018883
H      0.816054    1.692628   -0.272008
H      0.492274    0.488702   -1.555360
C     -1.712682    0.956543   -0.161690
O     -2.283648    1.728378    0.564533
H     -2.088967    0.854767   -1.172003
H     -0.349333    0.450573    1.396229
H     -1.860444   -1.430227    0.664449
H     -0.141916   -1.837032    0.929243
H     -0.837906   -1.659749   -0.771198
