14

O      2.778825    0.942959    0.132736
C      1.811663    0.026585   -0.258878
C      0.709012   -0.094948    0.803823
C     -0.339032   -1.054625    0.392282
O     -1.465696   -0.864586    0.100804
C     -2.227171    0.234378    0.025248
H     -1.815560    1.104229   -0.505701
H     -2.582715    0.599820    1.022173
H     -3.163983   -0.063659   -0.542421
H      0.000327   -2.114894    0.355846
H      0.300901    0.939526    0.913039
H      1.150682   -0.397516    1.772572
H      1.405484    0.266799   -1.238502
H      3.437264    0.475933    0.728292
