19

C      2.645951    0.076963   -0.025026
C      1.753014    0.906248   -0.871071
C      0.320116    0.542799   -0.857339
C     -0.135028   -0.279695    0.289839
H      0.606662   -0.520433    1.088295
C     -1.546435   -0.246481    0.759631
C     -2.592888    0.554685    0.038084
H     -2.407295    1.633773    0.024432
H     -2.730590    0.218915   -1.024847
H     -3.568953    0.379413    0.528128
H     -1.753111   -0.367964    1.857651
C     -1.064877   -1.459257   -0.009150
H     -1.386788   -1.593873   -1.061823
H     -0.985718   -2.367218    0.593653
H      2.104753    0.872767   -1.944315
H      1.895022    1.978760   -0.566207
H      2.339878   -0.967835    0.109608
H      2.854273    0.604332    0.941909
H      3.652015    0.034100   -0.534224
