15

C      2.084235   -0.163931   -0.046979
C      0.702158   -0.653965   -0.054434
H      0.434939   -1.726593   -0.130305
N     -0.126920   -0.027933    1.164797
C     -0.371387    1.416131    0.705923
H      0.554058    2.028464    0.670743
H     -1.253467    1.804385    1.222626
C     -0.534921    0.265956   -0.053435
N     -1.546415   -0.269685   -0.928125
O     -2.224617   -1.239955   -0.209048
H     -2.763292   -1.715970   -0.959241
H     -2.308005    0.503742   -1.128696
H      2.492873    0.008842    0.976042
H      2.183813    0.737072   -0.676671
H      2.676950   -0.966561   -0.553197
