12

C     -1.188469   -0.889921    0.516118
C     -0.240999    0.215934    0.440663
H     -0.685826    1.183509    0.823078
O      1.023347    0.113638    0.969599
C      1.557147    0.488582   -0.207645
H      2.446522    1.167832   -0.250263
C      0.391089    0.550229   -0.900723
H     -0.167531    1.039737   -1.674674
O      1.359318   -0.395404   -1.349687
H     -2.153179   -0.581884   -0.004511
H     -0.847720   -1.837796    0.052146
H     -1.493700   -1.054456    1.585898
