9

O     -1.433467   -1.388847   -0.265696
C     -0.174296   -0.772168   -0.150353
N      0.220570    0.431363    0.092709
N     -0.478406    1.624576    0.343175
H     -1.281142    1.893129   -0.270589
C      1.576339    0.018610   -0.003627
H      2.553499    0.502510    0.086981
N      1.180564   -1.184172   -0.246526
H     -2.163662   -1.124999    0.413925
