12

C     -1.336423   -0.814263   -0.172346
C     -0.333964    0.221596   -0.067332
C     -0.519079    1.652286   -0.047121
O     -0.549049    2.205553    1.104840
H     -0.631531    2.266395   -0.945369
C      0.904156   -0.155269    0.021936
C      2.148932   -0.584750    0.152882
H      2.638441   -0.703273   -0.771026
H      2.459381   -0.741506    1.145602
H     -0.942489   -1.664699   -0.762554
H     -1.521062   -1.231518    0.860898
H     -2.317314   -0.450551   -0.520410
