9

O      1.807757   -0.527287   -0.276623
C      0.553765    0.038983   -0.134926
N      0.360292    1.311136   -0.094772
O     -0.949846    1.641943    0.049245
C     -1.648697    0.624131    0.107627
C     -0.778886   -0.558977   -0.002859
H     -0.906703   -1.148178    0.929764
H     -1.026869   -1.195052   -0.875309
H      2.589186   -0.186698    0.297853
