14

C     -2.055194   -0.317363    0.148714
C     -0.740819    0.271817   -0.011060
C     -0.080616    1.235025    0.086097
H     -0.663748    2.274885    0.472967
N      1.244498    1.262071   -0.009294
C      1.735722    0.075104   -0.193288
O      2.910672   -0.431460   -0.282827
H      3.671178    0.189347    0.220129
C      0.440399   -0.772078   -0.360904
H      0.430395   -1.487507    0.485742
H      0.275229   -1.196848   -1.311782
H     -2.123822   -0.395418    1.273078
H     -2.794392    0.517117   -0.184050
H     -2.249503   -1.224693   -0.333523
