9

C      2.014924   -0.130278   -0.079390
C      0.771020    0.220527    0.006690
N      0.262404    1.560527    0.206086
O     -1.104297    1.442127    0.231593
C     -1.496053    0.137345    0.064536
H     -2.513539   -0.257266    0.041485
C     -0.422019   -0.623384   -0.072659
H     -0.438342   -1.717505   -0.222302
H      2.925900   -0.632094   -0.176038
