10

O     -1.303895    1.786155    0.167913
C     -0.587275    0.749525    0.069640
C      0.856542    0.767715   -0.090696
H      1.456309    1.682196   -0.141098
C      1.266442   -0.484796   -0.158697
H      2.326486   -0.767854   -0.281718
O      0.199964   -1.349610   -0.055486
C     -1.004948   -0.668376    0.090766
H     -1.465660   -0.818494    1.107955
H     -1.743964   -0.896461   -0.708580
