14

C      0.956455   -0.405064   -0.711517
H      1.488085   -0.090321   -1.638193
H      0.852250   -1.516137   -0.670877
C     -0.399087    0.242964   -0.565961
H     -0.703486    0.871295   -1.436013
C     -1.439571   -0.582895    0.066369
H     -2.452326   -0.337407   -0.381304
H     -1.289914   -1.690631    0.047755
O     -1.317150    0.062701    1.251141
C     -0.358812    0.901519    0.751994
H     -0.678887    1.990532    0.722839
N      0.949175    0.725758    1.281561
C      1.672902    0.025780    0.507731
H      2.720368   -0.198094    0.774475
