14

C      2.117575   -0.097139    0.158097
C      1.134683    0.001355   -0.991798
H      1.163843   -0.724816   -1.797531
H      1.271654    1.012130   -1.436083
C     -0.018871    0.040034   -0.018837
C     -1.286405    0.662778   -0.102091
H     -1.791606    1.015025   -1.017471
H     -1.750926    1.097786    0.847011
C     -1.135571   -0.863024   -0.077413
H     -1.363451   -1.397473    0.832718
H     -1.200816   -1.408144   -1.033307
C      0.971773    0.077927    1.130215
H      0.830504   -0.562590    2.002483
H      1.057613    1.146150    1.504006
