9

O     -0.013866   -0.696175    1.297044
C      0.032286   -0.345748   -0.050433
C     -0.961367    0.711524   -0.329596
C     -0.660380    1.960856   -0.033757
H     -1.900356    0.472108   -0.760085
C      1.367382    0.177467   -0.328264
N      2.429722    0.599015   -0.531087
H     -0.160453   -1.224168   -0.718034
H     -0.132967   -1.654880    1.454213
