11

O     -0.466494    1.466857    0.703891
C     -0.126302    0.607369   -0.331341
H     -0.066211    1.114223   -1.309804
C      1.101060   -0.168327    0.042610
H      1.884194   -0.084254   -0.719978
H      1.541899    0.116584    1.013408
N      0.674594   -1.553760    0.150785
C     -0.601284   -1.488303    0.208015
C     -1.170179   -0.459215   -0.375539
H     -2.113678   -0.467405   -0.888518
H     -0.657598    0.916230    1.506471
