13

N      3.351243   -0.751158    0.554877
C      2.362857   -0.169456    0.352646
C      1.126871    0.581678    0.107789
C      0.003255   -0.421282   -0.039302
C     -1.317981    0.246207   -0.294779
O     -2.272812   -0.783548   -0.412050
H     -2.811118   -0.762799    0.426424
H     -1.571279    0.945933    0.515152
H     -1.302566    0.750710   -1.280282
H      0.249823   -1.134006   -0.825102
H     -0.059509   -0.961339    0.946177
H      0.981311    1.234889    0.994435
H      1.259905    1.224172   -0.761499
