15

O      2.775381   -0.662730    0.775482
C      1.876641   -0.614040   -0.087828
C      0.588957   -0.096187    0.348443
H      0.582854   -0.017840    1.483563
C     -0.625340   -0.876375   -0.068009
H     -0.847216   -1.812626    0.530156
H     -0.451925   -1.254453   -1.157660
C     -1.691596    0.156108   -0.014023
H     -2.552213   -0.127097   -0.755681
H     -2.128605    0.159884    1.019050
O     -1.140505    1.361007   -0.246283
C      0.212845    1.288328   -0.167942
H      0.600860    2.065198    0.546220
H      0.731317    1.379717   -1.113866
H      2.068546   -0.948895   -1.091620
