11

O      2.560911    0.789709   -1.187876
C      1.454805    0.519694   -0.636013
O      0.207577    1.018836   -1.053340
C     -0.721557   -0.033076   -0.627969
H     -0.891478   -0.891243   -1.296929
C     -1.560182   -0.022353    0.514431
H     -1.895783    1.000131    1.008046
H     -2.177523   -0.890426    0.834375
C     -0.090833   -0.345441    0.768919
C      1.151184   -0.315937    0.539075
H      1.962878   -0.829893    1.137281
