16

C     -2.204160    0.289181   -0.864777
C     -0.798305   -0.224143   -0.720003
C     -0.147752    0.194681    0.573827
C      1.222698   -0.379334    0.577349
C      1.580130   -1.220148    1.531728
C      2.220305   -0.039392   -0.465908
H      1.830162    0.663688   -1.221294
H      3.079606    0.447992    0.077701
H      2.610598   -0.955332   -0.941149
H     -0.680226   -0.149144    1.463550
H     -0.057218    1.318300    0.611566
H     -0.730012   -1.331373   -0.770977
H     -0.181173    0.181652   -1.545925
H     -2.332126    0.800291   -1.839800
H     -2.503522    0.972741   -0.052053
H     -2.909006   -0.569659   -0.870958
