16

C     -1.652905   -1.086531    0.239641
C     -0.783499   -0.052781   -0.489914
C     -1.176077    1.340933   -0.036923
H     -1.469397    1.228620    1.047148
H     -0.330936    2.050117   -0.094499
H     -2.041207    1.645684   -0.659142
O      0.487467   -0.267170   -0.100085
C      1.480945    0.241395   -0.545804
C      2.788328   -0.179996    0.078116
H      2.620880   -0.212202    1.154797
H      3.005316   -1.192673   -0.337452
H      3.579846    0.497263   -0.234742
H     -0.950364   -0.104200   -1.580693
H     -1.138002   -2.061823    0.192260
H     -1.773133   -0.749175    1.285260
H     -2.647261   -1.097460   -0.239506
