14

C     -1.040074   -0.770404   -0.431536
H     -2.050067   -1.151562   -0.251586
H     -0.905864   -0.636413   -1.466964
C     -1.235346    0.802273   -0.020102
H     -2.112401    1.119769    0.284828
C     -0.059345    1.491343   -0.021441
H     -0.287077    2.599565    0.269343
N      1.281710    1.277444   -0.141204
C      1.963959    0.119659   -0.265792
H      3.051645    0.163962   -0.422151
O      1.344152   -1.202908   -0.169664
C      0.066133   -1.095750    0.386796
H      0.107852   -0.523383    1.390457
H     -0.125280   -2.193594    0.859015
