15

C      1.996634    0.269653   -0.217573
C      1.010649    0.032796    0.887174
C     -0.336334   -0.133112    0.292566
C     -0.972157   -1.264900    0.317984
C     -2.126863   -1.313468   -0.283672
H     -2.702901   -2.219975   -0.321968
O     -2.327252   -0.027741   -0.770595
C     -1.210742    0.802533   -0.417726
H     -1.603640    1.511215    0.338887
H     -0.802654    1.288953   -1.291397
H      1.014150    0.911334    1.589573
H      1.306334   -0.880435    1.453247
H      2.342422    1.310076   -0.229889
H      2.897878   -0.394323   -0.117611
H      1.514476    0.107394   -1.228999
