13

C      1.914780    0.377614    0.414691
O      1.165772   -0.548631    1.078598
C      0.108152   -0.983382    0.733237
C     -0.644898   -0.635635   -0.478407
C     -1.795621    0.276056   -0.047483
H     -2.405029    0.425337   -0.978682
H     -2.373306   -0.277410    0.720485
H     -1.341748    1.198087    0.316859
H     -0.045709   -0.145086   -1.265607
H     -1.145980   -1.525477   -0.949176
H      1.711852    1.415150    0.748448
H      2.989142    0.141743    0.676004
H      1.862591    0.281634   -0.684481
