11

C     -0.408273   -0.102937   -0.008917
C     -1.513330   -0.818888    0.081223
H     -1.445684   -1.831187    0.424305
H     -2.454577   -0.413180   -0.177209
C     -0.084480    1.269141   -0.418973
H     -0.534677    2.069722    0.209535
H     -0.320169    1.461359   -1.492159
O      1.264249    1.034480   -0.163202
C      1.004709   -0.251299    0.226934
N      1.723978   -1.247808    0.651032
H      2.768253   -1.169403    0.763261
