15

C      2.019668    0.684781    0.072091
C      1.190879   -0.319588   -0.694412
N      0.364733   -1.061314    0.205134
C     -0.641257   -0.229993    0.778545
C     -2.006583   -0.401405    0.161792
C     -2.793568    0.816099    0.461309
N     -3.417759    1.761993    0.710781
H     -1.939858   -0.577551   -0.938026
H     -2.575947   -1.232558    0.652488
H      0.853975   -1.704890    0.829627
H      0.542733    0.267686   -1.383007
H      1.896608   -0.972953   -1.246921
H      1.291868    1.310988    0.665670
H      2.513857    1.418319   -0.620474
H      2.700649    0.240385    0.798502
