11

C     -1.696103    0.299132    0.110202
C     -0.492188   -0.511313    0.390059
C      0.622271   -0.141319   -0.522680
C      1.786710    0.319655   -0.104666
H      1.959086    0.441920    0.953327
H      2.559964    0.572490   -0.809181
H      0.448541   -0.264227   -1.583390
H     -0.759000   -1.580025    0.178517
H     -0.147482   -0.403478    1.447483
O     -1.704771    1.136893   -0.762085
H     -2.577028    0.130272    0.702414
