11

C      1.740814    0.000400   -0.073000
C      0.329028   -0.231243    0.001896
N     -0.457772   -1.125028    0.327062
C     -1.612521   -0.469774    0.151812
H     -2.575741   -1.006520   -0.099248
C     -0.931647    0.657943   -0.244919
H     -1.105429    1.409746   -0.927442
O     -1.839296    0.677365    0.964106
H      2.140845    0.404481    0.923735
H      2.280937   -1.031989   -0.210664
H      2.030781    0.714620   -0.813338
