12

C      1.741064   -0.239131   -0.002362
C      0.693836    0.821156   -0.254681
C     -0.623448    0.392217    0.385517
O     -1.433434    1.523127    0.430097
H     -1.349346    1.983187   -0.450775
C     -1.277484   -0.700455   -0.352554
O     -2.391929   -0.622064   -0.861305
H     -0.764132   -1.646784   -0.469538
H     -0.466742    0.060628    1.434328
H      1.657377   -0.978711   -0.840190
H      1.487457   -0.824878    0.916982
H      2.726781    0.231706    0.064481
