14

C      1.801803   -1.008200   -0.004274
C      0.930019   -0.298992    0.683108
C      0.012557    0.695203    0.088169
O      0.369056    1.110965   -1.169631
H      0.791372    2.018963   -1.142854
C     -1.412518    0.182355    0.151616
O     -1.541671   -0.892786   -0.710645
H     -2.496155   -1.064912   -0.930304
H     -2.160718    0.946762   -0.068843
H     -1.568762   -0.200824    1.181934
H      0.035501    1.595737    0.768391
H      0.870904   -0.443549    1.754548
H      2.453732   -1.726010    0.478914
H      1.914878   -0.914712   -1.080126
