14

C      1.951374   -0.465163    0.308459
C      0.838362    0.252543   -0.367053
O      1.143104    1.039832   -1.285748
C     -0.548346    0.081004   -0.013085
C     -0.953603   -0.732380    0.946546
H     -1.992579   -0.861894    1.212866
H     -0.229673   -1.316914    1.517942
C     -1.556564    0.856969   -0.766112
H     -2.592726    0.518785   -0.560005
H     -1.429550    1.945172   -0.606837
H     -1.390891    0.609288   -1.855529
H      2.912463    0.085065    0.177379
H      1.787188   -0.528532    1.406776
H      2.061440   -1.483776   -0.115600
