13

N     -1.850258   -0.411061    0.072976
C     -0.411482   -0.487210    0.239858
O     -0.176433   -1.290582    1.380362
H      0.343618   -2.085806    1.075079
C      0.284655   -1.032562   -0.952004
N      1.239223   -0.036876   -1.307657
H      1.915128   -0.073372   -2.103299
C      1.135706    1.042932   -0.397969
H      1.758681    1.956358   -0.436747
C      0.203620    0.814955    0.495146
H     -0.020254    1.549899    1.288842
H     -2.155541    0.479653   -0.374040
H     -2.266663   -0.426328    1.019454
