16

C      1.628239   -0.209688    0.391979
C      0.287718    0.213550    0.941547
C     -0.776805    0.096319   -0.124766
O     -0.391117    0.931867   -1.162939
C     -0.428399    2.139747   -0.964614
H     -0.748339    2.559758   -0.018792
C     -0.950494   -1.297633   -0.639201
H     -1.149631   -1.220991   -1.747119
H     -1.903532   -1.743458   -0.228395
H     -0.096613   -1.964480   -0.448640
H     -1.761057    0.462419    0.225121
H      0.358327    1.292734    1.201320
H      0.049192   -0.414341    1.804992
H      1.755610    0.297933   -0.597821
H      1.663628   -1.296529    0.339651
H      2.463271    0.152793    1.027676
