11

O      1.318396   -1.338778    0.056076
C      1.811713   -0.181484    0.025052
H      2.891263   -0.121041    0.034697
N      1.139928    1.086264   -0.021896
C     -0.148003    1.337449   -0.043537
H     -0.449452    2.365289   -0.078996
N     -1.217284    0.406111   -0.025749
H     -2.187502    0.776308   -0.047715
C     -1.110343   -1.006991    0.019716
H     -2.045805   -1.560304    0.027094
C     -0.002912   -1.762823    0.055258
