13

C     -1.857552   -0.236669    0.130262
C     -0.609245    0.596058    0.155650
C      0.564511   -0.304835    0.134209
N      1.838570    0.302777    0.153621
C      2.785368   -0.156916   -0.578486
H      2.578353   -1.012040   -1.201334
H      1.979999    1.137548    0.784402
O      0.397648   -1.554073    0.100173
H     -0.530861    1.244502   -0.753804
H     -0.599417    1.296217    1.015944
H     -1.749543   -1.131883    0.769443
H     -2.727685    0.338512    0.504267
H     -2.070145   -0.519197   -0.929860
