17

C     -1.483647   -1.192913    0.411274
C     -0.753402   -0.330997   -0.606250
H     -0.719873   -0.843260   -1.594511
C     -1.228890    1.071159   -0.684506
H     -2.039970    1.281015    0.047440
H     -1.432281    1.427898   -1.715806
C      0.104033    1.470582   -0.236583
H      0.564029    2.446815   -0.037765
C      0.524164    0.224735   -0.167802
C      1.838055   -0.370230    0.221559
O      2.759489    0.594098    0.567563
H      3.150660    0.382365    1.454408
H      1.627651   -1.090107    1.036734
H      2.186463   -0.957392   -0.654331
H     -2.413119   -1.558312   -0.085416
H     -0.857757   -2.008773    0.785267
H     -1.825605   -0.546682    1.258727
