16

C      2.658288    0.035416   -1.139469
C      1.953287    0.883017   -0.185967
C      0.961446    0.319554    0.473551
C     -0.058960   -0.310980    1.003556
N     -1.261466   -0.229954    0.298234
C     -2.204508   -0.843834   -0.654727
H     -1.870948   -0.943969   -1.704889
H     -2.767044   -1.744647   -0.292809
C     -2.515555    0.488100   -0.063404
H     -3.259339    0.524942    0.758282
H     -2.419281    1.374117   -0.704686
H      0.170523   -0.805668    1.908758
H      2.102502    1.894766    0.073176
H      3.382163   -0.593021   -0.591416
H      1.965870   -0.664745   -1.692518
H      3.163022    0.616907   -1.942795
