10

O      1.323369   -1.435828   -0.010272
C      1.451454   -0.319377   -0.485039
C      0.476112    0.723192   -0.471556
C     -0.705704    0.583506    0.074229
C     -1.246250   -0.566046    0.733566
O     -0.786319   -1.670353    0.958442
H     -2.287482   -0.435703    1.118753
H     -1.335463    1.496926   -0.007747
H      0.717703    1.715880   -0.946957
H      2.392580   -0.092196   -0.963419
