13

C     -1.247563   -1.249791   -0.027751
H     -1.403339   -1.360915   -0.986013
H     -1.233572   -1.554579    0.962804
C     -2.262731    0.064469    0.005339
H     -1.465882    0.404731   -1.220966
H     -2.234552    0.877599    0.190575
C     -0.296288    0.779259    0.171658
N      0.620999    1.109297    0.267025
C      2.371486    1.761881    0.461521
H      2.772745    0.999827    0.305168
C      1.516334   -0.334478    0.009555
H      2.489688   -0.761496   -0.130459
N      0.372675   -0.735805   -0.008457
