14

C      0.985294   -0.880564   -0.012178
H      1.182468   -1.459994   -0.914403
H      1.705318   -1.189362    0.785980
C      1.144791    0.607528   -0.177712
H      2.169265    0.955001   -0.293148
O      0.264874    1.163662   -1.079094
C     -0.728798    1.072311   -0.125983
H     -1.454845    1.890596   -0.071341
C     -1.276146   -0.327110   -0.153061
H     -2.299893   -0.371974    0.236022
H     -1.344861   -0.668972   -1.227630
N     -0.342184   -1.179280    0.547459
H     -0.342377   -0.875213    1.550239
C      0.337095    1.263371    0.934850
