13

C     -2.165385    0.291588    0.519135
O     -1.003837   -0.418685    0.857810
C     -0.125705   -0.319069   -0.225950
C      1.140235   -1.081182    0.117850
C      2.299216   -0.147230   -0.129505
H      2.706438   -0.229450   -1.138899
H      3.110326   -0.398517    0.582512
H      1.954384    0.901196    0.090302
H      0.056088    0.757569   -0.394207
H     -0.576445   -0.823488   -1.100893
H     -1.871397    1.358718    0.327781
H     -2.963795    0.181789    1.251530
H     -2.560122   -0.073239   -0.472980
