11

C      2.271170    0.457532    0.183075
C      0.983935    0.340678   -0.111826
O      0.386722   -0.900916   -0.192967
C     -0.872314   -1.042655    0.357836
C     -1.892283   -0.611953   -0.326519
N     -2.899042   -0.003474   -0.854342
H     -2.984973    1.018812   -0.601698
H     -0.992051   -1.496717    1.323765
H      0.391410    1.218366   -0.291252
H      2.884512   -0.418479    0.367275
H      2.722914    1.438805    0.242481
