13

N     -2.039760   -0.105468    0.104216
C     -0.676410   -0.424827    0.250322
C      0.163522    0.767773   -0.138887
C      1.596930    0.421922    0.018226
C      2.012017   -0.727554   -0.428396
O      2.563217   -1.827765   -0.635993
H      2.307735    1.110048    0.499287
H     -0.057457    1.658842    0.456892
H     -0.008162    0.989227   -1.228279
H     -0.408027   -1.249224   -0.442258
H     -0.423690   -0.742216    1.279449
H     -2.729842   -0.757032    0.476812
H     -2.300074    0.886273    0.073096
