19

C      2.583638    0.023110   -0.407642
C      1.362994   -0.889423   -0.313515
C      0.251430    0.002539    0.218325
H      0.586009    0.380579    1.234650
C     -0.078487    1.156736   -0.622589
C     -1.569978    1.235245   -0.689409
H     -1.976114    0.931407   -1.687786
H     -1.950458    2.224319   -0.383806
C     -2.087294    0.231522    0.325941
H     -2.167501    0.734761    1.335556
H     -3.020157   -0.245940    0.033744
C     -0.991883   -0.776249    0.413357
H     -1.102559   -1.527620   -0.442265
H     -0.949064   -1.315014    1.382455
H      1.530535   -1.670513    0.473711
H      1.095603   -1.293871   -1.288144
H      2.263283    0.840578   -1.112922
H      3.468358   -0.487458   -0.795801
H      2.751644    0.445292    0.622250
