12

C      2.017691    0.544591    0.155715
O      0.632095    0.486134    0.341860
C     -0.052103   -0.642060   -0.069112
O      0.605112   -1.569423   -0.594319
C     -1.486703   -0.694739    0.127198
C     -2.128307    0.308688    0.684774
H     -3.197439    0.227464    0.811862
H     -1.588185    1.181826    1.001204
H     -1.991434   -1.588039   -0.203919
H      2.491395   -0.016128    0.989839
H      2.352923    1.587322    0.238196
H      2.344954    0.174364   -0.835529
