11

C     -0.523997    1.393679    0.868814
C     -0.036436    0.471758   -0.208759
H      0.071252    0.900794   -1.217431
C      1.102230   -0.425065    0.175693
H      1.930385   -0.515076   -0.548058
H      1.485394   -0.143518    1.175898
O      0.236827   -1.492568    0.127441
C     -0.889869   -0.780393   -0.228557
H     -1.647169   -0.848771    0.579274
H     -1.305976   -0.997197   -1.233539
H     -0.422641    2.436354    0.509224
