12

C      2.557767    0.613585   -0.414198
C      1.178237    0.256039   -0.143163
C      0.020637   -0.066007    0.084248
C     -1.343276   -0.441717    0.326770
O     -1.975216   -1.438993   -0.403299
H     -2.477507   -2.201398    0.077987
C     -2.028106    0.183016    1.280936
H     -1.562221    0.966755    1.868821
H     -3.051851   -0.072291    1.490304
H      2.704774    1.659496   -0.078591
H      3.285837   -0.076933    0.073856
H      2.690924    0.618448   -1.515900
