13

C      0.932250   -0.816611    0.398648
H      1.546903   -1.649375   -0.012400
H      0.815881   -0.731341    1.471055
C      1.117275    0.523082   -0.298013
H      1.986599    1.077777   -0.296863
C      0.096029    0.243747   -1.213389
C     -0.384982   -0.865224   -0.390367
H     -0.848519   -1.692377   -0.754228
C     -1.250090    0.271299    0.322012
H     -1.236929    0.037292    1.375552
H     -2.221655    0.252692   -0.159290
N     -0.219179    1.174717   -0.188225
H     -0.333582    2.174323   -0.254492
