14

C     -2.006361    0.552522    0.585692
C     -1.089775   -0.408031   -0.093007
C      0.243576   -0.538580    0.471776
O      0.417070   -1.221596    1.504213
C      1.410563    0.098233   -0.113673
O      1.302258    0.813804   -1.170520
N      2.719254   -0.007580    0.405233
H      3.122578    0.713386    1.030397
H      3.302734   -0.827567    0.160232
H     -1.619910   -1.396407   -0.128023
H     -1.029166   -0.094556   -1.176244
H     -2.824970    0.772215   -0.144411
H     -1.434350    1.439376    0.881837
H     -2.513502    0.104780    1.487811
