16

C     -1.525385    1.189554   -0.658657
C     -0.401302    0.187152   -0.816735
C     -0.936716   -1.166395   -0.387822
H     -1.839294   -1.047450    0.272041
H     -1.239255   -1.793647   -1.252824
H     -0.162329   -1.660813    0.241283
C      0.758085    0.608075    0.005034
N      1.910171   -0.228234   -0.027788
C      2.607386   -0.423848    1.032714
H      3.478458   -1.056706    1.006029
H      2.222094   -0.703024   -0.900882
O      0.694233    1.663847    0.690283
H     -0.142990    0.189927   -1.912516
H     -2.028852    0.987156    0.327359
H     -1.086514    2.196915   -0.647820
H     -2.307789    1.057491   -1.426822
