12

C      0.595173   -0.928488    0.014035
H      0.733600   -1.520980   -0.905087
H      1.108023   -1.310357    0.904151
C      0.949433    0.536939   -0.202357
H      1.642347    0.958871    0.562143
H      1.241673    0.776815   -1.256075
C     -0.463955    0.899533    0.082429
H     -0.668435    1.600027    0.896089
C     -1.454460    0.717754   -0.963874
O     -1.670768   -0.454633   -0.723609
C     -0.802855   -0.535656    0.292612
H     -1.209775   -0.739822    1.299541
