15

C     -1.273075   -0.839588   -0.439485
C     -0.136845   -0.045018    0.161624
C     -0.194395    1.410683   -0.236931
H     -0.021114    1.581525   -1.307917
H     -1.191647    1.816880    0.070723
H      0.593056    1.934567    0.341944
C      1.168323   -0.618184   -0.263172
C      2.254817   -0.006525    0.128703
O      3.380463    0.196217    0.652438
H      1.178891   -1.510775   -0.874588
O     -0.184687   -0.080440    1.555730
H     -0.913574   -0.621061    1.901856
H     -0.958024   -1.414447   -1.340020
H     -2.155284   -0.189963   -0.670830
H     -1.546905   -1.613873    0.319923
