15

C      1.072812   -1.233209    0.278393
C      0.391849   -0.021478   -0.360129
C     -1.094591   -0.216247   -0.399716
H     -1.408815   -1.089499   -1.025085
O     -1.631448   -0.385406    0.932530
C     -2.025631    0.721296    0.070907
H     -3.097543    0.641577   -0.150996
H     -1.718773    1.718998    0.444001
C      0.665016    1.201901    0.514911
O      1.844165    1.833285    0.116782
H      2.614046    1.224797    0.221635
H      0.796537    0.144384   -1.375676
H      1.829820   -0.869710    0.975521
H      1.476527   -1.841626   -0.551619
H      0.286029   -1.829064    0.761638
