9

O     -2.031122   -0.864021    0.086553
C     -0.905566   -0.061375   -0.079480
C     -1.109969    1.194083   -0.353590
H     -0.985609    2.220358   -0.575524
C      0.436125   -0.680878    0.064878
O      1.359516    0.361232   -0.154630
H      2.092088    0.320066    0.526124
H      0.602568   -1.512868   -0.639819
H      0.541969   -0.976598    1.125488
