13

C      2.215979    0.740829    0.325541
O      1.006278    0.400461   -0.360064
C      0.177799   -0.613126    0.120054
O      0.542223   -1.196104    1.156056
C     -1.083423   -0.988913   -0.555852
C     -2.214460   -0.377734    0.259535
O     -2.566124    0.893559   -0.213985
H     -3.327309    1.180987    0.338913
H     -1.159639   -0.558422   -1.575738
H     -1.183224   -2.097050   -0.608823
H      2.045612    1.308506    1.241375
H      2.813113   -0.147107    0.546446
H      2.733176    1.454115   -0.388971
