14

O      1.934734    0.363280   -0.547368
C      0.804618    0.048401    0.131179
H      1.006498   -0.107237    1.261894
C     -0.318044    1.018237    0.037433
H     -0.275830    1.524972   -0.933407
H     -0.303490    1.739819    0.900334
C     -1.564623    0.196079    0.243520
H     -2.086181    0.334398    1.155820
H     -2.288510    0.469693   -0.650596
C     -1.218514   -1.232414   -0.091626
C      0.291699   -1.311257   -0.253826
H      0.817818   -2.102610    0.170020
H      0.437371   -1.332776   -1.426011
H      2.762453    0.391415    0.002633
