14

O      2.324338    1.211736    0.549002
C      1.645289    0.140064   -0.009561
C      0.231298    0.185316    0.420228
C     -0.658158   -0.923403   -0.009470
N     -1.991123   -0.669642    0.462282
C     -2.568716    0.459950   -0.236559
H     -2.762165    1.304275    0.426981
H     -1.988513   -0.456858    1.491616
H     -0.594247   -0.970408   -1.103339
H     -0.319219   -1.846254    0.504898
O     -0.171123    1.093891    1.094441
H      2.124877   -0.823883    0.142485
H      1.639453    0.344962   -1.126295
H      3.088009    0.950256    1.094603
