17

C     -0.714150   -1.035820    0.147275
H     -0.658901   -1.861048   -0.560140
H     -0.287741   -1.354575    1.163879
C     -2.086259   -0.455558    0.376096
H     -2.678538   -1.083326    1.074961
H     -2.598969   -0.484491   -0.641866
O     -1.914734    0.829455    0.715069
C     -0.628999    1.241734    0.548939
H     -0.610360    2.192271   -0.017633
H     -0.109159    1.382391    1.517111
C      0.079908    0.161250   -0.241112
C      1.516579    0.041919    0.156758
C      2.534525    0.158328   -0.549623
H      3.466011   -0.064939    0.303802
H      3.130619    0.310761   -1.308897
H      1.520492   -0.298659    1.229419
H      0.039675    0.320308   -1.317300
