16

C      2.676161   -0.323919    0.073929
C      1.269092    0.087691   -0.120512
N      0.853038    1.107401   -0.803431
C     -0.580779    1.197408   -0.772162
H     -0.923681    2.160851   -0.336269
H     -0.948649    1.048286   -1.815577
C     -0.986652    0.036902    0.062716
C     -2.381737   -0.335449    0.413501
H     -3.033910   -0.233529   -0.499936
H     -2.453815   -1.434431    0.666674
H     -2.777913    0.231256    1.273115
C      0.111869   -0.601916    0.435642
H      0.116847   -1.505432    1.064621
H      3.357389    0.535359    0.139367
H      2.747946   -0.952832    0.988510
H      2.954795   -1.017647   -0.770188
