11

C     -1.685986   -0.311417   -0.048604
C     -0.233307   -0.066645   -0.007171
C      0.782977   -0.908455   -0.113985
C      2.031731   -0.457242    0.105014
H      2.878500   -1.178523   -0.003670
O      1.772522    0.875375    0.341152
N      0.463533    1.193475    0.118096
H     -0.001823    2.095110   -0.031515
H     -1.817265   -1.415611   -0.199076
H     -2.108513    0.029077    0.846562
H     -2.082368    0.144857   -1.006803
