11

C     -1.532323   -0.090938    0.426010
C     -0.084767   -0.321428    0.302660
N      0.516513   -1.457092    0.336245
N      1.886315   -1.308195    0.189573
N      2.201596   -0.102704    0.060295
C      0.987803    0.666967    0.116722
H      0.874814    1.259634   -0.812431
H      0.994652    1.321534    1.013367
H     -1.936834    0.444466   -0.475215
H     -1.785904    0.581807    1.287571
H     -2.121866   -0.994051    0.546095
