13

C      2.235223    0.781725    0.474109
O      1.538041   -0.414834    0.700918
C      0.852959   -1.124093   -0.266358
C     -0.405855   -1.476090   -0.073371
N     -1.682265   -1.400626    0.104623
N     -2.395297   -0.287845   -0.348847
C     -2.996233    0.577066    0.634465
H     -3.105274    1.623349    0.273770
H     -2.466023   -0.125960   -1.358124
H      1.270284   -1.430694   -1.207934
H      2.669729    1.080596    1.473551
H      1.471738    1.550131    0.165086
H      3.012973    0.647276   -0.287403
