13

C     -1.632807    0.580001    0.912969
C     -1.430633   -0.348404   -0.179412
C     -0.305510   -0.999669   -0.152496
C      0.925620   -1.348943   -0.418493
O      1.840420   -0.620434   -1.120627
C      2.207216    0.632665   -0.659617
O      1.665714    1.033925    0.399210
H      2.942728    1.254937   -1.195875
H      1.171694   -2.272029   -0.035848
H     -2.155909   -0.466241   -0.930636
H     -1.000195    0.398571    1.811115
H     -2.700165    0.497261    1.249869
H     -1.528171    1.658361    0.604329
