13

C      2.071060   -0.611202    0.542775
O      0.762747   -0.228242    0.838935
C      0.101682    0.828558    0.233971
C     -1.096969    0.602255   -0.267212
O     -1.835597    1.620758   -0.898028
H     -2.609806    1.347228   -1.483137
C     -1.649237   -0.736163   -0.154960
O     -1.012516   -1.656158    0.400501
H     -2.638679   -0.911169   -0.571947
H      0.550663    1.824965    0.168204
H      2.324952   -1.478388    1.178515
H      2.779958    0.216069    0.823374
H      2.251743   -0.818511   -0.526506
