10

N      1.982415   -0.118052   -0.185626
C      0.567474    0.133444   -0.055606
N     -0.284007   -0.824933    0.050398
C     -1.596433   -0.233800    0.162042
H     -2.195187   -0.609712   -0.686425
H     -2.058271   -0.535646    1.130601
C     -1.311201    1.210700    0.098428
O     -0.070955    1.343999   -0.024384
H      2.414128   -0.968301    0.195779
H      2.552037    0.602301   -0.685206
