16

C      2.222920   -0.400135    0.577780
C      1.285904    0.280368   -0.415887
C     -0.014683   -0.427190   -0.367469
C     -1.089506    0.255078   -0.028761
C     -2.446828   -0.403849    0.040514
H     -3.201137    0.328146    0.348715
H     -2.422961   -1.234458    0.780105
H     -2.704722   -0.736954   -0.978336
C     -0.928426    1.697846    0.284561
H     -0.890842    2.295727   -0.639349
H     -0.062011   -1.468387   -0.605090
H      1.720388    0.263497   -1.436409
H      1.177086    1.333289   -0.091212
H      3.061977   -0.913701    0.043342
H      1.694475   -1.194438    1.148403
H      2.598367    0.325161    1.339094
