10

O      1.058426    0.686225   -0.546649
C      2.165526   -0.109624   -0.226467
O      1.876001   -1.155468    0.425738
H      3.143543    0.167415   -0.518819
C     -0.199925    0.330448   -0.170911
C     -1.607069    0.810793   -0.266102
H     -2.152487    1.616754   -0.666708
C     -1.291798   -0.454740    0.434740
H     -1.397293   -0.472122    1.555912
H     -1.594924   -1.419681   -0.020733
