13

C     -2.172797   -0.155505   -0.040989
C     -1.077318    0.769674    0.490297
C      0.215359    0.590507   -0.230471
C      1.242735   -0.159042    0.627536
C      2.491053   -0.310065   -0.120023
N      3.484607   -0.411337   -0.705043
H      1.409862    0.384767    1.578113
H      0.881979   -1.175773    0.861896
H      0.124434    0.012542   -1.170429
H      0.703878    1.549803   -0.499887
H     -2.188800   -1.080938    0.568195
H     -3.139164    0.386638    0.034996
H     -1.975828   -0.401271   -1.109703
