9

C      0.491300   -0.475358   -0.363124
O      1.779108    0.036886   -0.086433
H      1.742198    0.846085    0.435112
H      0.426337   -1.337356   -0.999847
C     -0.595127   -0.167151    0.717229
H     -0.610867   -0.499393    1.684056
C     -0.657371    0.584973   -0.309000
H     -0.763911    1.401984   -0.913616
O     -1.811667   -0.390669   -0.164378
