15

C     -1.515529   -0.275559    0.355426
N     -0.556927    0.119211   -0.690663
C      0.018918    1.357306   -0.236515
H     -0.644573    1.895578    0.470584
H      0.077530    2.024737   -1.139520
O      1.272161    1.103090    0.271197
C      1.462805   -0.261313    0.320928
H      1.274019   -0.617485    1.355909
H      2.483072   -0.485370   -0.032862
C      0.485164   -0.890386   -0.621326
H      0.887133   -1.028157   -1.649182
H      0.106776   -1.834910   -0.225410
H     -1.423519    0.321675    1.272511
H     -2.521234   -0.083034   -0.081748
H     -1.405797   -1.345382    0.630669
