9

C     -1.801979    0.632431    0.342662
C     -0.870206   -0.193501   -0.078379
C      0.107402   -0.949606   -0.523695
C      1.301978   -0.302605   -0.875559
C      2.354037    0.243649   -1.188074
H      3.254248    0.731854   -1.457021
H     -0.124419   -1.978348   -0.565951
H     -2.433144    1.015517   -0.411496
H     -1.787917    0.800609    1.391854
