11

O     -0.570658    1.693241   -0.163020
C      0.033048    0.471550    0.095944
C     -1.043488   -0.597477    0.176278
H     -0.944560   -1.222767   -0.727167
H     -2.056043   -0.165121    0.254088
H     -0.905567   -1.233036    1.078469
C      1.003674    0.196699   -1.029886
O      2.080772   -0.581093   -0.634553
H      1.759833   -1.447009   -0.273112
H      0.627564    0.477522    1.043562
H      0.015424    2.407492    0.179397
