8

O     -2.385365    1.200043   -0.476811
C     -1.867723    0.307222    0.463113
C     -0.623621   -0.100386    0.428965
C      0.733352   -0.461515    0.281614
C      1.751834   -1.344269    0.355494
C      2.107635   -0.148584   -0.072276
H      2.826907    0.584998   -0.429335
H     -2.543018   -0.037508    1.228325
