9

O     -0.933841    1.416140   -0.447693
C     -0.790673    0.208684   -0.194410
N      0.454487   -0.479805   -0.204019
C      1.553423    0.046047    0.189650
C      1.478967    1.438756    0.669743
H      2.513880   -0.470406    0.187417
H      0.444826   -1.463503   -0.554842
O     -1.902133   -0.564238    0.126995
H     -2.818937   -0.131674    0.227160
