12

C     -1.576348    0.133523   -0.004500
C     -0.104520    0.128234    0.016844
C      0.799804    1.232803    0.239943
H      0.557008    2.250006    0.429057
C      1.992214    0.734207    0.163552
O      2.099004   -0.485528   -0.066020
C      0.807229   -1.055137   -0.193607
H      0.582279   -1.768254    0.637672
H      0.690016   -1.496747   -1.183318
H     -1.991760    1.051457   -0.478254
H     -1.898803   -0.773652   -0.583863
H     -1.956124    0.049088    1.022494
