9

O      1.608778   -0.808092   -0.052943
C      0.416048   -0.123659    0.073040
C      0.137680    1.142167    0.317102
H      0.653817    2.077256    0.501539
O     -1.232143    0.891127    0.260518
C     -1.019008   -0.474943   -0.003372
H     -1.315497   -1.168000    0.784947
H     -1.401972   -0.744213   -1.002087
H      2.152298   -0.791643   -0.878744
