11

C     -1.125716    0.199257    0.465991
H     -2.169111    0.362441    0.782073
C     -0.442349    1.214116   -0.066610
H     -0.893742    2.291274   -0.132138
N      0.894929    1.216391   -0.513190
C      1.536090    0.168608   -0.325257
H      2.751738    0.088611   -0.628123
O      1.100532   -0.999542    0.168856
C     -0.344418   -1.156048    0.375768
H     -0.784478   -2.003651    0.788511
H     -0.523475   -1.381457   -0.915882
