10

O      2.084416    0.749162   -0.069282
C      1.105928    0.239988    0.804776
N      0.499942   -0.936282    0.205918
C     -0.710712   -0.753408   -0.497679
N     -1.246731    0.400807   -0.547781
C     -1.958598    1.422206   -0.290739
H     -2.462060    1.499369    0.666764
H     -1.206859   -1.540292   -0.994286
H      0.959709   -1.884629    0.302119
H      2.934964    0.803079    0.420191
