11

O     -1.219024   -0.989896    0.889602
C     -0.902040    0.031824   -0.000049
C     -1.018310    1.368522    0.698454
H     -0.202510    2.055860    0.460605
C      0.514470   -0.170235   -0.485893
O      1.394207   -0.142146    0.582202
H      2.293009    0.101380    0.277017
H      0.600004   -1.150581   -0.993174
H      0.776915    0.684043   -1.151370
H     -1.563348    0.003951   -0.889729
H     -0.673374   -1.792723    0.708165
