14

O     -0.927063   -1.031154    1.081765
C     -0.532109   -0.734686   -0.204934
H     -0.910021   -1.460990   -0.918515
C     -1.088029    0.643166   -0.577894
H     -2.173498    0.638783   -0.448624
H     -0.827414    0.932388   -1.600369
O     -0.545011    1.618116    0.310198
C      0.561738    1.509513    0.810145
N      1.435134    0.420347    0.572513
H      2.357985    0.312459    0.990596
C      0.994925   -0.653879   -0.350510
H      1.323017   -0.359091   -1.339831
H      1.404035   -1.590086    0.038823
H     -1.073687   -0.244886    1.636637
