13

O     -0.046044    1.692435   -0.813420
C      0.127186    0.590827   -0.036844
C      1.340144    0.139496   -0.003835
C      2.549529   -0.383649    0.051021
H      3.146101    0.000933    0.822454
H      2.744371   -1.121486   -0.696473
C     -0.879003   -0.119497    0.743033
C     -1.920141   -0.602463   -0.205037
O     -1.678625   -1.623109   -0.831658
H     -2.832273   -0.031753   -0.293168
H     -1.358045    0.593105    1.453642
H     -0.432243   -0.953155    1.324676
H     -0.760957    1.818315   -1.514391
