10

C      1.788850    0.069498   -0.281233
C      0.586335    0.416487    0.137208
C     -0.579094   -0.411567   -0.135653
C     -1.792167   -0.078598    0.276533
H     -1.924667    0.855049    0.844355
H     -2.662098   -0.684445    0.079996
H     -0.457109   -1.329700   -0.692545
H      0.431204    1.323573    0.693619
H      1.951884   -0.839506   -0.840185
H      2.656862    0.679207   -0.082095
