12

O      0.055158   -1.403414    1.130993
C      0.370054   -0.418904    0.402870
N     -0.677582    0.436296   -0.101053
C     -2.044887    0.125381    0.252259
H     -2.178405   -0.964566    0.061430
H     -2.260501    0.286185    1.314516
H     -2.719095    0.706605   -0.420074
H     -0.416218    1.264301   -0.713065
N      1.687853   -0.093137    0.043849
C      2.627130   -0.202738    0.894712
H      3.664749    0.030385    0.687742
H      1.891745    0.233605   -0.906411
