11

C     -2.107592    0.453295   -0.061468
C     -1.103525   -0.274721    0.759944
C      0.039008   -0.689272    0.279900
C      1.283085   -0.752714   -0.104047
C      2.479119   -0.528663   -0.521905
N      3.722275   -0.341111   -0.744067
H      4.140759    0.586520   -0.518494
H     -1.355877   -0.455342    1.796455
H     -1.646836    0.827905   -1.013413
H     -2.982677   -0.196854   -0.254332
H     -2.467739    1.370957    0.477256
