9

N     -1.024790   -1.266367   -0.145726
C     -0.083327   -0.312987   -0.039186
C      1.350645    0.061621   -0.078129
H      1.691440    0.517554    0.877846
H      1.979290   -0.803352   -0.379312
H      1.443519    0.876926   -0.835767
C     -1.509267    0.031926    0.133521
H     -2.005351    0.589815   -0.699543
H     -1.842159    0.304864    1.166296
