15

C      2.029589    0.418184    0.453985
C      1.089139   -0.500453   -0.212859
O      1.303779   -1.665446   -0.425037
C     -0.229925    0.059569   -0.658192
H     -0.090324    0.805907   -1.492072
C     -1.031361    0.607296    0.442989
H     -1.395643    1.657241    0.289380
H     -0.573650    0.470079    1.466717
C     -2.003369   -0.425644    0.127412
H     -2.996728   -0.730692    0.535157
C     -1.293830   -0.902824   -0.839978
H     -1.516038   -1.761146   -1.517396
H      1.868362    1.452672    0.054091
H      3.058712    0.055374    0.248624
H      1.781287    0.459882    1.527180
