15

O      2.697913   -0.537149    0.526309
C      1.707538    0.419967    0.247722
C      0.426688   -0.320554    0.044791
H      0.598791   -1.281342   -0.494613
C     -0.748382    0.432469   -0.478909
H     -0.694138    1.461542   -0.839942
C     -1.997364   -0.389447   -0.590013
H     -2.793641    0.078081   -1.177674
H     -1.879348   -1.493340   -0.729856
C     -1.546273    0.147458    0.717894
H     -2.142721    0.889916    1.263942
C     -0.331746   -0.473022    1.348744
H      2.063182    0.966128   -0.656992
H      1.699384    1.088480    1.145989
H      2.940117   -0.989184   -0.327393
