13

C      0.620831    0.387078   -0.016998
C      1.928597   -0.289721   -0.004611
H      1.809093   -1.340827   -0.309558
H      2.320512   -0.285200    1.034071
H      2.665394    0.193433   -0.649897
C     -0.145312    1.383477   -0.495134
H     -0.242182    2.247856   -1.135171
C     -0.767415    0.472752    0.466535
C     -1.650711   -0.660518   -0.019940
H     -2.437514   -0.875628    0.721233
H     -2.170802   -0.402292   -0.969753
H     -1.055954   -1.594245   -0.152329
H     -0.874539    0.763835    1.531553
