10

O      2.347224   -0.626950    0.611335
C      1.083804   -0.514805    0.412954
O      0.163087   -1.439084    0.825386
C     -1.003799   -1.123364    0.524618
C     -1.049108    0.163247   -0.192676
H     -1.670211    0.851211    0.444383
H     -1.507199    0.023623   -1.193097
C      0.374257    0.574822   -0.266932
H      0.683254    0.518366   -1.335219
H      0.578691    1.572933    0.169250
