14

C      2.344240   -0.359486    0.132680
C      1.233145    0.640053    0.064716
C     -0.027011    0.247931   -0.006353
N     -1.212420    1.036562   -0.077770
H     -1.220109    2.077785   -0.082285
C     -2.337062    0.159734   -0.139131
H     -3.371170    0.495600   -0.200045
C     -1.857430   -1.071929   -0.106633
H     -2.479886   -1.961862   -0.139002
O     -0.476483   -1.071954   -0.027040
H      1.464752    1.696857    0.073932
H      2.803018   -0.530962   -0.871606
H      1.993497   -1.334751    0.528260
H      3.142921   -0.023579    0.850279
