19

C     -2.053574    0.979111   -0.078274
C     -1.047746   -0.075058    0.402365
C     -1.245556   -1.340565   -0.346189
H     -2.346735   -1.620325   -0.382709
H     -1.007661   -1.193417   -1.426850
H     -0.732363   -2.212180    0.030097
C      0.281538    0.483151    0.486521
C      1.330223   -0.066511   -0.062313
C      2.701194    0.549669    0.049572
H      2.593589    1.660163    0.129586
H      3.274380    0.314447   -0.844017
H      3.178524    0.111440    0.936247
O      1.200328   -1.241504   -0.766696
H      1.625905   -1.270681   -1.706091
H      0.436435    1.406958    1.029974
H     -1.407408   -0.299343    1.457406
H     -3.005905    0.532271   -0.381075
H     -1.556756    1.527064   -0.929888
H     -2.218413    1.755310    0.698445
