14

C     -1.163352   -0.362502    0.686462
C     -0.439758    0.185966   -0.525244
O     -1.092008    1.282975   -1.056924
H     -0.763361    2.146868   -0.685628
C      0.967537    0.552416   -0.241098
C      1.784038   -0.194578    0.473295
H      2.792382    0.125653    0.643936
H      1.441087   -1.125037    0.885101
H      1.342311    1.484503   -0.644711
O     -0.388632   -0.866615   -1.467851
H     -0.274580   -1.700153   -0.944487
H     -2.003070   -1.015378    0.319837
H     -0.541199   -0.989233    1.324434
H     -1.661394    0.475115    1.232878
