13

C     -2.226123    0.522261    0.423758
C     -0.994570   -0.129092   -0.211523
O      0.121071    0.356769    0.456447
C      1.395268   -0.002743    0.162219
N      1.943051   -0.267477   -1.198670
C      2.799610   -0.388350   -0.043941
H      3.125660   -1.331803    0.368291
H      3.562370    0.419132    0.000134
H     -0.982712    0.067824   -1.307503
H     -1.085400   -1.248487   -0.122275
H     -1.976971    0.985756    1.404346
H     -3.005248   -0.247971    0.607938
H     -2.676007    1.264180   -0.254734
