12

C     -1.260288   -0.739868   -0.374889
C      0.137098   -0.481344   -0.931149
C      0.505003    0.921037   -0.910910
O      0.927856    1.600831    0.014386
C      1.169200    1.203697    1.302340
O      0.944834    0.011922    1.615718
H      1.542313    1.855100    2.068859
H      0.071030   -0.801652   -2.012790
H      0.822547   -1.164835   -0.400088
H     -2.031733   -0.690991   -1.185290
H     -1.493169    0.049660    0.345447
H     -1.334691   -1.763558    0.054776
