16

C     -2.630192   -0.148936   -0.727718
O     -1.357394   -0.471537   -0.229633
C     -0.502340    0.611168   -0.332792
C      0.846346    0.225245    0.210007
N      1.333749   -0.885383   -0.578981
C      2.631880   -1.303612   -0.103743
O      3.491378   -0.195033   -0.227327
H      3.429418    0.405479    0.544169
H      0.654956   -1.654361   -0.663801
H      0.783927   -0.009921    1.276588
H      1.533909    1.091277    0.057985
H     -0.940577    1.464204    0.244587
H     -0.402881    0.938976   -1.392257
H     -2.591153    0.147027   -1.792937
H     -2.949014    0.756313   -0.143855
H     -3.332012   -0.970905   -0.597414
