10

N      2.181035    0.111993    0.134606
C      0.916673    0.008793    0.053678
N      0.264174   -1.168168   -0.072912
C     -1.062298   -0.884146   -0.128187
H     -1.826843   -1.637525   -0.229276
N     -1.234803    0.439586   -0.038235
H     -2.145597    0.923640   -0.054369
N     -0.038128    0.974741    0.071376
H      0.178133    1.981901    0.159916
H      2.767653   -0.750815    0.103403
