16

C      2.597349    0.253295   -0.514714
C      1.241489    0.660063   -1.032154
C      0.118981   -0.156984   -0.454727
C     -1.085637    0.740067   -0.267628
C     -2.207190   -0.065032    0.306547
H     -2.990132    0.600787    0.718947
H     -2.695309   -0.654791   -0.504204
H     -1.811284   -0.745124    1.084127
H     -1.368161    1.123469   -1.262841
H     -0.802607    1.596805    0.381331
O     -0.263324   -1.198153   -1.304262
H      0.037889   -2.057233   -0.896077
H      0.416584   -0.566008    0.540720
H      3.030790   -0.508538   -1.202572
H      2.546341   -0.191686    0.488088
H      3.234220    1.169064   -0.537704
