17

C      2.166277    0.532303    0.189047
C      1.541037   -0.467913   -0.358438
C      0.211002   -0.533942   -0.957892
H      0.313835   -1.091229   -1.963678
C     -0.806790   -1.249789   -0.067497
H     -1.201235   -2.144665   -0.578528
H     -0.377379   -1.437294    0.938823
C     -1.682455   -0.033055   -0.115679
H     -1.821488    0.438830    0.875473
H     -2.652481   -0.210337   -0.637248
C     -0.635948    0.637073   -0.998128
C     -0.252114    1.942219   -0.370947
H     -0.916342    2.250756    0.452615
H     -1.066467    0.881524   -2.028168
H      2.152891   -1.434767   -0.355969
H      3.206288    0.394036    0.606008
H      1.821368    1.526248    0.308181
