17

O      2.534268    0.890812    1.536739
C      1.442741    0.155240    1.036209
C      1.246374    0.014908   -0.258319
C      0.109118   -0.751383   -0.765342
H      0.246231   -1.170985   -1.791860
C     -1.229209   -0.057826   -0.608742
C     -1.317851    1.122779    0.302911
H     -2.146833    1.767742    0.005056
H     -1.490880    0.759527    1.355021
H     -0.351418    1.679035    0.304700
H     -1.972232   -0.117131   -1.419360
C     -0.882551   -1.409972    0.084219
H     -0.915511   -1.389278    1.171241
H     -1.426992   -2.295018   -0.351902
H      1.932527    0.471182   -0.951137
H      0.730453   -0.318209    1.697767
H      3.491766    0.648578    1.249539
