11

N     -0.892089    1.731561   -1.160182
C     -1.184288    2.496318   -2.001475
C     -0.520098    0.824756   -0.157157
O     -0.151010   -0.374330   -0.745398
C      0.233229   -1.335679    0.157662
C      1.394024   -0.884161    0.951652
N      2.294346   -0.513504    1.578979
H     -0.563100   -1.604010    0.883345
H      0.509523   -2.244361   -0.422781
H     -1.406453    0.666997    0.504875
H      0.285916    1.236413    0.506308
