15

C     -0.999312    1.971941    0.055277
C     -0.153164    0.771900   -0.025802
C      0.917070   -0.142495   -0.423971
C      2.280808    0.240416    0.022611
N      3.125060   -0.545973    0.534652
H      3.005896   -1.540697    0.716897
H      0.858598   -0.581778   -1.445758
N     -0.012271   -0.601679    0.535794
C     -1.124431   -1.443264    0.138972
H     -2.040207   -0.833274    0.005819
H     -0.909247   -1.972491   -0.814522
H     -1.338858   -2.225644    0.893952
H     -1.986987    1.808700    0.507526
H     -1.159339    2.381432   -0.960338
H     -0.463617    2.712906    0.711989
