13

C     -2.023279    0.546615    0.082123
N     -0.608668    0.245964    0.046416
C      0.353026    1.062704    0.297415
H      0.168301    2.110175    0.573865
C      1.643088    0.426863    0.167370
H      2.609258    0.876843    0.319648
C      1.428224   -0.819987   -0.175632
H      2.194895   -1.603406   -0.362241
C     -0.024940   -1.017304   -0.275408
H     -0.386531   -1.813024    0.443280
H     -0.288415   -1.337279   -1.332059
H     -2.658369    0.284498   -0.726720
H     -2.406591    1.037339    0.941942
