15

C     -1.599793    1.061510    0.064226
C     -0.527696    0.042053    0.353669
N      0.785331    0.538145    0.000443
C      1.847636   -0.044926    0.424268
C      3.107075    0.515815    0.024263
N      4.135755    0.961183   -0.315808
H      1.748092   -0.914784    1.050957
C     -0.809567   -1.199486   -0.470256
H     -0.115890   -2.009509   -0.181439
H     -1.847364   -1.545840   -0.317398
H     -0.697183   -0.961535   -1.546874
H     -0.507474   -0.272686    1.407902
H     -2.577136    0.548277    0.177720
H     -1.484622    1.384893   -0.991185
H     -1.457164    1.896890    0.772610
