13

O      0.465635    0.710504    0.625672
C      1.149428   -0.335920    0.007221
C      2.451954   -0.358885    0.016637
H      2.995871   -1.149479   -0.450146
H      3.038673    0.417378    0.494988
H      0.597859   -1.123549   -0.477312
C     -0.922386    0.850598    0.506061
H     -1.333503    1.723406    1.047092
C     -1.675419    0.304146   -0.626747
H     -2.602009    0.860881   -0.950308
H     -1.168163   -0.308024   -1.402581
N     -1.762095   -0.358496    0.661060
H     -1.235845   -1.232561    0.832852
