12

O     -0.772770    2.429096    0.740053
C     -0.289723    1.316151    0.424256
C     -1.138922    0.375733   -0.319843
H     -2.085344    0.139329    0.219617
H     -1.459145    0.816430   -1.312393
C     -0.472902   -0.909354   -0.643256
H     -1.111304   -1.797147   -0.547861
N      0.873798   -1.085588   -0.211123
H      1.338375   -2.008516   -0.448690
C      1.531987   -0.060435    0.498408
H      2.568692   -0.264842    0.800225
O      1.017259    1.049142    0.800607
