15

O      2.841999   -0.558611   -0.940401
C      1.625949   -0.507751   -0.274709
C      0.558431   -1.097854    0.239941
C     -0.466207   -0.248342    0.889467
C     -1.778284   -0.386073    0.221445
C     -2.347354    0.669428   -0.310313
H     -1.853083    1.624380   -0.254637
H     -3.306416    0.572439   -0.799407
H     -2.271422   -1.368125    0.172280
H     -0.555063   -0.655246    1.940811
H     -0.130891    0.789043    0.879149
H      0.441662   -2.189273    0.183430
C      2.419523    0.725983   -0.569955
H      2.011278    1.434780   -1.287941
H      2.809880    1.195223    0.363937
