17

C      0.743168   -1.256568    0.424579
H      0.767417   -1.936457    1.278196
H      0.479884   -1.713043   -0.537404
C      1.607043   -0.033749    0.374945
N      2.097380    0.359596   -0.914614
H      1.542499    1.067116   -1.401943
H      3.109094    0.625447   -0.878576
H      2.352042    0.033229    1.195335
C      0.194300    0.130353    0.765245
C     -0.860121    0.589613   -0.184091
H     -0.502466    1.034584   -1.153073
C     -2.092886   -0.318490   -0.248430
H     -2.128067   -1.184374    0.438360
H     -2.477296   -0.471454   -1.269856
N     -2.120016    0.983002    0.354863
H     -2.688119    1.740928   -0.085010
H     -0.023856    0.350266    1.841475
