11

O      2.468899   -0.112611    0.148449
C      1.068179   -0.194199    0.214854
N      0.256298    0.670147   -0.258748
C     -1.090880    0.268375   -0.013278
O     -1.750650    1.217524    0.747737
H     -2.410865    1.654153    0.149058
H     -1.658398    0.023613   -0.957764
C     -0.913231   -1.011213    0.702894
N      0.345322   -1.234861    0.810036
H      0.759139   -2.091245    1.284992
H      2.926188    0.810316    0.162659
