16

C      2.327514    0.492331   -0.338473
C      1.287503   -0.287432   -1.077484
C      0.092262   -0.644458   -0.233827
C     -0.612852    0.579752    0.304732
C     -2.071607    0.233150    0.483466
O     -2.897492    0.951565   -0.363961
H     -3.665677    0.411806   -0.710346
H     -2.426970    0.387088    1.523455
H     -2.267190   -0.854021    0.262312
H      0.350769   -1.286409    0.621606
H     -0.637832   -1.140009   -0.931010
H      1.729599   -1.245723   -1.430029
H      0.902875    0.237482   -1.981271
H      2.717472    1.300447   -1.021782
H      1.963122    1.010057    0.558596
H      3.208504   -0.145624   -0.123107
