15

C     -1.652673   -0.067585    0.089782
C     -0.176576   -0.110120    0.388804
O      0.081604   -1.073902    1.377186
H      0.356693   -1.908044    0.956224
C      0.655814   -0.455505   -0.797230
H      0.041386   -0.430232   -1.745448
H      1.161424   -1.445482   -0.700850
C      1.593529    0.664340   -0.868665
H      2.372299    0.786187   -1.605359
O      1.319631    1.527590    0.149901
C      0.370554    1.153370    0.858493
H     -0.040885    1.678666    1.741958
H     -2.188509   -0.218880    1.064165
H     -1.995517    0.851663   -0.375412
H     -1.898775   -0.952067   -0.533549
