15

C      2.133339   -0.776692    0.463374
C      0.893362   -0.363834    0.305810
C      0.490730    0.749915   -0.634591
H      0.667528    0.517848   -1.671624
H      0.948089    1.667352   -0.207461
C     -0.968838    0.553600   -0.166324
O     -1.732163    1.576393    0.168226
H     -1.425349    2.433165   -0.277521
C     -1.464061   -0.804171   -0.309311
H     -2.505551   -1.033972    0.001899
H     -1.114518   -1.367938   -1.240110
C     -0.437818   -0.534223    0.747371
H     -0.741298   -0.590430    1.789282
H      2.972981   -0.349105   -0.077599
H      2.283568   -1.677908    1.108579
