15

C      2.145475   -0.889203    0.185751
C      1.516386    0.315159   -0.418054
N      0.142624    0.633541   -0.195527
C     -1.053258    0.266042    0.013600
C     -2.059851   -0.795861    0.207622
H     -2.961339   -0.438044    0.737480
H     -1.664253   -1.645829    0.814332
H     -2.416095   -1.175838   -0.789202
C     -0.815082    1.736038   -0.061448
H     -0.773611    2.265014    0.901562
H     -1.133101    2.268073   -0.964881
H      2.160725    0.930562   -1.032259
H      2.600158   -0.574869    1.167886
H      2.964603   -1.253315   -0.447322
H      1.346618   -1.641471    0.333559
