14

C     -1.356676   -0.855876   -0.051789
N     -0.220493   -0.075818    0.368068
C     -0.349162    1.324757    0.143260
H     -0.138353    1.659531   -0.881039
H     -1.383222    1.623117    0.385261
H      0.366753    1.842592    0.836590
C      0.974289   -0.661392   -0.164774
N      2.059962    0.115812    0.258554
C      2.965535    0.778247    0.596995
H      1.039909   -1.702290    0.254910
H      0.898791   -0.752738   -1.263822
H     -1.388913   -1.756954    0.616507
H     -1.160254   -1.251076   -1.088919
H     -2.308163   -0.287913   -0.009803
