14

C      0.655627    0.641653   -0.084824
H      1.268055    1.372266    0.491323
H      0.614209    0.916440   -1.176123
C      1.259640   -0.832389   -0.196322
N      2.577424   -0.807902   -0.155023
H      2.963129    0.157956   -0.038074
O      0.218293   -1.640146   -0.247286
C     -1.141861   -1.045658   -0.231071
H     -1.511248   -0.992653   -1.260153
H     -1.670129   -1.570257    0.544341
C     -0.752596    0.353058    0.283324
O     -1.666117    1.363469   -0.093727
H     -2.102697    1.750454    0.747690
H     -0.711727    0.333709    1.415925
