17

C      1.733699   -0.078714    0.425012
H      2.807326    0.072274    0.248819
H      1.532265   -0.440839    1.439281
C      0.929807    1.165009    0.124651
H      0.832079    1.804857    1.029436
H      1.414413    1.742695   -0.695961
C     -0.426896    0.661936   -0.368645
H     -0.883770    1.349052   -1.097705
C     -0.202714   -0.751233   -0.788467
H     -0.619198   -0.925956   -1.804591
C      1.232708   -1.083023   -0.591408
C     -1.091721   -1.226670    0.337381
H     -2.022738   -1.715558    0.039792
H     -0.529569   -1.789848    1.119589
C     -1.314527    0.208623    0.760742
H     -2.391401    0.537342    0.639264
H     -0.999762    0.470052    1.779552
