16

C      3.138574    0.144228   -0.744723
O      1.948775    0.903187   -0.635351
N      1.259594    0.769138    0.570527
C      0.029335    0.383228    0.460697
C     -1.139964    0.003221    0.038324
C     -2.167564    1.011163   -0.257224
H     -2.636975    0.875847   -1.257485
H     -2.992293    0.855519    0.498919
H     -1.828551    2.049568   -0.100158
C     -1.435278   -1.424283   -0.151609
H     -2.513987   -1.612004    0.112119
H     -0.800229   -2.072474    0.470424
H     -1.288392   -1.708374   -1.206533
H      3.234280   -0.348576   -1.734047
H      3.201230   -0.660954    0.009589
H      3.991445    0.831567   -0.530591
