13

C     -0.461227   -1.375360    0.324264
C     -0.019134    0.030986    0.042869
O      1.142298    0.048332   -0.757954
C      2.253393    0.499925   -0.422808
O      2.371103    1.037226    0.851655
H      2.071818    0.464238    1.643402
C     -1.069698    0.743723   -0.718661
C     -1.928918    1.336354   -1.322665
H     -2.671621    1.854093   -1.866638
H      0.140954    0.561061    1.004572
H     -1.473446   -1.541214   -0.130618
H     -0.597389   -1.519988    1.415069
H      0.241867   -2.139375   -0.062487
