15

C     -0.715940    1.416467    0.203642
C     -0.158924    0.052821   -0.114771
C      1.305774   -0.130318    0.028578
O      2.161777    0.648820   -0.755838
H      3.119560    0.294609   -0.860687
N      1.743076   -0.992880    0.863221
H      1.111271   -1.576758    1.451211
C     -1.092606   -1.091032    0.162054
H     -0.675303   -2.007486    0.586546
H     -2.128413   -0.859287    0.492754
N     -0.724987   -0.711547   -1.202768
H     -1.435814   -0.306356   -1.828571
H     -1.408977    1.295289    1.072406
H     -1.212495    1.903197   -0.643094
H      0.112002    2.064462    0.545318
