13

C      0.970159   -0.775162   -0.425453
H      0.640272   -0.897100   -1.495995
H      1.447727   -1.712185   -0.030424
C      1.633710    0.466890   -0.149746
H      2.632644    0.849235   -0.496241
C      0.673242    0.908424    0.597720
H      0.616825    1.891320    1.131551
C     -0.125553   -0.279106    0.423728
N     -1.359714   -0.166093   -0.288368
C     -2.469999    0.303364    0.447810
H     -2.920575    1.165536   -0.105208
H     -1.534532   -0.889556   -0.995634
H     -0.204205   -0.865566    1.386257
