10

C     -1.403779   -0.089867    0.012771
N      0.039969   -0.214218   -0.033931
N      0.982987    0.805074    0.127098
H      0.756600    1.803668    0.304808
C      2.107161    0.232437    0.007951
N      2.105646   -1.017854   -0.209656
N      0.763011   -1.402021   -0.253220
H     -1.823663   -0.638225    0.857529
H     -1.662990    0.965317    0.120683
H     -1.864944   -0.444310   -0.934034
