13

C     -1.394057   -0.985246    0.174040
C     -0.323601   -0.021784   -0.025449
C     -0.393881    1.401930   -0.039890
N      0.266883    2.189992    0.748632
H      0.169150    3.236660    0.685564
H     -1.046196    1.887232   -0.760100
C      0.873311   -0.501301   -0.219735
C      2.066249   -1.043396   -0.410436
H      2.285615   -1.234209   -1.422663
H      2.607483   -1.198334    0.479766
H     -1.972932   -1.226741   -0.745672
H     -2.099470   -0.559949    0.945525
H     -1.038555   -1.944852    0.590417
