11

C     -0.078067   -0.411824   -0.515084
H     -0.185824   -0.710665   -1.578195
C     -1.297327   -0.109831    0.309545
H     -2.265747   -0.127951   -0.174742
H     -1.264708   -0.723252    1.257154
O     -0.732928    1.143250    0.579141
C      0.438022    0.908331   -0.115086
H      0.885825    1.639247   -0.783719
C      1.209563   -0.372171    0.190135
H      1.191459   -0.686486    1.250832
H      2.099730   -0.548649   -0.419981
