16

C     -0.794914   -1.199786   -0.540713
N     -0.635055   -0.011262    0.221441
C      0.621162    0.641078    0.107569
C      1.762947   -0.066460    0.673740
C      2.707060   -0.545279   -0.074999
O      3.653549   -0.693469   -0.857811
H      1.834482   -0.202362    1.734824
H      0.510113    1.658675    0.589525
H      0.774058    0.897868   -0.984228
C     -1.768632    0.851366    0.281442
H     -2.009846    1.006621    1.364628
H     -2.635434    0.535275   -0.320594
H     -1.464982    1.852186   -0.114564
H     -1.882717   -1.429824   -0.604565
H     -0.364187   -2.073353    0.035906
H     -0.307604   -1.221274   -1.511599
