12

C     -1.545295    0.025090   -0.085483
C     -0.088745    0.148178    0.019603
C      0.610099    1.214136    0.306927
H      0.216714    2.185156    0.514833
O      1.947510    0.889589    0.300463
C      2.178420   -0.293296    0.034204
C      0.899516   -0.967582   -0.191282
H      0.758132   -1.737107    0.595473
H      0.794840   -1.376899   -1.203743
H     -2.035325    0.903960   -0.531648
H     -1.787417   -0.871466   -0.705742
H     -1.948448   -0.119759    0.946394
