10

N      1.276792   -1.265868    0.161854
C      0.362694   -0.360205    0.044663
C     -1.108418   -0.487957    0.061968
H     -1.495785   -0.828475    1.045285
H     -1.483054   -1.122818   -0.775037
O     -1.533832    0.824806   -0.108292
N     -0.501346    1.666899   -0.218144
C      0.608744    1.058886   -0.139733
H      1.582886    1.529957   -0.201365
H      2.291319   -1.015224    0.128801
