13

N     -2.011463    0.641227    0.128261
C     -0.610945    0.284066    0.053066
C      0.412088    1.110041    0.168220
H      0.277751    2.182931    0.337964
C      1.667973    0.405514    0.040657
O      2.824286    0.889873    0.100520
N      1.340431   -0.952051   -0.167280
H      2.027799   -1.765394   -0.304045
C     -0.086125   -1.065595   -0.165380
H     -0.440570   -1.783864    0.638909
H     -0.411977   -1.480504   -1.169479
H     -2.598374    0.650367   -0.710078
H     -2.390874    0.883389    1.048666
