13

C     -1.100532    0.817279   -0.284576
H     -1.276767    1.512939    0.611799
H     -1.756392    1.151310   -1.134330
C      0.039517    0.007465   -0.269164
C     -1.210078   -0.636103    0.134787
H     -1.367667   -0.919294    1.173692
H     -1.770642   -1.281028   -0.578768
C      1.217209   -0.539621   -0.576724
H      1.513608   -1.608100   -0.307518
H      1.889984   -0.213561   -1.436676
C      1.162310    0.332976    0.601371
H      1.554935    1.386646    0.431965
H      1.104515   -0.010907    1.634143
