14

O     -2.247177   -0.297990    0.525223
C     -1.353164   -0.009305   -0.469456
C     -0.331878    1.026672   -0.231955
H     -0.474064    1.399773    0.826933
H     -0.413868    1.927912   -0.929409
N      0.727832    0.216688   -0.448856
C      1.597162    0.129985    0.638785
O      0.912414   -0.376911    1.430800
H      2.601764    0.354161    0.962724
H      1.292107    0.167391   -1.301640
C     -0.199767   -0.869263   -0.688448
H     -0.049626   -1.721449    0.039119
H     -0.235140   -1.315087   -1.712362
H     -1.826597   -0.632578    1.358543
