14

O      2.599346   -0.658973   -0.183179
C      1.425716   -0.892927   -0.361214
C      0.413710    0.077447    0.102105
C      0.968840    1.312062    0.777804
H      1.413435    2.031567    0.081550
C     -0.656970    0.437520   -0.853683
H     -0.615505   -0.119264   -1.834358
H     -0.762386    1.541851   -1.005402
N     -1.635860   -0.165889   -0.022226
H     -2.337133    0.557490    0.316491
C     -0.648571   -0.535118    0.924749
H     -0.531575   -1.661428    0.954440
H     -0.775860   -0.119050    1.957515
H      1.142812   -1.805287   -0.854592
