11

C      1.795330   -0.299877    0.193429
O      0.428288   -0.488773    0.496564
C     -0.509841   -0.287785   -0.507076
C     -1.598486    0.436274   -0.361008
O     -1.845390    1.044855    0.858789
H     -2.072725    0.424836    1.634440
H     -2.328936    0.592882   -1.142158
H     -0.357946   -0.747861   -1.486322
H      2.433858   -0.491779    1.078740
H      2.100541   -0.958149   -0.655425
H      1.955308    0.775380   -0.109972
