16

C     -0.261594   -1.638863   -0.357563
C     -0.588574   -0.219559   -0.766104
C     -0.143031    0.705842    0.360496
C      1.340796    0.554652    0.579332
C      1.794198    1.456021    1.681913
H      1.091854    2.315527    1.729453
H      1.609466   -0.512315    0.781060
H      1.830187    0.832593   -0.391253
H     -0.315858    1.753044    0.015270
H     -0.749235    0.546114    1.250329
C     -1.985376   -0.027243   -1.077726
N     -3.107009    0.107191   -1.331431
H      0.018649    0.050104   -1.663199
H     -1.007914   -2.300129   -0.830332
H      0.743102   -1.937408   -0.722384
H     -0.269662   -1.685570    0.742140
