12

C     -1.001880   -0.919796    0.198357
H     -1.852209   -1.513579    0.473460
O      0.146292   -1.229702    0.074999
C      1.190863   -0.532521   -0.230177
H      2.071040   -0.998988    0.112282
H      1.130574   -0.469440   -1.306414
C      1.100388    0.858738    0.464889
H      2.002507    1.352271    0.793843
C     -0.163880    1.306285    0.467538
C     -1.220478    0.595080   -0.067857
H     -2.247232    0.834108    0.216080
H     -1.155984    0.717544   -1.197000
