17

C      2.108799   -0.581842    0.274935
C      0.602237   -0.332547    0.383115
H      0.371349   -0.291172    1.502276
C      0.250743    0.936989   -0.207956
H      0.521963    0.958417   -1.284391
H      0.827812    1.758429    0.267527
C     -1.253075    1.294952   -0.093707
H     -1.442838    2.188769   -0.611954
H     -1.564990    1.216610    0.906418
O     -1.785760    0.206876   -0.837138
C     -1.567941   -0.998058   -0.388687
H     -2.035231   -1.771997   -1.076889
H     -2.148699   -1.165501    0.577069
C     -0.163613   -1.526595   -0.129530
H      2.288332   -1.659831    0.330856
H      2.577408   -0.031453    1.110751
H      2.413504   -0.202045   -0.722694
