16

C      2.603520   -0.471471   -0.046889
C      1.143563   -0.125300   -0.027936
O      0.201712   -0.935193   -0.005095
C     -1.031418   -0.300935    0.007412
C     -2.398931   -0.929570    0.034954
H     -2.844942   -0.692094    1.037701
H     -2.253031   -2.021179   -0.003602
H     -3.023212   -0.597299   -0.798957
C     -0.767183    1.151897   -0.011577
H     -1.197408    1.675443    0.868507
H     -1.208726    1.636075   -0.914339
N      0.680435    1.210333   -0.034508
H      1.229180    2.094813   -0.052060
H      3.124207    0.004638   -0.883049
H      2.736131   -1.560324   -0.102237
H      3.006102   -0.139836    0.931673
