15

C     -1.596761    0.893266   -0.197575
C     -1.718761   -0.430764   -0.855794
N     -0.551155   -1.265465   -0.819670
C      0.681423   -0.922446   -0.214939
O      0.765593    0.202019    0.335882
C      1.991697    0.555384    0.943063
H      1.805386    1.257209    1.768480
H      2.645247    1.070077    0.217579
H      2.549595   -0.356029    1.279969
H      1.542661   -1.616305   -0.224398
H     -0.625366   -2.200385   -1.279233
H     -2.635813   -0.922275   -0.512163
H     -0.835208    1.568556   -0.630415
H     -2.606300    1.402205   -0.245456
H     -1.412240    0.764953    0.887768
