12

C     -1.603068   -0.188002   -0.052168
C     -0.190443    0.072220    0.292936
C      0.829775   -0.997346    0.208621
H      0.886729   -2.068975    0.398520
C      1.686805   -0.135082   -0.171938
H      2.780373   -0.049733   -0.489827
C      0.768669    1.007769   -0.071099
H      0.770245    1.817670   -0.774994
O      0.077209    1.244457    1.124745
H     -2.166411    0.707307    0.238907
H     -2.033369   -1.075450    0.453971
H     -1.806515   -0.334834   -1.157673
