13

C      2.074559    0.164048   -0.101870
C      0.631052    0.117988   -0.016885
C     -0.158104    1.162563   -0.026440
H      0.178970    2.190121   -0.099884
N     -1.533117    0.821781    0.087190
H     -2.345785    1.459341    0.103685
C     -1.583563   -0.591194    0.173462
H     -2.423134   -1.136066   -0.158713
C     -0.211089   -1.114324    0.098970
H      0.038821   -1.691284    1.015338
H     -0.019750   -1.758843   -0.803751
H      2.735315   -0.455768    0.516595
H      2.615824    0.831637   -0.787696
