16

C      1.762848    0.320961    0.029159
C      0.480064   -0.221596    0.619479
H      0.674624   -0.527670    1.673301
C     -0.726735    0.633328    0.415307
C     -0.447051    1.915732   -0.346509
H     -1.409053    2.370005   -0.684829
H     -1.306300    0.857048    1.356655
C     -1.343092   -0.459187   -0.412812
H     -1.555047   -0.191423   -1.465668
H     -2.250225   -0.882486    0.098538
C     -0.121342   -1.312119   -0.200177
H      0.421842   -1.578362   -1.134094
H     -0.353109   -2.222948    0.420664
H      2.336496   -0.525660   -0.405635
H      1.486357    1.000918   -0.791274
H      2.349724    0.823459    0.827896
