15

C      2.466009    0.229588   -0.280155
C      1.169799   -0.353755    0.162548
C      0.014716   -0.081285   -0.431579
C     -1.250836   -0.697406    0.058784
C     -2.145581    0.482806    0.457923
H     -3.068108    0.159342    0.940887
H     -1.557466    1.157651    1.108980
H     -2.380884    0.993396   -0.522015
H     -1.729137   -1.310917   -0.716287
H     -1.090838   -1.302090    0.957185
H      0.005396    0.585570   -1.265808
H      1.105394   -1.047061    1.013402
H      2.431344    1.355066   -0.278388
H      2.813178   -0.131057   -1.242458
H      3.217016   -0.039848    0.490077
