16

C      2.458532   -0.150477   -0.868332
O      1.199416   -0.668645   -0.775714
N      0.215867    0.222868   -0.682044
C     -0.940256   -0.119790    0.072676
C     -0.889350    0.031759    1.379975
H     -0.002858    0.402975    1.866858
H     -1.743585   -0.215829    1.992468
C     -2.180151   -0.634763   -0.567209
H     -2.340933   -0.064224   -1.503620
H     -3.062219   -0.464321    0.064607
H     -2.115887   -1.712016   -0.803020
O      0.237976    1.434409   -1.255073
H      0.630025    2.123595   -0.683190
H      2.994111   -0.353291    0.100377
H      3.017355   -0.735303   -1.635746
H      2.521959    0.903053   -1.160133
