13

C      2.319803    0.058066    0.196714
O      1.106393    0.700832    0.445966
C     -0.026257    0.204172    0.146922
C     -1.440464    0.594681    0.263537
O     -1.783052    1.701697   -0.519280
H     -1.735170    0.709073    1.328256
C     -1.710213   -0.712500   -0.384049
H     -2.258165   -1.421501    0.279851
H     -2.167562   -0.644388   -1.396740
O     -0.352480   -0.982075   -0.444992
H      3.046668    0.341637    0.992675
H      2.260268   -1.028086    0.124443
H      2.740229    0.478392   -0.748816
