14

C      2.264135    0.481629    0.230289
C      0.769909    0.479449    0.159425
C      0.084889   -0.593540    0.451927
C     -1.362697   -0.782165    0.439817
C     -2.176470    0.366188    0.052735
O     -3.388030    0.231942    0.035013
H     -1.780994    1.328803   -0.219808
H     -1.719973   -1.130663    1.446232
H     -1.577509   -1.600690   -0.310094
H      0.674436   -1.478415    0.748430
H      0.232650    1.355722   -0.131939
H      2.624557   -0.565921    0.280051
H      2.724427    0.938668   -0.650618
H      2.630670    0.968993    1.169853
