13

C      0.066538    1.224530    0.154251
H     -0.060566    1.934524    1.011192
H      0.367795    1.775531   -0.749717
C     -1.181210    0.395150   -0.021040
H     -1.835040    0.533312   -0.889235
C     -0.735216   -1.071209    0.113723
H     -1.246952   -1.841569   -0.474906
C      0.734198   -0.912369   -0.088493
H      0.891932   -0.752640   -1.185519
H      1.335012   -1.790870    0.180368
N      1.119206    0.306303    0.572395
H      2.061888    0.611035    0.217575
C     -1.517585   -0.411729    1.159406
