12

C     -0.669277    0.676899    0.562213
H     -0.915014    0.817090    1.622706
H     -1.161742    1.394094   -0.113481
C      0.796564    0.578152    0.258271
H      1.557380    0.950125    0.959409
N      1.182749    0.315415   -1.103523
H      0.552328    0.670243   -1.851374
C      0.650053   -0.732544   -0.264846
H      1.282099   -1.606875   -0.058305
C     -0.822983   -0.736615    0.052715
H     -1.047735   -1.492398    0.827578
H     -1.404423   -0.833585   -0.891362
