10

C      3.353246   -1.090743   -0.089348
C      1.606964   -0.382758   -0.028978
C      0.407009    0.124165    0.025251
C     -0.034459    1.274429    0.398438
H      0.418124    2.177732    0.802192
N     -1.475274    1.243047    0.241513
O     -1.909049    0.088836   -0.188249
C     -0.866324   -0.762503   -0.333123
H     -0.621848   -1.134800   -1.324051
H     -0.878389   -1.537406    0.496355
