13

O      0.700861    1.347150   -0.615212
C     -0.466419    1.497035    0.145999
H     -0.361598    2.223469    0.990115
H     -1.359036    1.703390   -0.464549
C     -0.334610    0.077078    0.581742
C     -1.355242   -0.856976    0.056705
O     -2.245415   -0.498269   -0.681486
H     -1.316773   -1.899973    0.334039
H     -0.136842   -0.087055    1.655441
C      0.888424    0.017228   -0.251925
C      1.762870   -0.930753   -0.511377
H      2.582453   -0.693117   -1.173323
H      1.641328   -1.899209   -0.066168
