12

C      1.735571   -0.448629   -0.053362
C      0.296672   -0.023259    0.014784
N     -0.059470    1.267870    0.430114
H     -0.953748    1.539574    0.847831
H      0.659272    2.034695    0.301743
N     -0.619135   -0.848105   -0.309996
C     -1.994010   -0.581702   -0.291939
O     -2.734253   -1.246363   -1.077052
H     -2.494803    0.140163    0.329217
H      1.889182   -1.035911   -0.996250
H      2.421406    0.394185    0.029273
H      1.853316   -1.192518    0.775638
