16

C      2.306909   -0.095819   -1.348262
O      0.913353   -0.235034   -1.257063
C      0.574222    0.143355    0.045816
C     -0.901073    0.036756    0.268855
N     -1.352776    0.399774    1.563822
O     -1.741161    1.678143    1.650349
H     -1.968846   -0.278452    2.012957
C     -1.760812   -0.422139   -0.831254
H     -1.874165    0.351110   -1.638833
H     -2.787749   -0.615729   -0.459613
H     -1.409357   -1.362701   -1.311656
H      1.071932   -0.553048    0.753793
H      0.919159    1.167908    0.293549
H      2.590145   -0.388715   -2.364765
H      2.791015   -0.777561   -0.638841
H      2.629203    0.952152   -1.195976
