10

O      2.840957   -0.111929    0.123595
C      1.560834   -0.065118    0.068108
N      0.927405    1.107751   -0.025223
N     -0.384415    1.167760   -0.082767
H     -0.847787    2.120139   -0.156466
C     -1.144883    0.060793   -0.050703
H     -2.208723    0.117614   -0.097842
C     -0.488713   -1.156182    0.046093
H     -1.111995   -2.033729    0.070680
N      0.857319   -1.207098    0.104525
