8

C     -1.379637    0.181063   -0.392233
N     -0.282501   -0.353533    0.372473
C      0.967961    0.275472    0.401877
N      2.183267    0.689445    0.362565
H      2.947641    0.035376    0.023266
H     -0.385826   -1.228383    0.929722
H     -1.909037    1.016551    0.146066
H     -2.141868   -0.615991   -0.514900
