11

C     -1.282964   -0.408089   -0.941370
H     -2.082993   -1.143580   -1.011896
C      0.034177   -0.730725   -1.580780
C      0.729191   -0.174225   -0.374773
C     -0.587913   -0.019972    0.292508
H     -0.799419   -0.489866    1.270579
N     -1.499664    0.885187   -0.328841
H     -1.057954    1.725341   -0.784654
N      1.530452    1.001555   -0.541627
C      1.997572   -0.247932    0.037846
H      3.019515   -0.397694    0.403509
