15

C      0.404393   -1.205256   -1.045060
C      0.138710    0.036623   -0.191807
C      1.338305    0.719662    0.328667
N      2.414592    0.676012   -0.347174
H      3.296201    1.123293   -0.059870
H      1.324534    1.252747    1.264352
C     -1.146530    0.143331    0.472688
N     -2.043181   -0.239085    1.506120
H     -2.257769    0.451170    2.257553
H     -2.506259   -1.171280    1.566096
C     -0.951232    0.934696   -0.635648
H     -1.415884    1.675109   -1.270865
H     -0.388484   -1.260213   -1.815152
H      0.437114   -2.123343   -0.440793
H      1.355490   -1.013468   -1.589106
