11

C      1.786692    0.509862   -0.614423
O      0.921452   -0.547396   -1.047601
C     -0.218150   -0.780829   -0.304936
N     -0.868662    0.243309    0.176039
C     -2.044490    0.069024    0.945597
O     -2.034735   -0.126521    2.180910
H     -3.002093    0.103262    0.461855
H     -0.620857   -1.758672   -0.086621
H      2.619356    0.527255   -1.331005
H      2.201626    0.289395    0.388455
H      1.259862    1.471311   -0.672439
