9

O     -0.451375   -1.231561    0.221404
C      0.392514   -0.135188    0.033835
C      1.708418    0.051138    0.027235
H      2.086125    1.048178   -0.151750
H      2.360889   -0.793990    0.199915
C     -0.827916    0.603837   -0.131177
H     -1.039265    1.652176   -0.332466
C     -1.590139   -0.459268    0.051909
H     -2.639250   -0.735322    0.081095
