14

C      1.178989   -0.901516    0.247423
C      0.671130    0.513793    0.370945
O      1.494244    1.417204   -0.275904
H      0.995296    1.883652   -0.990127
C     -0.749786    0.637954   -0.180260
H     -1.029828    1.673224   -0.452947
C     -1.805771   -0.189892    0.456643
H     -2.442664   -0.432431    1.274256
C     -1.375395   -0.476421   -0.856168
H     -1.525203   -1.139395   -1.686706
H      0.646507    0.777402    1.449034
H      1.382862   -1.366209    1.234758
H      0.414812   -1.514803   -0.278306
H      2.144807   -0.882562   -0.312641
