10

O     -1.344870   -0.565291   -1.071437
C     -0.367207   -0.461735   -0.181923
N      0.791636   -1.167381   -0.075350
C      1.518607   -0.181919    0.268304
H      2.623656   -0.296620    0.495753
C      0.384933    0.776525    0.148879
H      0.551894    1.671681   -0.452905
N     -0.732119    0.453487    0.928871
H     -1.603608    1.212201    0.660489
H     -1.822923   -1.440949   -0.720681
