13

N      0.957062   -0.859344   -0.866066
H      1.448126   -1.724249   -0.678737
C     -0.396523   -0.995358   -1.315494
C     -1.298919   -0.608677   -0.137709
H     -2.337369   -0.828250   -0.142964
C     -0.385480   -0.379960    0.890492
H     -0.406785   -0.605888    1.971667
C      0.898523    0.070114    0.226998
H      1.756279    0.140461    0.870498
C      0.192209    1.318454   -0.244582
H      0.040132    1.465436   -1.308419
H      0.567797    2.208129    0.320220
N     -1.035052    0.799131    0.414096
