11

C     -1.808229    0.548215   -0.506045
O     -0.720991   -0.277779   -0.905861
C     -0.001105   -0.950332    0.032140
C      1.180187   -0.462201    0.322828
C      2.353948    0.095079    0.563559
H      3.136677   -0.262532   -0.048772
H      2.344763    0.819274    1.333048
H     -0.251230   -1.829396    0.579018
H     -2.221400    0.978217   -1.463154
H     -2.592944   -0.042753   -0.002449
H     -1.419674    1.384207    0.095688
