15

O      3.050472   -0.517811   -1.034841
C      1.678307   -0.612441   -0.805842
C      1.209556    0.472815    0.143113
C     -0.279509    0.648193    0.018070
C     -1.039894   -0.615440    0.351062
C     -2.481351   -0.325889    0.195424
O     -3.029735   -0.305695   -0.883683
H     -3.071560   -0.124482    1.070634
H     -0.850716   -0.960570    1.377368
H     -0.764094   -1.449940   -0.339505
H     -0.514587    0.889581   -1.038333
H     -0.639561    1.501389    0.623789
H      1.507059    0.174772    1.172131
H      1.679996    1.431586   -0.158647
H      3.545616   -0.206069   -0.237640
