13

C     -1.178061    0.503841    0.453489
H     -2.149366    0.991525    0.304715
H     -0.708544    0.684816    1.429661
C     -1.012586   -0.873647   -0.095910
H     -1.862334   -1.419548   -0.516688
C     -0.369045    0.283712   -0.751748
H     -0.658206    0.629819   -1.758995
C      1.018634   -0.265237   -0.509958
N      1.679080    0.391876    0.592056
H      2.076169   -0.243399    1.302670
H      1.197896    1.227034    0.958523
H      1.620235   -0.379389   -1.414796
C      0.346129   -1.531403    0.006982
