13

C      0.940694   -1.199430    0.439699
C      0.012557   -0.074964    0.215072
N     -0.367992    0.228010   -1.109099
C      0.382496    1.085601   -1.999845
H      0.894060    0.488324   -2.777534
H     -1.250679   -0.187900   -1.488042
C     -0.437844    0.613264    1.217574
O     -1.304397    1.662221    1.000841
H     -2.284320    1.506054    0.810543
H     -0.144471    0.377079    2.218306
H      0.784324   -1.981487   -0.336136
H      1.982086   -0.813540    0.391551
H      0.793486   -1.703235    1.417070
