8

C     -0.906476    0.420888   -0.504099
O     -1.799914    0.988419    0.092658
C     -0.026628   -0.493988    0.279157
C      1.337576    0.070809    0.312008
N      2.433658    0.540356    0.353493
H      0.123378   -1.473559   -0.268523
H     -0.425327   -0.613725    1.292417
H     -0.736267    0.560801   -1.557111
