14

N     -2.383429   -0.736155    0.197689
C     -1.108771   -0.068159    0.019219
C      0.209293   -0.647610    0.323236
H      0.378645   -1.597873   -0.231535
H      0.280914   -0.875923    1.429188
C      1.178615    0.398461   -0.019448
N      2.616859    0.277429    0.115635
H      3.254627    0.140023   -0.687101
H      3.021224    0.331878    1.065056
C      0.522786    1.450091   -0.464315
N     -0.874129    1.237600   -0.468575
H     -1.644681    1.898927   -0.770379
H     -2.355287   -1.679387   -0.249330
H     -3.096667   -0.129302   -0.259340
