11

O      1.172632    0.839691    0.965980
C      1.072820   -0.274568    0.126991
C     -0.146636   -1.015974    0.056102
C     -1.248973   -0.312750   -0.126187
C     -2.284341    0.457137   -0.267689
H     -2.745312    0.802531    0.632298
H     -2.553060    0.655695   -1.282590
H     -0.314675   -2.055378    0.126978
N      2.123382   -0.578905   -0.557736
H      3.003012   -0.027476   -0.493459
H      1.921153    1.509997    0.915142
