13

O      1.844527   -0.235959    1.638805
C      1.037476   -0.138971    0.780006
C      0.839259    0.932902   -0.230554
H      1.700057    1.116825   -0.865246
H      0.389562    1.829041    0.232876
C     -0.290201    0.202422   -0.981226
H     -0.641552    0.630523   -1.881885
C     -1.225454   -0.141394    0.134946
H     -1.334479    0.658407    0.874996
H     -2.135768   -0.695890   -0.146884
C     -0.057769   -1.065561    0.421935
H     -0.221917   -1.947011    0.983739
O      0.096259   -1.145336   -0.961507
