12

C     -2.409491    1.583401   -0.765653
C     -1.227191    1.397977   -0.598371
C      0.202293    1.148038   -0.398425
H      0.849968    1.768181   -1.089377
N      0.659618    1.143468    0.972438
H      0.858140    1.561742    1.896816
C      0.687010   -0.069292    0.108489
C      0.985698   -1.332658    0.021755
C      0.941315   -2.645753    0.204033
H      0.084322   -3.238103   -0.024631
H      1.839785   -3.052025    0.600513
H     -3.471468    1.735025   -0.927588
