11

N      1.795141    0.517557    0.194253
C      0.708299   -0.118974   -0.502776
H      1.116062   -0.555787   -1.429661
C      0.017281   -1.149552    0.273413
N     -1.229366   -0.822686    0.409744
H     -1.919323   -1.397731    0.922275
C     -1.470314    0.429680   -0.251484
O     -2.568902    1.021642   -0.307064
O     -0.278132    0.831478   -0.794907
H      2.359966   -0.121024    0.780153
H      1.469288    1.365396    0.706053
