9

C     -0.980468    0.706108    0.045201
H     -1.232008    0.984399    1.103772
H     -0.955885    1.520332   -0.719202
N     -1.075207   -0.639525   -0.321900
H     -1.675017   -1.460196   -0.621110
C      0.225083   -0.159185   -0.014859
C      1.527604   -0.285983    0.132823
H      2.022921   -1.216709   -0.043179
H      2.142977    0.550760    0.438453
