14

O      2.811019   -0.479521   -0.003421
C      1.468208   -0.824583    0.074339
C      0.690828    0.146103    0.955831
H      1.159285    0.469622    1.912233
C     -0.367751    0.925480    0.292559
H     -0.697150    1.920079    0.635359
C     -0.933121    0.317162   -0.963649
H     -1.799200    0.818998   -1.409037
H     -0.109922    0.102097   -1.684704
C     -1.300116   -0.856128   -0.084294
H     -0.783922   -1.782124   -0.434084
H     -2.390554   -0.998728   -0.012380
N     -0.712260   -0.242780    1.085818
H      2.964657    0.484323    0.199683
