14

C      1.378731   -0.709499   -0.349646
C      0.817587    0.611319    0.129076
H      1.443641    1.092113    0.918347
C      0.416026    1.558460   -0.864190
O     -0.699112    1.566485   -0.577511
C     -0.602565    0.697626    0.405820
C     -1.447077   -0.533883    0.103960
H     -1.324930   -1.250605    0.916660
H     -2.522082   -0.198158    0.120923
H     -1.213594   -0.963215   -0.868131
H     -0.917385    1.134358    1.392845
H      1.421395   -1.424148    0.489463
H      0.799530   -1.085699   -1.189456
H      2.449836   -0.495153   -0.628161
