13

C     -0.347760    0.796372   -1.913353
H     -1.081530    1.230805   -2.626112
C      0.020570   -0.426181   -1.706315
H     -0.278511   -1.413294   -2.150784
N      1.043511   -0.012652   -0.870103
C      2.020941    0.657639    0.017749
H      3.041427    0.331661   -0.052536
H      1.621317    0.666340    1.030962
C      1.697107    1.962908   -0.788436
H      1.706359    2.854879   -0.157017
H      2.272372    1.998315   -1.722049
C      0.356235    1.301869   -0.823548
H     -0.204222    1.415894    0.162612
