16

C     -2.023237    0.122510    0.616021
C     -0.797088    0.096208   -0.042358
C     -0.396629   -1.094288   -0.669185
H     -0.836951   -2.094047   -0.189600
H     -0.433893   -1.320104   -1.724419
C      1.104044   -1.365855   -0.269848
H      1.385804   -2.299479   -0.138428
C      1.764342   -0.204000    0.031971
H      2.853372   -0.482237    0.311880
N      1.314983    1.089109    0.112774
H      1.980239    1.867191    0.258669
C     -0.155093    1.368742   -0.050379
H     -0.415729    2.019656    0.883865
H     -0.314827    2.023891   -0.892490
H     -2.724386   -0.758403    0.606500
H     -2.304951    1.031107    1.155026
