10

O      2.091357   -0.368364   -0.364921
C      1.027009   -0.221084    0.475570
N      0.014483    0.760565    0.342115
C     -1.233771    0.485915   -0.272972
C     -1.811805   -0.659946   -0.051917
N     -2.445887   -1.652221    0.422323
H     -1.695311    1.242570   -0.926590
H      0.150379    1.728694    0.693781
H      0.943207   -0.902848    1.310491
H      2.960339   -0.413281    0.097940
