15

C     -2.399177    1.008204   -0.275588
C     -1.524668    0.001852   -0.996392
N     -0.133988    0.106223   -0.595172
C      0.462293   -0.718192    0.170254
N      1.839876   -0.585927    0.547982
C      2.796509    0.138893    1.313933
H      3.023950    0.941367    1.997449
C      3.203668   -0.878640    0.584787
H      4.035655   -1.475978    0.274023
H     -0.119865   -1.558557    0.546203
H     -1.543462    0.297152   -2.081358
H     -1.915217   -1.025908   -0.862665
H     -1.717517    1.604288    0.387303
H     -2.929188    1.685016   -0.965421
H     -3.078868    0.460209    0.407760
