12

C     -0.817045    0.809252   -0.020408
H     -1.391788    1.369961   -0.820356
H     -1.233848    1.059447    1.019734
C     -0.932151   -0.656653   -0.205092
H     -1.835174   -1.188376    0.148437
O     -0.184460   -1.404570   -1.117842
C      0.390304   -1.136494    0.072983
H      0.524972   -1.975590    0.768380
C      1.378753   -0.016405    0.049457
H      2.452030   -0.062588    0.110905
C      0.591575    1.100298   -0.000427
H      1.056832    2.101717   -0.005771
