17

C      1.783934    1.140998   -0.036974
C      0.784966    0.038311   -0.312168
C      1.314750   -1.287634    0.111317
O      1.445942   -2.184047   -0.715278
H      1.572937   -1.435021    1.135605
C     -0.491832    0.390254    0.422737
C     -1.543743   -0.623390    0.223954
C     -2.691098   -0.285611   -0.329425
H     -3.481750   -1.008342   -0.487960
H     -2.880624    0.742961   -0.647691
H     -1.375635   -1.640520    0.530620
H     -0.221512    0.467973    1.496932
H     -0.836459    1.351075    0.025219
H      0.506858    0.013754   -1.402877
H      2.790711    0.728257    0.158717
H      1.846735    1.781927   -0.957758
H      1.475821    1.809056    0.785030
