16

C      2.545934   -0.281074    0.032494
C      1.071605    0.022495    0.164171
N      0.187116   -0.881128    0.345428
C     -1.100334   -0.264257    0.427284
C     -2.055091   -0.832668   -0.599431
H     -1.663370   -0.715581   -1.611364
H     -2.151630   -1.917856   -0.375342
H     -3.040782   -0.375782   -0.422974
H     -1.512753   -0.453978    1.445791
C     -0.852427    1.158138    0.266360
H     -1.539528    2.008689    0.260941
C      0.443485    1.333187    0.108999
H      0.987405    2.271524   -0.038502
H      3.127234    0.627468    0.288505
H      2.827031   -1.105890    0.725126
H      2.726107   -0.593287   -1.017487
