8

N      0.547025    1.037618    0.129132
C      1.297871   -0.069729    0.171452
H      2.348056   -0.106822    0.326916
N      0.476031   -1.108526   -0.018201
C     -0.792534   -0.625025   -0.178050
H     -1.657680   -1.234473   -0.346869
N     -0.731715    0.700932   -0.084476
H     -1.487054    1.406024   -0.153088
