11

C      1.908229   -0.011658   -0.067917
C      0.470203   -0.320727    0.141559
O      0.160320   -1.403926    0.699384
O     -0.549632    0.518137   -0.243474
C     -1.921758    0.244577   -0.054366
H     -2.434339    1.232134   -0.039462
H     -2.284991   -0.336607   -0.941321
H     -2.147239   -0.255824    0.885902
H      2.058944    0.561778   -1.012153
H      2.537118   -0.902121   -0.135105
H      2.203146    0.674238    0.766952
