12

N      2.140587   -0.425680    0.050837
C      0.762690   -0.026532    0.072892
N     -0.213055   -0.840325    0.158452
C     -1.445039   -0.083397    0.152653
O     -2.223080   -0.500179   -0.920583
H     -2.491126   -1.435151   -0.723969
H     -1.960852   -0.308768    1.115374
C     -1.003813    1.303221    0.049001
N      0.282057    1.308158    0.004339
H      0.921585    2.137177   -0.070606
H      2.596151   -0.641361    0.959099
H      2.633895   -0.487163   -0.847490
