12

O     -1.153758    1.825180    0.506964
C     -0.675843    0.865901    0.178761
C      0.794073    0.719495   -0.011493
H      0.886443    0.856521   -1.257099
H      1.443483    1.429774    0.365602
C      1.030558   -0.745246    0.033446
H      0.981855   -0.834306    1.258460
H      2.007787   -1.126820   -0.210812
C     -0.207979   -1.458017   -0.311112
C     -1.281808   -0.447926   -0.075838
H     -1.997243   -0.827971    0.630281
H     -1.827568   -0.256586   -1.107161
