11

N      1.813100   -0.242602   -0.067748
C      0.441437    0.066052    0.029915
N     -0.158611    1.214724    0.379805
H      0.321478    2.123669    0.653796
N     -1.465038    1.043178    0.331758
C     -1.790321   -0.192183   -0.041614
H     -2.777044   -0.617501   -0.167514
C     -0.567384   -0.825688   -0.237272
H     -0.501902   -1.874673   -0.555345
H      2.419382   -0.576302    0.689797
H      2.264904   -0.118674   -1.015578
