11

N      2.163028   -0.480500   -0.185126
C      0.975145   -0.052113    0.047192
C     -0.298443   -0.581614   -0.478647
H     -0.487340   -1.607027   -0.074039
H     -0.342525   -0.571536   -1.586382
C     -1.312821    0.332668    0.149547
H     -2.073621   -0.222305    0.740358
H     -1.832586    0.957172   -0.645587
C     -0.518503    1.263383    0.948091
O      0.694658    1.023239    0.865521
H      3.033008   -0.061368    0.219074
