14

C      1.052479    0.241198    0.677524
C      2.445264    0.025687    0.196178
H      2.931008   -0.726866    0.869663
H      3.009893    0.989346    0.349437
H      2.500632   -0.316674   -0.834950
C      0.002656   -0.366663   -0.245384
C     -1.344224   -0.081623    0.374317
H     -1.392958    0.546043    1.301556
C     -2.582265   -0.178703   -0.397375
H     -3.458135    0.443018   -0.079269
H     -2.637533   -0.473908   -1.449521
O     -2.190073   -1.212514    0.505589
H      0.789207    1.321364    0.757522
H      0.874049   -0.209705    1.676029
