12

N     -1.695634   -0.470378    0.672077
C     -1.241724    0.254854   -0.444126
N     -0.212021   -0.198128   -1.322696
C      0.952931   -0.454436   -0.822001
C      1.959977   -0.612158   -0.011195
O      2.759605    0.423169    0.421219
H      3.351412    0.990470   -0.149420
H      2.170662   -1.602415    0.333448
N     -1.767864    1.404081   -0.718495
H     -2.514006    1.799545   -0.134842
H     -1.509514   -0.183639    1.661761
H     -2.253823   -1.350966    0.514269
