13

O      2.940423    0.494083   -0.410996
C      2.041298   -0.304106    0.005466
C      0.635357    0.074740   -0.070898
C      0.173658    1.214557   -0.550063
H      0.850877    2.000302   -0.946263
O     -1.194467    1.263361   -0.481333
C     -1.683534    0.092820    0.074497
H     -2.268311   -0.416213   -0.739354
H     -2.327330    0.261926    0.969463
C     -0.493303   -0.760623    0.377362
H     -0.464902   -0.911476    1.498412
H     -0.523365   -1.744969   -0.143183
H      2.313600   -1.264405    0.416891
