14

O     -1.349011   -0.111850    1.646450
C     -1.524182    0.160653    0.303715
C     -0.440228   -0.414502   -0.561498
C      0.929136    0.110547   -0.214973
O      1.197848   -0.222296    1.103244
C      2.354893   -0.205016    1.482931
H      3.198997    0.055589    0.854354
H      1.041092    1.187199   -0.343707
H      1.662666   -0.427097   -0.851154
H     -0.435441   -1.507830   -0.408963
H     -0.691259   -0.188218   -1.612034
H     -2.482806   -0.288720   -0.030822
H     -1.644371    1.260177    0.168560
H     -1.817333    0.591365    2.165211
