9

N     -1.614491    0.512936   -0.139248
H     -1.490760    1.453401    0.285279
C     -0.651160   -0.489393   -0.110368
C      0.655773   -0.212610    0.553631
N      1.706842    0.021268   -0.081155
N      2.680040    0.246970   -0.812052
H      0.693407   -0.214955    1.641311
H     -1.027802   -1.542986   -0.056033
O     -0.951849    0.225371   -1.281366
