10

O     -0.984662    2.168421    0.094603
C     -0.590226    0.967899    0.049286
C     -1.211528   -0.349618    0.100013
H     -1.585997   -0.546408    1.136759
H     -1.923939   -0.607521   -0.704178
C      0.140910   -0.907504   -0.032460
C      0.675960   -2.138966   -0.091371
C      0.733907    0.409388   -0.080497
N      1.971448    0.845444   -0.195620
H      2.774126    0.158866   -0.276533
