11

N     -1.884576   -0.034186    0.075833
C     -0.458882    0.028771   -0.006576
C      0.396412   -0.949694    0.455689
N      1.668342   -0.582152    0.225380
H      2.560029   -1.077994    0.443347
C      1.619009    0.618157   -0.377253
H      2.503945    1.196692   -0.700054
N      0.330643    0.980771   -0.514012
H     -2.158286   -0.247950    1.056893
H     -2.263891   -0.819736   -0.506909
H     -2.312744    0.887321   -0.152338
