12

O      0.876082   -1.661562    0.415399
C      1.139309   -0.286201    0.141065
C      1.982544    0.576580   -0.414888
H      1.775796    1.635843   -0.394381
H      2.878334    0.262479   -0.893342
C     -0.072214   -0.731443    0.867445
C     -1.330318   -0.595012    0.078566
C     -1.637478    0.584865   -0.413060
H     -1.014289    1.451676   -0.265988
H     -2.551655    0.682420   -0.985874
H     -1.970401   -1.462828   -0.078361
H     -0.075712   -0.456817    1.943420
