10

C     -1.157129   -0.460223    0.024171
C      0.145622    0.230285   -0.096648
C      1.352501   -0.558820    0.053759
O      2.040137   -0.441740    1.120907
H      1.715213   -1.254796   -0.695686
C      0.187248    1.502759   -0.330109
O      0.217817    2.759417   -0.350391
H     -1.923673    0.073543   -0.589032
H     -1.483265   -0.313033    1.095826
H     -1.094471   -1.537390   -0.232797
