10

C      2.290143    0.528661    0.268716
C      1.187359   -0.424563    0.111308
C     -0.098571   -0.089265    0.075499
C     -1.539840   -0.375778   -0.032254
H     -1.863543   -0.721106   -1.031903
H     -2.068657   -0.890819    0.795554
N     -1.058821    0.945969    0.128741
H     -1.254708    1.981171    0.223603
H      1.390366   -1.491182    0.013461
H      3.016272    0.536911   -0.552726
