13

C     -1.975089    0.930189    0.455376
O     -0.930164    0.057138    0.830444
C     -0.521999   -1.009310    0.043775
C      0.719761   -0.974570   -0.462368
C      1.576196    0.172838   -0.164925
C      2.863594   -0.004506   -0.125903
O      4.099765    0.082112   -0.114258
H      1.111287    1.130536    0.012695
H      1.030720   -1.808610   -1.074100
H     -1.165977   -1.860602   -0.173286
H     -2.134427    1.694905    1.210428
H     -2.899424    0.295139    0.401085
H     -1.774244    1.294740   -0.554475
