16

C      2.459247    0.494584   -0.815268
C      1.120953    0.228498   -0.187114
C      0.119343   -0.354687   -1.152184
C     -1.055747   -0.855918   -0.315278
O     -0.756428   -0.877074    1.037365
H     -1.089665   -0.073944    1.520873
C     -2.242324    0.074366   -0.494283
H     -3.137793   -0.472001   -0.111909
H     -2.404216    0.340413   -1.549565
H     -2.100684    0.957445    0.148599
H     -1.340581   -1.875326   -0.611433
H      1.219061   -0.476491    0.666316
H      0.709645    1.171869    0.221479
H      2.723707   -0.264504   -1.565273
H      3.240993    0.454469   -0.014768
H      2.534490    1.528301   -1.234679
