12

C      1.175017    1.309920   -0.039715
O      2.503615    1.123211    0.355377
H      2.810715    0.199358    0.110935
C      0.489005   -0.044593   -0.018994
H      1.202650   -0.904633    0.031292
C     -0.630425   -0.140401    1.003664
H     -0.835872    0.808710    1.553607
H     -0.591107   -1.036869    1.640956
C     -1.485372   -0.309529   -0.245940
H     -2.014125   -1.288696   -0.256043
H     -2.229960    0.491789   -0.410491
O     -0.394140   -0.208268   -1.076878
