11

C      2.027565    0.151560    0.161569
N      1.253203   -0.976363   -0.378926
C     -0.021858   -0.885848   -0.198652
C     -1.237779   -0.635272    0.199938
N     -2.058408    0.345338   -0.400274
N     -2.549521    1.405969    0.388776
H     -2.341124    0.354050   -1.404811
H     -1.613210   -1.204947    1.022626
H      1.731469    1.024712   -0.491249
H      3.103792    0.012599    0.024739
H      1.705872    0.408202    1.172093
