13

C      1.747742   -0.563242    0.282781
O      0.543624   -0.351414    0.948634
C     -0.293721    0.334020    0.086955
C     -1.552023   -0.445108   -0.235375
H     -1.320245   -1.512855   -0.335143
H     -1.944282   -0.045183   -1.194866
H     -2.323699   -0.220308    0.530923
C     -0.661250    1.639466    0.785538
H     -0.643217    2.478365    0.091004
H      0.214423    0.520921   -0.874249
H      2.203145    0.410644   -0.000270
H      2.466193   -1.147396    0.881386
H      1.563310   -1.097909   -0.682830
