17

C      2.084025   -0.566745   -0.027776
C      1.498444    0.436999   -0.999060
C      0.080033    0.749866   -0.511776
C     -0.674206   -0.554790   -0.520653
C     -1.484573   -0.741895    0.738572
C     -2.642735    0.175910    0.682749
O     -2.780732    0.897667   -0.282925
H     -3.372793    0.227755    1.472377
H     -1.843762   -1.802167    0.722759
H     -0.865809   -0.558683    1.652933
H     -0.381242    1.519537   -1.157800
H      0.100866    1.167697    0.512019
H      1.488655    0.035422   -2.022097
H      2.076045    1.381342   -1.030549
H      3.125921   -0.222187    0.215225
H      2.057002   -1.594920   -0.395539
H      1.534862   -0.550808    0.951542
