12

O     -1.217470    1.866026   -0.478345
N     -0.738946    0.610056   -0.391479
C      0.505633    0.075287    0.036197
C      1.629975    0.546715    0.493060
H      1.740236    1.617310    0.613526
H      2.441777   -0.107212    0.749485
C      0.029535   -1.323775   -0.245857
H     -0.038336   -1.943783    0.649781
H      0.640467   -1.736547   -1.066642
N     -1.196850   -0.655408   -0.656840
H     -1.964661   -0.955364    0.006085
H     -1.831360    2.006694    0.291029
