13

O      2.114228   -0.188539   -1.058963
C      1.642987    0.198415    0.190445
C      0.121173    0.133763    0.116553
C     -0.807229    1.025741    0.275547
H     -0.786338    2.120348    0.516192
C     -1.878300    0.075092    0.025242
H     -2.513691    0.328321   -0.857483
H     -2.502795   -0.182361    0.935198
C     -0.838944   -0.890480   -0.145541
O     -0.662781   -2.129248   -0.410049
H      2.007460   -0.520160    0.962375
H      1.933955    1.218099    0.480175
H      2.170274   -1.188991   -1.029692
