10

O      2.790554   -0.471763   -0.158442
C      1.731084    0.374671    0.101658
C      0.508343   -0.023760   -0.075170
C     -0.746846   -0.343521   -0.021354
C     -2.000944   -0.653647    0.218513
O     -2.924144    0.336143    0.532425
H     -2.727617    1.308628    0.326745
H     -2.290096   -1.679859    0.166179
H      1.937766    1.392956    0.461371
H      3.721900   -0.239849    0.173894
