17

C      1.801223    0.076423   -0.253367
C      0.878991    0.269570    0.918109
H      1.407565    0.516621    1.869227
C     -0.458957    0.851650    0.782154
H     -0.827805    1.576403    1.552726
C     -0.305331   -0.589060    1.082947
H     -0.536450   -1.014242    2.082814
C     -0.932424   -1.341338   -0.053105
H     -0.272865   -1.496371   -0.912425
H     -1.399620   -2.288344    0.233727
C     -2.004552   -0.342665   -0.519907
C     -1.185463    0.952008   -0.514205
H     -0.536955    0.968871   -1.398590
H     -1.868461    1.826957   -0.584169
H      1.677189    0.872406   -1.019456
H      2.890140    0.098325    0.059919
H      1.673775   -0.937216   -0.729658
