14

C      2.458792    0.778561    0.637187
C      1.452776   -0.241574    0.255854
O      0.383301    0.073867   -0.284040
C     -0.526899   -0.879502   -0.626117
O     -1.834773   -0.394059   -0.618572
C     -2.218783    0.077356    0.613166
H     -1.590578    0.912382    0.986649
H     -2.193862   -0.711463    1.406929
H     -3.281294    0.388711    0.536738
H     -0.493146   -1.644922    0.203956
H     -0.286886   -1.411189   -1.565522
H      3.461690    0.348806    0.406428
H      2.342115    1.714232    0.028768
H      2.327547    0.988794    1.719888
