10

O      0.955797    0.657610    1.728426
C      0.509068    0.343343    0.637834
C      1.045509   -0.389757   -0.516579
H      1.270921   -1.439874   -0.206786
H      1.879058    0.103404   -1.063412
C     -0.242631   -0.208139   -1.247555
C     -0.768797    0.531188   -0.070301
O     -1.863583   -0.110567    0.520063
H     -1.758290   -1.086194    0.503403
H     -1.027052    1.598986   -0.285092
