17

C     -1.361690   -0.971583    0.630222
C     -0.577156   -0.229339   -0.481042
H     -0.618838   -0.840815   -1.391945
O     -1.269710    0.980276   -0.600436
C     -0.571797    1.901732    0.043474
H     -0.055363    2.510858   -0.817317
H     -1.132470    2.711191    0.590183
C      0.703900    1.412931    0.673620
C      0.743861    0.157631   -0.005817
C      1.663235   -0.954432    0.485880
H      2.587229   -0.460836    0.869267
H      1.234021   -1.640930    1.264108
H      2.038677   -1.560070   -0.402321
H      1.290377    0.456581   -0.985521
H     -1.495436   -2.010595    0.356904
H     -0.840821   -0.928850    1.576833
H     -2.338019   -0.533752    0.790649
