10

N      0.023810    1.430058   -0.068534
C     -0.166995   -0.075825    0.177978
C      1.101543   -0.670838    0.517697
O      1.263317   -1.396449    1.466803
H      1.979940   -0.506023   -0.084088
C     -0.842107   -0.705492   -0.904219
H     -1.050527   -1.120512   -1.915102
N     -1.403808   -0.538288    0.287562
H      0.003038    1.792338    0.981667
H     -0.908211    1.791031   -0.459766
