15

C     -1.780608    0.127342    0.129781
N     -0.481976    0.133151   -0.476247
H     -0.531411    0.353229   -1.502516
C      0.459254    0.928545    0.258958
H      0.941827    1.700334   -0.347888
H      0.064952    1.293206    1.251826
C      1.311429   -0.305543    0.545329
O      2.569211   -0.249349   -0.062274
H      3.204199    0.025752    0.646737
C      0.277023   -1.073271   -0.241943
H      0.633413   -1.605803   -1.129995
H     -0.245167   -1.792860    0.447423
H     -1.939861    1.128319    0.589460
H     -2.599568   -0.053899   -0.588979
H     -1.882717   -0.609152    0.933426
