15

C     -1.878733    0.790781   -0.275216
C     -0.443866    0.504290    0.101171
H      0.264953    1.347816    0.003859
C     -0.246609   -0.526076    1.189388
H     -1.135287   -1.009761    1.594199
H      0.550378   -0.291217    1.923623
N      0.130524   -0.777538   -0.199940
C      1.525991   -0.909804   -0.507098
O      2.269862    0.224038   -0.189291
H      2.132131    0.918053   -0.881273
H      1.912623   -1.830453   -0.042551
H      1.597593   -1.072434   -1.615260
H     -1.994919    1.883553   -0.477709
H     -2.138126    0.209927   -1.185869
H     -2.546515    0.538824    0.561966
