14

C     -1.636650   -0.064788    0.871313
N     -1.173360   -0.437856   -0.429680
C      0.136804   -0.010601   -0.713418
C      1.049556    0.091703    0.220489
C      2.388186    0.375983    0.812539
H      2.726723    1.428567    0.887690
H      3.191113   -0.324645    0.521682
O      1.340369   -0.070112    1.644101
O      0.463054    0.307380   -2.009655
H     -1.840810    0.004451   -1.128446
H     -1.235330   -1.474821   -0.564756
H     -1.777460    1.032364    0.891729
H     -2.651604   -0.515356    1.002867
H     -0.980591   -0.342270    1.694856
