11

N      1.799660   -0.247758   -0.013240
C      0.419988    0.067541    0.029975
C     -0.181064    1.283257    0.261166
H      0.315110    2.235447    0.455461
C     -1.540990    1.042406    0.195126
N     -1.746857   -0.262262   -0.064623
H     -2.689177   -0.702395   -0.164219
N     -0.554246   -0.831678   -0.160442
H     -0.467346   -1.870366   -0.363831
H      2.382794   -0.522684    0.779198
H      2.262128   -0.191506   -0.954571
