13

C     -0.814861   -1.360348    0.181465
C     -0.158539   -0.176432   -0.477447
H     -0.209773   -0.341140   -1.578309
C     -0.798165    1.101887   -0.144528
O     -1.999306    1.464883   -0.295352
N      0.198988    1.931794    0.411526
C      1.324697    1.313842    0.447096
H      2.274028    1.729665    0.833943
N      1.202943    0.009787   -0.078856
H      2.016107   -0.673506   -0.143358
H     -0.542179   -2.266727   -0.427977
H     -1.922404   -1.244581    0.039077
H     -0.571536   -1.489125    1.232718
