12

N     -1.997506    0.670619   -0.214246
C     -0.672129    0.191851   -0.110985
N      0.385492    0.862568   -0.408146
C      1.545184    0.074276   -0.184630
O      2.878317    0.494644   -0.405945
H      3.217822    1.266290    0.154161
C      1.139289   -1.082630    0.253711
N     -0.276803   -1.082042    0.327607
H     -0.507708   -1.251300    1.351926
H     -0.699204   -1.846662   -0.266784
H     -2.686705    0.457954    0.525404
H     -2.326049    1.244432   -1.022072
