15

C     -1.291779   -0.556964    0.722917
H     -0.526319   -1.257711    1.199092
H     -2.336213   -0.704392    1.117840
C     -1.191601   -0.173742   -0.681269
H     -2.114405    0.053493   -1.291658
C     -0.870839    0.787269    0.326978
H     -1.599431    1.546384    0.617582
C      0.549742    1.228409    0.409329
H      0.809390    2.186612    0.875752
C      1.561124    0.507792   -0.042661
H      2.633092    0.617334   -0.101371
C      1.193520   -0.876137   -0.641828
H      1.134850   -1.548909    0.241525
H      2.073470   -1.202607   -1.253515
C     -0.024602   -0.606831   -1.498712
