11

C      1.391758   -0.313246   -0.057855
C      0.249743    0.658051    0.185038
H      0.603734    1.684439    0.198585
O     -0.654979    0.403895   -0.887093
C     -1.795626   -0.187496   -0.370990
H     -2.627510   -0.506489   -0.969917
C     -1.593945   -0.246553    0.921623
N     -0.467717    0.243456    1.329697
H      0.999248   -1.188491   -0.649262
H      2.200674    0.108610   -0.639006
H      1.694621   -0.656177    0.939179
