12

N      2.160437    0.336588    0.054341
C      0.892433   -0.220320    0.302956
C     -0.188463    0.030265   -0.420170
H     -0.122577    0.603130   -1.298813
C     -1.399722   -0.480489    0.286853
O     -1.921241    0.668133    1.083886
H     -2.443464    1.295033    0.529954
H     -2.106157   -0.968405   -0.337748
C     -0.655875   -1.282151    1.341941
O      0.485475   -1.060131    1.293361
H      2.378264    1.359346   -0.021251
H      2.920890   -0.280999   -0.167539
