13

O      2.712855    0.944287    0.716266
C      1.809171    0.436117    0.081353
N      0.841427   -0.395480    0.660175
C     -0.480424    0.113604    0.668563
C     -1.453750   -0.686880   -0.236649
H     -1.011222   -1.375292   -0.968187
H     -2.319608   -1.039987    0.368886
C     -1.174548    0.757141   -0.425561
H     -1.998369    1.468013   -0.126031
H     -0.704424    1.067528   -1.384352
H      0.898215   -1.368094    0.228593
H      1.105602   -0.573982    1.677956
H      1.775076    0.653024   -0.976525
