15

C     -1.056600   -0.090231   -0.696248
H     -1.166182   -0.954645   -1.343547
H     -1.922791    0.610579   -0.712667
C     -0.889957   -0.482976    0.779598
H     -0.512460   -1.545735    0.755633
H     -1.827962   -0.427290    1.331161
C      0.220766    0.361394    1.302055
H      0.191674    0.631683    2.333569
O      1.432011   -0.197775    0.875695
C      1.355854   -0.220132   -0.517153
H      1.142091   -1.286408   -0.819353
H      2.337820    0.123221   -0.902815
C      0.216132    0.686276   -0.912471
H      0.314064    1.221581   -1.822367
C      0.165541    1.570456    0.348909
