15

O      0.228988    0.129174   -1.799728
C      0.789657   -0.180675   -0.716998
N      2.092406   -0.747950   -0.657190
C      2.952203   -0.223275    0.147099
H      3.935975   -0.685062    0.163833
H      2.702283    0.626479    0.765929
N      0.138600    0.023737    0.525212
C     -1.186266    0.597313    0.517846
C     -2.160280   -0.269988   -0.260974
H     -3.186883    0.093833    0.025388
H     -2.050314   -0.126294   -1.348856
H     -2.010477   -1.334025    0.022754
H     -1.605970    0.692845    1.540202
H     -1.195901    1.618196    0.078586
H      0.555978   -0.214309    1.449995
