11

N      2.698293    0.099868   -0.169769
C      1.440877    0.104768   -0.380688
C      0.135014    0.008671   -0.187832
C     -0.884622    1.000148    0.193001
H     -1.071446    1.807954   -0.557015
H     -0.753112    1.420815    1.201048
O     -1.854389   -0.025740    0.131153
C     -0.918077   -1.005475   -0.233492
H     -0.885650   -1.793051    0.540549
H     -1.037530   -1.389865   -1.272337
H      3.130644   -0.228094    0.735382
