10

C     -0.790767    0.343270    0.142891
C     -1.165363   -0.835261   -0.334045
H     -2.203904   -1.036499   -0.563480
H     -0.452586   -1.629532   -0.508879
C      0.636676    0.624058    0.459740
O      1.425454   -0.503776    0.177547
H      2.286635   -0.461394    0.670806
H      1.031486    1.437617   -0.167479
H      0.732853    0.923442    1.530315
H     -1.500485    1.138075    0.318403
