11

O      2.336127    1.539717   -0.172732
C      1.261342    0.852415   -0.104064
N     -0.075921    1.265407   -0.225332
C     -0.900566    0.319013   -0.104334
O     -2.316088    0.395626   -0.173937
H     -2.670924    1.357603   -0.069793
C     -0.165571   -0.933982    0.129573
H     -0.460776   -1.431910    1.080206
H     -0.274290   -1.643823   -0.739754
N      1.216295   -0.545237    0.121947
H      2.050372   -1.174828    0.258220
