14

C      1.977900   -0.775124    0.545758
H      1.903572   -1.583813   -0.201447
H      2.387446   -1.029338    1.530346
C      2.070421    0.610737    0.036999
H      2.748219    1.355893   -0.374454
C      0.879938    0.224153    0.434686
C     -0.545208    0.515434    0.644993
C     -1.453976   -0.405055   -0.137454
O     -2.776761   -0.025554    0.147626
H     -2.923434    0.937363   -0.052551
H     -1.318860   -0.313759   -1.226244
H     -1.357148   -1.457717    0.198400
H     -0.779972    1.574150    0.425384
H     -0.812138    0.372630    1.729270
