18

C      2.009562    0.689304   -0.328756
C      2.301471   -0.662680    0.186172
H      2.088415   -0.675685    1.288377
H      1.714485   -1.479414   -0.261699
H      3.399710   -0.908735    0.113770
N      0.932940    0.810254   -1.244317
C     -0.230216    0.449344   -0.879361
C     -1.307871    0.120820   -0.168863
C     -2.028607    1.162066    0.559122
H     -2.165244    2.035811   -0.114038
H     -3.048096    0.794130    0.835101
H     -1.518869    1.509419    1.478886
C     -1.634387   -1.312500   -0.214476
H     -2.547500   -1.556234    0.384365
H     -0.786161   -1.975399   -0.000406
H     -1.942417   -1.529695   -1.279123
H      2.934728    1.082210   -0.844784
H      1.828056    1.446985    0.490029
