14

C      1.726329    0.378249   -0.882366
C      1.296187    0.185366    0.345940
O      2.121595    0.261139    1.458926
H      2.236892    1.130349    1.996125
C     -0.131638   -0.126806    0.555545
O     -0.771112   -0.156004   -0.654511
C     -2.124475   -0.442661   -0.565409
H     -2.233438   -1.427023   -0.101164
H     -2.646167    0.364520   -0.005945
H     -2.526550   -0.441129   -1.593621
H     -0.609256    0.539503    1.301038
H     -0.154203   -1.185330    0.952766
H      1.060822    0.312781   -1.728115
H      2.755013    0.607047   -1.079209
