15

O     -2.089769   -0.778783   -0.345087
C     -0.993495   -0.724195    0.482678
C      0.134975   -0.056119   -0.263391
C     -0.257122    1.359270   -0.679278
H     -1.156672    1.327016   -1.321320
H      0.573951    1.745649   -1.293563
H     -0.404648    2.004442    0.227642
C      1.333515    0.055931    0.592387
C      2.454972   -0.490192    0.279733
H      3.331506   -0.962986   -0.043218
O      1.230098    0.777926    1.769962
H      0.333534   -0.624389   -1.185978
H     -0.675702   -1.760906    0.693827
H     -1.245566   -0.240302    1.423530
H     -2.569580   -1.632361   -0.337926
