12

O      2.429443    0.028815   -0.480709
C      1.213927   -0.267050    0.093367
C     -0.053441    0.190580   -0.496145
H      0.050266    0.784176   -1.426632
C     -1.314974   -0.555396   -0.328601
H     -1.258194   -1.548223    0.146995
H     -2.055558   -0.505829   -1.154998
C     -1.089844    0.638238    0.530929
H     -0.873531    0.434254    1.606358
H     -1.553032    1.612689    0.279261
O      1.231890   -0.956063    1.160186
H      3.273048    0.143809    0.069989
