17

C     -1.534485   -0.070266    0.457900
H     -1.462471   -0.960406    1.241291
H     -2.430971    0.525447    0.625461
C     -1.427764   -0.726528   -0.915994
H     -1.896892   -0.117803   -1.702092
H     -2.011330   -1.700197   -0.912959
O     -0.104261   -0.948457   -1.163653
C      0.656936   -0.334570   -0.209046
C      2.029187    0.088120   -0.505141
H      2.166846    0.938275   -1.157180
H      2.594412   -0.808625   -0.906668
H      2.547719    0.248842    0.485641
H      0.803755   -1.177899    0.630538
C     -0.226543    0.607211    0.498882
O      0.245343    0.924205    1.775175
H      0.387562    1.930661    1.843930
H     -0.337043    1.581989   -0.086084
