17

C     -1.095486    0.715953   -0.996657
C     -0.185226    0.000975   -0.028571
C     -1.042521   -0.987940    0.739739
H     -2.038754   -0.484508    0.909057
H     -1.154071   -1.884282    0.130570
H     -0.584185   -1.154894    1.721747
C      0.538149    0.926400    0.890602
H      0.248879    1.973181    0.735170
H      0.311213    0.617114    1.946224
C      1.986216    0.681457    0.683478
C      2.169815   -0.258861   -0.230245
H      3.169729   -0.580683   -0.522293
C      0.889191   -0.742701   -0.730707
H      0.804378   -1.515339   -1.486687
H     -1.270022    0.097649   -1.900550
H     -2.072949    0.921075   -0.514383
H     -0.674357    1.675404   -1.346494
