13

O      2.505329    0.665203   -0.049808
C      1.634686   -0.270117   -0.579103
N      0.349970   -0.238127   -0.290903
C     -0.402873    0.635880    0.525558
H     -0.130966    0.666800    1.608845
H     -0.453759    1.665521    0.067841
C     -1.624530   -0.127510    0.198934
H     -2.069989   -0.704899    1.065336
H     -2.413173    0.474443   -0.329328
C     -0.783127   -0.965197   -0.608555
H     -0.939220   -1.843007   -1.241274
H      2.042790   -1.031961   -1.239805
H      2.284862    1.072972    0.872262
