14

O      2.701198   -0.364348   -0.290711
C      1.362491   -0.108797   -0.161394
C      0.966470    1.151822    0.121584
H      1.631268    1.974065    0.278306
C     -0.467704    1.381590    0.017232
H     -0.802995    2.425724   -0.043037
C     -1.372705    0.427783   -0.001562
H     -2.415772    0.576650   -0.036173
C     -0.825060   -0.894248    0.347605
H     -0.427705   -0.816250    1.498622
H     -1.507462   -1.715655    0.486099
N      0.425740   -1.147021   -0.289315
H      0.040510   -0.815153   -1.384299
H      0.691726   -2.076162   -0.542959
