19

C     -3.235041   -0.733489   -0.619347
C     -2.187761   -0.621451    0.449892
C     -0.846294   -0.357188   -0.086080
C     -0.152067    0.719364    0.229324
O      1.098568    0.981695   -0.260282
C      2.258903    0.283967    0.150851
C      3.492015    0.764727   -0.536106
H      3.396399    0.772216   -1.623212
H      4.331544    0.104834   -0.228627
H      3.703452    1.805504   -0.167221
H      2.064928   -0.790812   -0.038473
H      2.355130    0.403752    1.247213
H     -0.584597    1.455997    0.920517
H     -0.401030   -1.067386   -0.767285
H     -2.484933    0.174579    1.167902
H     -2.234711   -1.578597    1.048091
H     -3.028998   -0.108183   -1.509783
H     -3.347674   -1.814036   -0.898457
H     -4.197833   -0.395495   -0.182808
