15

C      1.667592   -0.298306   -0.692702
N      0.681720   -0.173286    0.357933
C     -0.615268    0.274652    0.044296
C     -0.792244    1.463480   -0.473322
H      0.051171    2.115628   -0.666600
H     -1.809564    1.785999   -0.707202
C     -1.752726   -0.624142    0.313101
H     -1.659469   -1.129404    1.315619
H     -2.729180   -0.107171    0.339565
H     -1.779735   -1.466855   -0.431727
O      0.945698   -0.469331    1.647420
H      1.902415   -0.353938    1.877701
H      1.228093   -0.493073   -1.679366
H      2.289520    0.622091   -0.772205
H      2.371977   -1.146343   -0.472510
