10

N     -2.910990    1.664693    0.761314
C     -1.830576    1.349998    0.456338
C     -0.493004    0.945339    0.095012
N      0.255827    0.217023    1.060196
C      0.858219   -0.870768    0.734178
C      1.416714   -1.852893    0.066754
H      0.846629   -2.757275   -0.045468
H      2.405778   -1.689882   -0.325965
N      0.014535    1.228880   -1.058989
H     -0.563131    1.764884   -1.743369
