14

C      1.924383    0.207703    0.054100
N      0.499268   -0.138848    0.011346
C     -0.493622    0.752932    0.000354
N     -0.380072    2.053176    0.024867
H     -1.252650    2.610439    0.011444
C     -1.681901    0.062772   -0.041954
H     -2.672496    0.476767   -0.060801
C     -1.315519   -1.262520   -0.054425
H     -2.000101   -2.097181   -0.086029
N      0.025160   -1.370463   -0.021397
H      0.585390   -2.277691   -0.021891
H      2.534599   -0.690580    0.142939
H      2.111647    0.792892   -0.881908
H      2.115915    0.880602    0.923353
