17

C     -2.240480   -0.912790   -0.133896
O     -1.226298   -0.385469   -0.980862
C     -0.155202    0.257667   -0.361249
C     -0.151423    1.713676   -0.176821
H     -1.186608    2.123393   -0.319326
H      0.192979    2.042794    0.819031
H      0.453687    2.154755   -0.994840
C      0.861724   -0.468739    0.059409
C      2.036972    0.102027    0.722370
H      1.969079   -0.067201    1.815991
H      2.256329    1.141250    0.443119
H      2.926675   -0.498552    0.387160
C      0.810629   -1.957758   -0.153010
H      1.052086   -2.094363   -1.241651
H     -2.997458   -1.381270   -0.811488
H     -1.825952   -1.675904    0.537904
H     -2.776739   -0.093517    0.388158
