13

C      1.743946    0.210568    0.095901
C      0.545345   -0.677302    0.083404
N     -0.627299   -0.165891   -0.029620
C     -1.720624   -1.072081   -0.033969
H     -1.856906   -1.663523   -0.931879
H     -2.344365   -1.128638    0.827054
C     -0.847462    1.231108   -0.145893
O      0.047563    2.104389   -0.152018
H     -1.864787    1.575444   -0.236624
H      0.690986   -1.722054    0.169063
H      1.723057    0.919636    0.958380
H      2.675605   -0.389729    0.249938
H      1.834943    0.778074   -0.853736
