10

C     -1.299845    0.979567    0.257006
H     -2.123845    1.657212    0.435026
C     -1.508277   -0.255617   -0.072576
N     -0.438818   -1.118199   -0.299120
H     -0.655325   -2.119995   -0.566589
C      0.912030   -0.698271   -0.183247
H      1.740737   -1.375885   -0.361228
C      1.157416    0.560786    0.152808
H      2.173936    0.945970    0.258428
N      0.041992    1.424433    0.379491
