14

C      2.647444    0.469302    0.451061
O      1.671693    0.603576   -0.289775
C      0.721848   -0.357274   -0.562167
C     -0.507713   -0.180005   -0.127682
N     -0.809774    0.988353    0.602054
O     -1.753580    1.883101    0.242383
H     -1.968466    2.456736    1.003780
C     -1.576361   -1.182214   -0.390486
H     -2.456245   -0.955882    0.232424
H     -1.201755   -2.215664   -0.144053
H     -1.867440   -1.096516   -1.457925
H      0.925825   -1.259747   -1.117809
H      2.851147   -0.448217    0.971419
H      3.323376    1.294448    0.586776
