10

O      1.662140    0.909356    1.008042
C      1.556240   -0.110796    0.352024
C      0.217441   -0.448604   -0.206009
N     -0.770679    0.556575    0.154759
C     -2.027746    0.127313   -0.438203
H     -2.322510    0.942160   -1.132157
H     -0.920715    0.628356    1.165294
H      0.341269   -0.475235   -1.308956
H     -0.146967   -1.411692    0.203253
H      2.411525   -0.717434    0.201954
