15

C     -2.035588   -0.513983   -0.458753
C     -1.097663    0.353118    0.346519
H     -1.608605    0.591280    1.296647
C     -0.640223    1.557796   -0.413172
N      0.783815    1.340784   -0.498438
H      1.426499    2.009678   -0.977569
C      1.162482    0.145066    0.132832
N      2.517790   -0.344665    0.214388
H      3.135344    0.051246    0.940680
H      2.821415   -1.076070   -0.459377
C      0.112787   -0.452819    0.631173
H      0.130247   -1.384812    1.164196
H     -1.410807   -1.184371   -1.112864
H     -2.562387   -1.187774    0.234981
H     -2.735106    0.095526   -1.041243
