15

N      0.130690    1.889815   -0.535834
C      0.362148    0.726382    0.299288
C     -0.907250   -0.028804    0.450319
N     -1.733936   -0.483331    1.349844
C     -2.106750   -0.767854    0.046300
H     -1.993542   -1.828293   -0.283673
H     -3.001150   -0.249106   -0.345500
C      1.339087   -0.145981   -0.400158
C      1.883577   -1.192470    0.198314
H      1.600910   -1.402576    1.216544
H      2.594610   -1.847594   -0.275138
H      1.642553    0.041673   -1.426586
H      0.803033    1.058155    1.249900
H     -0.192093    1.604658   -1.465752
H     -0.421888    2.625325   -0.077869
