11

N     -0.668026    1.194917   -0.801407
C     -0.111854   -0.003387   -0.227909
C     -1.161896   -0.973835    0.097735
O     -0.915109   -2.053138    0.590780
H     -2.224587   -0.763860   -0.092057
N      0.739524    0.288549    0.902380
C      1.906908   -0.190265    1.030865
O      3.097702   -0.490852    0.916126
H      0.542247   -0.462159   -1.005074
H     -1.294804    1.720542   -0.175513
H      0.089893    1.733488   -1.235925
