11

O     -2.125845    0.780574    0.632084
C     -1.308787   -0.069097   -0.117658
C      0.121807    0.155653    0.218604
O      0.957898   -0.553883   -0.394882
C      2.301934   -0.404400   -0.138352
H      2.614688    0.044040    0.799387
H      3.058523   -0.729163   -0.861923
H      0.457174    0.881117    0.945496
H     -1.482722    0.176420   -1.196069
H     -1.599274   -1.117593    0.083489
H     -2.995397    0.836332    0.125653
