17

C     -2.386578    0.045943   -0.206814
C     -1.006072   -0.287994   -0.690675
C      0.069899    0.397350    0.142771
O     -0.009877    0.007975    1.476319
H     -0.622743    0.606747    1.989972
C      1.414585    0.192964   -0.417096
C      2.557603   -0.365914    0.354131
H      3.092135   -1.070687   -0.324618
H      3.286990    0.428705    0.611968
H      2.249742   -0.870664    1.278223
O      1.641139    0.488228   -1.579027
H     -0.156969    1.490532    0.120372
H     -0.858669   -1.384486   -0.691513
H     -0.931450    0.042707   -1.746652
H     -2.876999    0.851179   -0.828080
H     -2.434797    0.283205    0.868849
H     -3.027939   -0.855792   -0.358129
