11

C     -0.792656   -0.726144    0.182753
H     -1.031202   -0.983848    1.178580
H     -1.641717   -1.127937   -0.535800
C     -0.722081    0.780767   -0.162638
H     -1.410497    1.260220    0.565832
H     -0.900410    1.079260   -1.150511
O      0.560197    1.187418    0.369759
C      1.698995    0.294326    0.114200
H      2.560534    0.377580    0.487238
C      1.338466   -0.719828   -0.684332
N      0.340372   -1.421814   -0.365082
