17

C     -1.973144   -0.547121    1.000602
C     -1.060123   -1.043873   -0.193754
H     -1.479013   -1.944811   -0.601039
O     -1.144764    0.105539   -0.978365
C     -0.044750    0.822173   -0.710260
H      0.165443    1.742003   -1.217544
H     -0.431484    1.241212    0.423674
C      1.075633   -0.051252   -0.279526
C      2.176686    0.522119    0.469048
H      2.153595    1.629830    0.499570
H      3.149973    0.160421    0.016454
H      2.198045    0.128642    1.508126
H      1.472690   -0.407120   -1.340468
C      0.337706   -1.214009    0.316305
H     -2.784977   -1.253742    1.171660
H     -1.319176   -0.305200    1.828956
H     -2.492338    0.415189    0.683301
