15

C      1.540008   -0.972859    0.241313
N      1.101333    0.408708    0.215437
C     -0.138271    0.446283   -0.553893
C     -1.043025   -0.717858   -0.189825
O     -1.325437   -0.603495    1.178181
H     -2.234499   -0.241203    1.245199
H     -0.566425   -1.697306   -0.352854
H     -1.934048   -0.646427   -0.820658
C     -0.844788    1.664693   -0.142421
N     -1.395422    2.624536    0.190975
H      0.075138    0.464405   -1.622931
H      0.948459    0.800726    1.151189
H      1.834562    0.956556   -0.318915
H      1.408211   -1.381150   -0.769939
H      2.574203   -1.105608    0.549143
