14

C     -1.019326    0.507525   -0.060150
H     -1.778769    1.076029   -0.592465
C     -1.359066   -0.862084    0.377995
H     -1.058490   -1.148269    1.397556
H     -2.279524   -1.314373   -0.024562
C     -0.241020   -0.608563   -0.570967
H     -0.261281   -1.002200   -1.591430
C      1.018882   -0.063114    0.037948
O      2.014430    0.188159   -0.889739
H      2.675089   -0.533514   -0.807875
H      1.340412   -0.737715    0.859514
C      0.232631    1.153291    0.468689
H      0.240509    1.304001    1.554395
H      0.475524    2.040826   -0.158909
