11

N     -1.679239   -0.045614    0.113947
C     -0.262462   -0.254034    0.058004
C      0.699426    0.727208   -0.148146
H      0.561530    1.788617   -0.298620
C      1.899843    0.053873   -0.121152
H      2.904183    0.425614   -0.238644
N      1.641950   -1.247138    0.089577
N      0.356132   -1.438030    0.197282
H     -1.969076    0.349149    1.024895
H     -1.999643    0.597346   -0.636735
H     -2.152641   -0.956990   -0.040408
