14

C     -0.679829   -1.052755   -0.976100
H     -1.778634   -1.256102   -0.803182
H     -0.354739   -1.170735   -1.958084
C     -0.123845    0.033918   -0.136334
C     -1.088121    1.014988    0.531046
H     -1.516579    0.669982    1.456196
H     -0.598564    1.974585    0.655299
H     -1.930273    1.194276   -0.177053
C      0.191413   -1.324099    0.245572
H     -0.246843   -1.824796    1.138098
O      1.563351   -1.083415    0.124433
C      1.387053    0.263732   -0.037740
N      2.073828    1.269480   -0.075513
H      3.101780    1.290941    0.013362
