15

C     -2.052048   -0.883498    0.064485
C     -0.879473   -0.217758   -0.610778
C     -0.010924    0.415412    0.458070
C      1.169331    1.094778   -0.117574
O      1.042946    2.135000   -1.016434
C      2.359391    0.711656    0.223799
O      3.560558    0.190822    0.684118
H      3.814724   -0.753647    0.448008
H      0.309091   -0.410418    1.126347
H     -0.624396    1.117571    1.052394
H     -0.306828   -0.890703   -1.267358
H     -1.292757    0.614650   -1.221272
H     -1.789735   -1.884333    0.463576
H     -2.867006   -1.050090   -0.673660
H     -2.432872   -0.189444    0.839376
