14

C     -0.717830    1.351414    0.141263
C     -0.398449   -0.080972    0.351106
C      0.976234   -0.579077    0.179058
C      1.474480   -0.344146   -1.209335
O      0.762956    0.200788   -2.035022
H      2.487024   -0.680049   -1.436500
H      0.995330   -1.653443    0.426355
H      1.664699   -0.025407    0.877621
C     -1.374799   -0.896231    0.695111
H     -2.405351   -0.562079    0.831546
H     -1.168635   -1.932762    0.851799
H     -0.922172    1.582761   -0.920536
H     -1.529466    1.621950    0.821619
H      0.155979    1.997251    0.425915
