10

C     -1.143350    0.137812   -0.001277
N      0.021014   -0.505285   -0.605801
C      1.193665    0.122954    0.020716
H      1.101400   -0.161301    1.108075
H      2.131935   -0.197400   -0.428250
H      0.999680    1.217032   -0.046979
H      0.008364   -1.527874   -0.468894
H     -1.529431    0.844233   -0.772878
H     -0.873458    0.682050    0.934383
H     -1.909819   -0.612220    0.260905
