9

C     -0.655342   -0.632936    0.706623
C     -0.428779    0.194189   -0.139048
C      0.856005   -0.012901   -0.860831
C      1.838518   -0.189103   -1.403523
H      2.971546   -0.414833   -2.035470
C     -1.265919    1.285083   -0.732428
N     -1.910116    2.097619   -1.188416
H     -1.473482   -0.833837    1.468265
H      0.067570   -1.493282    0.819171
