13

N      2.922583   -1.022183   -0.204340
C      1.662894   -0.804480   -0.098811
C      0.439613   -0.300028   -0.020289
C     -0.397254    0.159009    1.061863
H     -0.004453    0.997638    1.686141
H     -0.708834   -0.728668    1.702431
C     -1.477234    0.491850    0.112308
H     -1.592769    1.606953    0.039014
H     -2.450075   -0.033909    0.233161
C     -0.593814    0.013395   -0.974588
H     -0.342219    0.766076   -1.766441
H     -1.038420   -0.930674   -1.442594
H      3.579983   -0.214978   -0.327855
