14

O      2.199809   -0.623577   -0.453680
C      1.019545   -0.263576    0.098583
H      1.100686    0.246197    1.074304
N      0.327393    0.736506   -0.750817
H      0.787054    1.578782   -0.918624
C     -0.915325    1.006024   -0.100624
H     -0.805832    0.955004    1.048639
H     -1.424049    1.918352   -0.376763
C     -1.776862   -0.193271   -0.217925
H     -2.804889   -0.173413   -0.446344
C     -1.164985   -1.362615   -0.112967
C      0.069194   -1.354120    0.223577
H      0.472900   -2.233177    0.806347
H      2.915362   -0.237116    0.126294
