11

C      2.002954    0.901053   -0.038846
C      0.757441    0.415215   -0.076161
C     -0.408770    0.826440   -0.790357
H     -0.560528    1.669667   -1.502579
C     -1.182877   -0.251888   -0.204758
H     -1.564292   -1.024945   -0.922348
H     -2.044720    0.033499    0.435646
C      0.027732   -0.688567    0.544413
H      0.401091   -1.712944    0.310362
H     -0.155831   -0.573174    1.651501
H      2.727799    0.405644    0.593126
