9

N      0.102155   -1.360609   -0.597724
C      1.078727   -0.461827   -0.405844
O      2.461707   -0.733598   -0.393019
N      0.567736    0.767978   -0.221264
H      1.087272    1.653385   -0.050917
C     -0.757959    0.579150   -0.308876
H     -1.511828    1.365905   -0.208812
N     -1.032921   -0.701515   -0.535156
H     -1.994890   -1.108869   -0.644045
