12

O      0.141615    1.555840    0.491718
C      1.264352    0.747875    0.080130
H      2.216988    1.290214    0.118795
C      1.115857   -0.500076   -0.306703
H      1.936152   -1.062796   -0.596063
C     -0.231085   -1.108166   -0.408049
H     -0.302255   -1.561047   -1.399881
H     -0.308534   -1.920732    0.340878
N     -1.304789   -0.196326   -0.145068
C     -1.099294    1.023056    0.304988
H     -1.973915    1.752969    0.277976
O     -1.455092   -0.020811    1.241279
