16

C      2.723558    0.454983   -0.665931
C      1.236940    0.536353   -0.399570
N      0.829005   -0.337573    0.672065
C     -0.544467   -0.702488    0.591658
C     -1.521675    0.282497    0.057073
H     -1.112144    1.247534   -0.247370
C     -2.831134   -0.135744   -0.239770
H     -3.149998   -1.194762   -0.193784
H     -3.566509    0.537282   -0.740972
O     -2.590796    0.448514    1.105501
H     -0.885289   -1.681053    0.912289
H      1.461289   -1.125134    0.850658
H      0.678517    0.329358   -1.342668
H      3.271261   -0.073039    0.155238
H      2.913518   -0.088885   -1.614367
H      3.087925    1.502158   -0.784462
