10

C     -0.951582   -0.428138   -0.131756
H     -1.291159   -0.693243   -1.170825
H     -1.790405   -0.245490    0.569388
O      0.030578   -1.273000    0.260710
C      0.971918   -0.260703    0.276147
H      1.367524   -0.157602    1.325296
H      1.833580   -0.400199   -0.408566
C     -0.030528    0.732033   -0.149959
H     -0.216175    1.541615    0.582020
H      0.076247    1.184726   -1.152454
