14

C     -2.197939    0.579848    0.325781
C     -0.903668   -0.150791    0.056696
O     -0.288017   -0.585373    1.172990
C      0.885209   -0.783003    1.316218
C      1.934200   -0.599964    0.312281
O      2.065655    0.736112   -0.064033
H      2.775323    1.188722    0.477486
H      2.911516   -0.913287    0.770330
H      1.798730   -1.207654   -0.599636
H     -1.129595   -1.041777   -0.577239
H     -0.213308    0.480950   -0.521953
H     -3.084294   -0.096567    0.168798
H     -2.307131    1.370096   -0.458478
H     -2.246681    1.022687    1.322072
