15

C     -1.889478    0.635811   -0.702925
C     -0.782968    0.749622    0.335138
H     -0.432445    1.779508    0.498387
C     -0.662617   -0.282345    1.323041
H     -1.354071   -1.136759    1.382514
H     -0.165861   -0.052879    2.300647
N      0.296657   -0.282778    0.212605
C      1.401133   -0.837139   -0.460912
C      2.606810   -0.326529   -0.342064
H      2.747314    0.545410    0.293656
H      3.452800   -0.763607   -0.867326
H      1.247078   -1.690199   -1.079111
H     -2.835395    1.045345   -0.332821
H     -2.076039   -0.452303   -0.898372
H     -1.552917    1.068842   -1.662456
