14

C      2.381004   -0.104371   -0.118657
N      1.368466    0.921996   -0.140643
C      0.101419    0.669002   -0.004027
N     -0.923682    1.638082   -0.018806
N     -2.166581    1.099383    0.146198
H     -2.725357    1.273817   -0.724577
C     -1.996676   -0.282813    0.279037
H     -2.815920   -1.039630    0.430677
C     -0.571662   -0.619750    0.191755
H     -0.196110   -1.173273    1.080013
H     -0.451302   -1.226718   -0.739488
H      2.596819   -0.409988   -1.160271
H      2.058944   -0.997252    0.470033
H      3.340640    0.251516    0.308758
