11

C     -0.159991   -0.021359    0.004158
C      1.309394    0.091358    0.024484
H      1.708928   -0.580117   -0.782594
H      1.688332   -0.338676    0.972602
H      1.679441    1.116345   -0.116383
C     -0.686239   -1.205381    0.231919
H     -1.758424   -1.340275    0.227904
H     -0.000711   -2.033591    0.422411
C     -1.050088    1.090630   -0.250716
O     -0.611265    2.244826   -0.474968
H     -2.119377    0.976239   -0.258817
