15

O      2.279746   -0.680152    0.292733
C      0.947343   -0.776352    0.709627
C      0.048458    0.089404   -0.111083
C      0.285521    1.584179   -0.037149
O      0.556775    2.232550   -1.028706
H      0.194978    2.084617    0.977508
C     -1.451554   -0.243960    0.264189
H     -1.605810   -1.120283    0.899004
H     -2.062628    0.612110    0.500891
C     -0.867195   -0.405246   -1.123312
H     -1.315522    0.318579   -1.840014
H     -0.724564   -1.439080   -1.542176
H      0.876745   -0.418676    1.782375
H      0.568541   -1.824339    0.740711
H      2.269163   -0.013353   -0.484597
