14

C      2.418138    0.810195    0.241826
C      1.628587   -0.204771    0.555751
C      0.257150   -0.363155    0.024180
O     -0.663644   -0.380209    1.065816
C     -1.941572   -0.530209    0.532515
O     -2.271667    0.506347   -0.331263
H     -2.466624    1.356127    0.156195
H     -2.689103   -0.614715    1.348176
H     -1.992598   -1.467763   -0.072993
H      0.149388   -1.216783   -0.665809
H      0.048134    0.551664   -0.592636
H      2.005348   -0.953136    1.233231
H      2.096916    1.595764   -0.434777
H      3.421546    0.910643    0.641102
