13

O      2.050942    1.287121    0.706969
C      2.135762   -0.052845    0.339089
C      0.827181   -0.715554    0.103557
N     -0.320797    0.008650    0.417606
C     -1.618193   -0.586017   -0.079340
H     -1.528290   -1.353741   -0.881547
H     -2.272613   -0.852743    0.756086
C     -1.171961    0.788887   -0.376700
H     -1.674812    1.622520    0.182065
H     -1.055222    1.005248   -1.444066
H      0.829001   -1.139250   -0.931933
H      0.825774   -1.648763    0.789553
H      2.973228    1.636487    0.703147
