14

C      1.771640   -0.499076   -0.239615
C      0.572707    0.206372    0.343651
H      0.438980    0.021861    1.425148
C     -0.105457    1.311711   -0.265218
H      0.380120    1.824948   -1.137325
H     -0.632540    2.040792    0.386563
N     -0.630960    0.015613   -0.519511
C     -1.758231   -0.520344    0.161791
H     -1.895287   -0.113529    1.191478
H     -1.557880   -1.620318    0.322257
H     -2.660259   -0.470081   -0.453562
H      1.415427   -1.521093   -0.551460
H      2.571354   -0.678710    0.494322
H      2.090386    0.001855   -1.158517
