13

N      2.021109    0.629207    0.391193
C      0.916390    0.099875   -0.277714
O      0.570289    0.581685   -1.535764
C      0.194581   -0.853107    0.268095
O     -0.917149   -1.421021   -0.348042
C     -2.065702   -0.636246   -0.509136
N     -2.193640    0.338606    0.348094
H     -3.043681    0.960641    0.269527
H     -2.788963   -0.829217   -1.288248
H      0.487860   -1.205136    1.243056
H      1.668448    1.239152    1.168630
H      2.567471   -0.142375    0.807740
H      2.582987    1.237935   -0.252946
