12

C      1.588594   -0.530479   -0.016375
C      0.573970    0.441739   -0.525681
O      0.911139    1.251097   -1.428195
C     -0.777082    0.477649   -0.012622
O     -1.643991    1.407561   -0.541654
H     -2.224624    1.081752   -1.328375
C     -1.192371   -0.341692    0.930934
H     -0.545909   -1.088505    1.375926
H     -2.205629   -0.299097    1.300938
H      2.134388   -0.137267    0.859742
H      1.106364   -1.518790    0.234127
H      2.275151   -0.743967   -0.848764
