9

O     -0.845164    1.221768   -0.339248
C     -0.844584   -0.189191   -0.305350
C      0.426519   -0.558739    0.409290
C      1.523036   -0.106807   -0.122663
O      2.597906    0.425124   -0.464989
H      0.369607   -1.156702    1.292963
H     -1.732724   -0.538017    0.239902
H     -0.765970   -0.585645   -1.338242
H     -0.728626    1.488210    0.628336
