10

C     -1.348156   -0.075122   -0.270741
H     -2.015643   -0.946952   -0.230641
H     -1.237479    0.446356   -1.236020
C     -0.090074   -0.233123    0.567831
C      1.191463    0.219667   -0.086515
H      1.099013    0.151207   -1.206950
H      2.039665   -0.420175    0.182534
H      1.458588    1.268871    0.176241
H     -0.012789   -1.099056    1.257366
O     -1.084588    0.688327    0.846895
