11

N     -2.140702    0.120925   -0.044167
C     -0.730950    0.364588   -0.010420
H     -0.412892    1.342434    0.356293
O     -0.180008    0.134309   -1.384598
C      0.270017   -0.668166   -0.213500
C      1.658975   -0.308833    0.110780
C      2.798162   -0.001160    0.360151
H      3.810486    0.291044    0.587868
H      0.071278   -1.733113   -0.324980
H     -2.477419   -0.566960    0.664552
H     -2.666949    1.024932   -0.006150
