14

C     -1.995235    0.327095    0.401664
C     -1.188949    0.454782   -0.839439
C      0.090283    0.125556   -0.752411
C      0.658892   -0.341324    0.525564
C      1.938445   -0.665940    0.594496
O      2.783586   -0.586897   -0.494500
H      2.892464    0.213170   -1.067859
H      2.341619   -1.006554    1.537652
H      0.078303   -0.432792    1.417401
H      0.697605    0.210202   -1.642653
H     -1.625487    0.803598   -1.783392
H     -2.187159   -0.743490    0.640288
H     -1.493650    0.857231    1.253392
H     -2.990715    0.785362    0.209800
