14

N      2.493887    0.253119    0.612427
C      1.259667   -0.400321    0.389484
O      1.008716   -1.484523    1.012854
C      0.277581    0.190039   -0.568342
C     -0.910450   -0.695881   -0.602287
C     -2.093847   -0.224492   -0.260356
O     -2.171570    1.103661    0.122116
H     -2.731660    1.452429    0.881359
H     -2.979436   -0.880752   -0.284517
H     -0.744546   -1.715815   -0.914950
H     -0.016767    1.200722   -0.206679
H      0.683090    0.212270   -1.604702
H      2.973426    0.139944    1.524531
H      2.951909    0.849600   -0.100938
