12

C      2.528453    0.616919    0.260219
C      1.217576   -0.034689    0.154192
C      0.119163   -0.559714    0.074207
C     -1.178873   -1.168410   -0.030588
C     -2.275607   -0.401894    0.048879
C     -2.082517    1.069434    0.245609
H     -2.434664    1.286362    1.279262
H     -3.261995   -0.853798   -0.029394
H     -1.296908   -2.234732   -0.172742
H      3.145506   -0.006876    0.950337
H      2.462591    1.661965    0.597747
H      3.057273    0.625433   -0.729958
