14

C      1.956503    0.458044    0.182887
C      0.508810    0.061192    0.254652
C     -0.118047   -1.254469    0.428836
H      0.104764   -1.745831    1.407719
H      0.099019   -1.936701   -0.428395
C     -1.443568   -0.562085    0.362464
H     -2.024176   -0.938520   -0.503209
H     -1.965677   -0.648395    1.343196
C     -0.778860    0.720303    0.191863
C     -1.083301    2.014745    0.034568
H     -2.135951    2.250684    0.021129
H      2.029356    1.544340    0.068766
H      2.369508   -0.034165   -0.724219
H      2.481620    0.070858    1.061054
