9

C     -0.712902   -1.145577   -0.373720
C     -1.307726    0.008025   -0.318005
H     -2.356704    0.240727   -0.267164
N     -0.262044    0.969504   -0.337277
H     -0.370924    2.006223   -0.305349
C      0.999777    0.267044   -0.409549
O      2.150672    0.768521   -0.445402
C      0.590788   -1.136476   -0.429060
H      1.269063   -1.977991   -0.480132
