16

C      1.159931    0.902928   -0.775137
H      0.869468    0.988922   -1.831955
H      1.209273    1.867785   -0.219572
C      2.280825   -0.041608   -0.494004
H      2.626125   -0.743110   -1.297273
H      3.020555    0.176561    0.297032
C      0.854373   -0.322990   -0.010070
C      0.015862   -1.122187    0.634018
C     -1.405537   -0.742653    0.741779
C     -1.717220    0.561572    0.072555
H     -1.069019    1.389920    0.367668
H     -2.784584    0.808076    0.327096
H     -1.675926    0.474769   -1.029152
H     -2.092707   -1.509134    0.298002
H     -1.631502   -0.639490    1.832605
H      0.340083   -2.049359    1.086407
