11

C     -1.465380   -0.547610   -0.032078
C     -0.526953    0.591921   -0.117089
N     -0.899652    1.814151   -0.169523
H     -0.160897    2.549966   -0.228141
O      0.831357    0.296684   -0.140053
C      1.348219   -0.534836    0.657576
O      2.714402   -0.747714    0.540186
H      3.126353   -0.826614   -0.401737
H     -1.411899   -0.950122    0.984700
H     -2.477635   -0.299561   -0.383186
H     -1.077915   -1.346265   -0.710657
