12

C     -1.614179   -0.476696   -0.038751
C     -0.225036   -0.028293   -0.235241
C      0.743704   -0.777517    0.288946
O      2.092162   -0.405026    0.137303
H      2.753431   -1.109170   -0.190123
H      0.491166   -1.669190    0.829111
N      0.149851    1.136908   -0.938432
C      0.493551    2.199832   -0.328415
O      0.930548    3.095316    0.408546
H     -2.365749    0.221608   -0.402303
H     -1.717531   -1.456974   -0.574193
H     -1.731918   -0.730798    1.043552
