15

C      1.540504    0.445744   -0.302174
H      1.450925    0.995559   -1.236529
H      2.462459    0.790864    0.245109
O      1.548808   -0.934820   -0.361850
C      0.502975   -1.000114    0.505115
H      0.651138   -1.576584    1.439117
C     -0.827218   -1.115732   -0.146789
H     -1.524131   -1.719043    0.458592
H     -0.793799   -1.405271   -1.226070
C     -0.981973    0.390215   -0.003448
C     -1.174392    1.148011   -1.269484
H     -1.931413    1.964447   -1.093139
H     -1.770675    0.595627    0.750015
C      0.373202    0.472537    0.639491
H      0.473590    0.948559    1.602045
