17

C     -2.298098    0.072596   -0.075042
C     -0.877893    0.125098    0.467618
H     -0.919083   -0.080231    1.581257
C      0.030455   -0.918211   -0.090830
H     -0.097457   -0.974970   -1.206393
H     -0.118056   -1.936478    0.362900
C      1.405216   -0.345105    0.146613
O      2.357259   -0.823273   -0.732762
H      2.349742   -0.380708   -1.594497
H      1.743824   -0.606910    1.190602
C      1.215435    1.154634    0.025467
H      1.577465    1.565697   -0.900793
H      1.803212    1.646455    0.882817
C     -0.225282    1.438205    0.345071
H     -2.785519    1.038346    0.098794
H     -2.836645   -0.657278    0.573888
H     -2.324575   -0.317867   -1.074713
