10

O      0.250809    1.483942    0.142084
C      1.282788    0.628701   -0.088762
H      2.303245    0.655516   -0.221308
C      0.674038   -0.644457   -0.097711
H      1.302376   -1.592294   -0.289152
C     -0.792390   -0.610321    0.060713
H     -1.366389   -0.989788   -0.716557
H     -0.971091   -1.027121    1.058015
N     -0.915582    0.830654    0.330297
H     -1.767803    1.265168   -0.177620
