15

O      2.683276    0.079325    0.683639
C      1.750157    0.763626   -0.048949
C      0.561047   -0.064900   -0.439855
C     -0.121362   -0.545117    0.838738
C     -1.577845   -0.937656    0.537126
C     -2.267208    0.288680    0.105469
O     -2.963178    0.934757    0.841249
H     -2.155157    0.648401   -0.934424
H     -2.003125   -1.354190    1.458662
H     -1.510940   -1.705052   -0.273591
H     -0.126641    0.480036   -1.112416
H      0.867455   -0.985871   -1.001839
H      1.427056    1.620638    0.616244
H      2.155811    1.271393   -0.954994
H      3.280654   -0.494071    0.138038
