17

C      2.613583   -0.652912    0.167163
O      1.226735   -0.806374    0.235477
C      0.549681    0.305203   -0.204215
C     -0.942866   -0.004592   -0.073318
O     -1.240808   -0.266301    1.224970
C     -1.863309   -1.236562    1.604788
H     -2.206465   -1.948096    0.841000
C     -1.712923    1.214736   -0.536559
H     -2.633226    1.370049    0.085820
H     -1.086234    2.100835   -0.413318
H     -2.000470    1.023193   -1.604618
H     -1.212623   -0.886656   -0.687444
H      0.808259    1.176424    0.401545
H      0.723668    0.467194   -1.292435
H      2.846733   -0.466917   -0.917591
H      3.139470   -1.586213    0.423997
H      2.990794    0.196990    0.744735
