8

O      2.298728   -0.085090    1.018265
C      1.646591    0.159314   -0.175798
C      0.526182   -0.484765   -0.446712
O     -0.654926   -0.819834   -0.469905
C     -1.648928   -0.090953    0.149439
O     -1.486233    0.969987    0.793955
H     -2.667424   -0.499313    0.053984
H      1.986010    0.850653   -0.923228
