14

C      1.857354    0.459028    0.842028
H      2.688172   -0.226848    0.529604
H      2.163724    1.344406    1.401472
C      0.545194   -0.094864    0.967912
H     -0.257029    0.316100    1.618912
O      0.214755   -1.299189    0.330176
C     -1.082392   -1.164690   -0.158712
H     -1.349981   -2.105181   -0.665477
H     -1.762490   -1.012353    0.719436
C     -1.220808    0.039194   -1.027625
H     -2.167082    0.231814   -1.487007
C     -0.248287    0.935574   -1.091653
H     -0.273022    1.790947   -1.743610
N      0.891891    0.786062   -0.235455
