14

O      1.622788    1.024223    0.640765
C      0.566358    0.564956   -0.147172
H      0.425527    1.220441   -1.030193
C      0.690566   -0.877945   -0.524356
H      1.551040   -1.403857   -0.016591
H      0.663046   -1.095856   -1.610783
C     -0.572422   -1.176949    0.229601
H     -1.361845   -1.506900   -0.473960
H     -0.452212   -1.818196    1.124285
C     -0.695787    0.256527    0.604312
C     -1.937491    0.898044    0.023614
H     -1.721152    1.451978   -0.915614
H     -0.599953    0.499297    1.679819
H      1.821535    1.964236    0.416272
