12

N      1.995009   -0.044481   -0.008492
C      0.587571    0.119882    0.008299
C     -0.265267   -0.889410   -0.040846
H      0.016167   -1.925396   -0.097867
C     -1.660270   -0.390305   -0.006214
H     -2.198927   -0.777048    0.866642
H     -2.159049   -0.633999   -0.974642
C     -1.543463    1.118804    0.073874
N     -0.124275    1.346425    0.077974
H      0.320693    2.282334    0.125508
H      2.575831    0.419974    0.703985
H      2.455981   -0.626780   -0.728221
