17

O      2.709943   -0.040415   -1.065440
C      2.363493    0.584496    0.114715
C      1.072661    0.020632    0.651283
O      0.010584    0.182229   -0.227475
C     -1.108900   -0.374505    0.380896
H     -0.950001   -0.805541    1.371179
C     -2.290407   -0.761027   -0.430104
H     -2.896784   -1.631106   -0.045419
H     -2.203767   -0.798143   -1.534315
C     -2.373927    0.532995    0.250752
H     -2.282034    1.432600   -0.385609
H     -2.940183    0.674345    1.193513
H      1.183348   -1.068650    0.838382
H      0.834546    0.583300    1.594865
H      2.225703    1.672373   -0.080385
H      3.154679    0.450929    0.880028
H      3.491046   -0.654513   -0.910127
