14

C     -1.031866   -1.002782    0.063483
C     -0.310913    0.306766   -0.087001
C      1.099825    0.211736    0.450705
O      1.748951   -0.846123   -0.196718
H      2.670338   -0.569978   -0.435126
H      1.588259    1.191431    0.232990
H      1.027215   -0.000015    1.532196
C     -0.287236    0.625144   -1.583285
H      0.056711    1.682714   -1.655756
O     -0.999636    1.342561    0.523533
H     -1.932660    1.074871    0.779244
H     -1.921614   -1.079855   -0.564368
H     -1.355310   -1.097438    1.124657
H     -0.352066   -1.839031   -0.184553
