15

O      2.590106   -0.525066   -0.249926
C      1.186868   -0.548309   -0.277002
C      0.735321    0.853931   -0.015802
C     -0.716834    0.967680   -0.017554
O     -1.491607    2.073747    0.181644
H     -1.291394    2.654338    0.990983
C     -1.400596   -0.117530   -0.236384
C     -2.034965   -1.258160   -0.465396
H     -2.252767   -1.804314    0.410360
H     -2.222256   -1.442122   -1.484848
H      1.168621    1.542733   -0.768450
H      1.095466    1.202488    0.984558
H      0.826019   -1.203577    0.540623
H      0.828767   -0.965864   -1.214638
H      2.979251   -1.429975   -0.243690
