16

C     -0.118119    1.448014    0.484347
C     -0.002174    0.109229   -0.151794
C      1.442448   -0.258190   -0.458176
H      2.047266    0.086590    0.411837
H      1.861943    0.173816   -1.353963
H      1.564695   -1.359992   -0.465944
C     -0.365599   -0.981432    0.748871
H      0.305658   -1.358467    1.444005
H     -1.291997   -0.474187    1.409773
O     -1.203252   -1.912003    0.097251
C     -1.520771   -1.386514   -1.101302
N     -0.964013   -0.033080   -1.134906
H     -1.291791    0.665431   -1.820650
H     -1.199399    1.579431    0.788142
H      0.550133    1.470970    1.371895
H      0.184971    2.230385   -0.269386
