14

C     -1.681728   -0.534303   -0.267762
C     -0.481532   -0.002268    0.463674
H     -0.797812    0.389152    1.438914
C      0.556470   -1.066482    0.681487
C      1.839468   -0.407848    0.286404
H      2.460345   -0.246459    1.192751
H      2.413787   -1.045538   -0.403788
O      1.579727    0.802410   -0.287091
C      0.228917    1.002934   -0.380330
H     -0.000684    2.010585    0.051583
H     -0.116761    1.022540   -1.438820
H     -2.554584    0.109322   -0.008715
H     -1.497254   -0.471226   -1.369206
H     -1.948360   -1.562820    0.040899
