14

C     -1.106864    1.224268   -0.082942
C     -0.235497   -0.003401   -0.221359
C      1.220529    0.108381    0.024352
O      1.985815    0.970582   -0.751020
H      2.965027    0.704423   -0.924415
N      1.732002   -0.602815    0.955535
H      1.205087   -1.252049    1.552003
C     -0.880676   -1.334423    0.036548
H     -0.252589   -2.148794    0.442254
H     -1.971576   -1.369119    0.256780
O     -0.618842   -0.863836   -1.250901
H     -1.734687    1.361764   -0.986794
H     -1.801441    1.078454    0.790712
H     -0.506288    2.126565    0.159247
