12

C     -2.009344    0.237472    0.194319
C     -0.616328   -0.301162    0.091281
N     -0.224983   -1.521905   -0.322956
N      1.103311   -1.613637   -0.269167
C      1.582988   -0.434104    0.187161
O      2.912193   -0.107013    0.391898
H      3.184180    0.869578    0.393714
N      0.515493    0.360908    0.403810
H      0.570652    1.341320    0.760640
H     -2.310877    0.053172    1.262878
H     -2.008874    1.345319    0.073769
H     -2.698409   -0.229946   -0.519577
