10

O      2.308316    0.402413   -0.369672
C      1.221566   -0.257402   -0.898272
C      0.132281   -0.396279    0.149232
H      0.488459   -0.540887    1.176137
C     -0.804930    0.753634    0.034288
H     -0.801460    1.813610    0.207580
N     -1.794177   -0.179185   -0.435646
H     -2.643405   -0.242832    0.147015
N     -0.910579   -1.251246   -0.325303
H      2.803930   -0.101827    0.314641
