14

O      2.396610    0.585979    0.132825
C      1.402373   -0.427300   -0.013413
C      0.047690    0.111149   -0.126106
C     -0.419652    1.321639   -0.142429
H      0.306459    2.164235   -0.103077
O     -1.761955    1.335767   -0.162267
N     -2.278652    0.056005    0.009474
H     -2.364708   -0.022776    1.021495
C     -1.139251   -0.820974   -0.401866
H     -1.128647   -0.909603   -1.531526
H     -1.055012   -1.712601    0.136655
H      1.645681   -1.122535   -0.792488
H      1.528271   -1.085583    0.967127
H      2.820793    0.526598    1.005595
