12

O     -1.957179   -0.648206   -0.453341
C     -0.733763   -0.380878    0.080142
H     -0.747888   -0.527585    1.208823
C      0.369637   -1.319533   -0.330708
C      1.567895   -0.458315   -0.027481
H      1.544523   -0.485521    1.144128
H      2.517652   -0.812183   -0.387378
O      1.214086    0.817453   -0.328166
C     -0.143922    0.949721   -0.253693
H     -0.585163    1.252719   -1.240341
H     -0.430697    1.684655    0.559402
H     -2.615180   -0.072327    0.028613
