14

C     -1.411275   -0.603450    0.299363
H     -0.825726   -1.375534    0.855192
H     -2.432246   -0.858248   -0.043442
C     -0.648519    0.260030   -0.645516
H     -1.051778    0.563328   -1.618656
C     -1.090123    0.795689    0.646825
H     -1.902749    1.518970    0.777947
O      0.217951    1.104048    0.973083
C      0.743935    0.616809   -0.216350
C      1.610644   -0.615426   -0.068586
H      2.252325   -0.708337   -0.965459
H      2.248350   -0.514218    0.841225
H      1.015771   -1.551696   -0.008855
H      1.273440    1.368035   -0.826772
