10

O     -0.457489   -0.874474    0.120603
C      0.357828   -0.424125    1.143791
C      1.532784    0.090717    0.845180
H      2.215731    0.462654    1.632222
H      1.812962    0.140034   -0.196306
H      0.089347   -0.467768    2.190118
C     -0.883855   -0.012682   -0.862668
O     -1.691482   -0.354729   -1.918697
H     -2.477511    0.257441   -2.174042
O     -0.498315    1.182932   -0.780202
