19

C     -1.883672   -0.947301    0.634078
C     -1.519329    0.124206   -0.308846
O     -1.185286    1.272619    0.440429
H     -2.047618    1.537274    0.892656
C     -0.432373   -0.169392   -1.279253
C      0.892802   -0.513671   -0.694011
C      1.460670    0.594105    0.170440
C      2.709438    0.014844    0.838626
H      3.119810   -0.815921    0.225339
H      2.387779   -0.362986    1.817422
H      3.500195    0.783060    0.954458
H      1.608563   -0.640541   -1.534960
H      0.910591   -1.467455   -0.134319
H     -0.727015   -0.991640   -1.964240
H     -0.293078    0.728303   -1.919133
H     -2.421727    0.411394   -0.889810
H     -2.650584   -1.653737    0.198234
H     -1.040829   -1.547223    1.023402
H     -2.388336   -0.511933    1.529488
