11

C      1.253132   -0.266222   -0.002185
C     -0.065605    0.328968    0.427820
O     -0.137185    1.708874    0.233064
H     -0.445955    1.833398   -0.704595
C     -1.258658   -0.522513    0.017728
H     -2.010719    0.030237   -0.544231
H     -1.082741   -1.549288   -0.356290
C     -0.925799   -0.284436    1.430869
H      1.184345   -0.380145   -1.124014
H      2.111703    0.389264    0.224588
H      1.377482   -1.288137    0.397247
