15

O      2.383978    0.769435   -0.520138
C      1.094254    0.605267   -0.135864
H      0.439295    1.466342   -0.446208
C      0.423519   -0.622853   -0.684710
H      1.178788   -1.445473   -0.823595
H     -0.094863   -0.500667   -1.630340
C     -0.536489   -0.909509    0.436007
C     -1.717137    0.049282    0.150231
H     -2.679938   -0.423213    0.300416
H     -1.573883    0.939133    0.821000
H     -1.673451    0.477509   -0.845310
H     -0.883162   -1.964784    0.487534
O      0.042852   -0.406287    1.571654
C      0.910007    0.412278    1.317267
H      2.686230    1.553540    0.002054
