11

O     -1.847731    1.702232   -0.289009
C     -0.912559    0.922390   -0.087479
O      0.396527    1.356940    0.052498
C      1.415324    0.695980    0.140363
H      2.374083    0.967287    0.267716
C      1.178810   -0.782122    0.066221
H      2.088696   -1.415868    0.010840
C     -0.000639   -1.344079   -0.051194
C     -1.191211   -0.549979   -0.036267
H     -1.749330   -0.737314    0.884563
H     -1.751969   -0.815467   -0.958250
