17

C     -1.760277    1.149347    0.271518
C     -1.321190   -0.256645    0.075771
C     -2.222813   -1.212451    0.181018
H     -3.263875   -1.020642    0.402562
H     -1.962717   -2.271568    0.047590
C      0.111408   -0.500261   -0.227494
O      0.850727    0.018232    0.879539
C      2.247377   -0.046225    0.923205
C      2.966209    0.406825   -0.075845
H      2.484479    0.829638   -0.932495
H      4.034596    0.362110   -0.052059
H      2.666399   -0.483897    1.815184
H      0.351535    0.075003   -1.169232
H      0.321633   -1.583688   -0.359229
H     -1.866589    1.587685   -0.759965
H     -0.928086    1.717502    0.737474
H     -2.708815    1.229035    0.839201
