15

C      2.243815    0.091006    0.036409
C      0.750042    0.128967    0.001977
C      0.056353    1.244476   -0.120278
H      0.486010    2.240699   -0.207852
N     -1.332957    0.946798   -0.120082
H     -2.148530    1.600084   -0.200120
C     -1.500282   -0.456486    0.012300
N     -2.637820   -1.088689    0.050061
H     -3.544209   -0.544723   -0.021264
C     -0.148277   -1.037241    0.096359
H     -0.042864   -1.724123   -0.773575
H      0.007478   -1.605469    1.044036
H      2.676822    1.023423    0.427388
H      2.503400   -0.732214    0.750917
H      2.631020   -0.086507   -0.976276
