11

N     -1.689606   -0.063249   -0.061286
C     -0.272744   -0.250540    0.058492
C      0.358711   -1.410513    0.430977
O      1.640926   -1.163136    0.415810
C      1.896530    0.072028    0.061277
H      2.904009    0.508739   -0.022471
C      0.692922    0.698953   -0.179156
H      0.572584    1.739748   -0.493136
H     -2.071057   -0.831833   -0.651114
H     -2.144699   -0.182837    0.891112
H     -1.887576    0.882640   -0.450504
