15

C     -0.302394   -0.832891   -0.268006
C      0.071539    0.084557    0.855602
O      1.148969    0.283848    1.694583
C      0.770180    1.276565    2.327502
C      0.011918    2.457672    2.898596
H     -0.873148    2.111235    3.408375
H      0.616337    3.272328    3.250612
C     -0.388115    2.604972    1.363153
H      0.535712    2.853355    0.803753
H     -1.253297    3.251158    1.243794
C     -0.560736    1.149259    1.522908
H     -1.379420    0.866184    2.268636
H      0.609962   -1.358312   -0.568548
H     -1.081337   -1.511192    0.169523
H     -0.731244   -0.180301   -1.056020
