15

C      1.389297    0.545106    0.643543
H      2.365767    0.975740    0.310045
H      1.006678    1.036447    1.557511
C      1.473950   -0.963555    0.723097
C      0.537538   -1.051267   -0.424226
H      0.904567   -1.530728   -1.347508
C     -0.911627   -1.146310   -0.130763
H     -1.086860   -1.477594    0.913731
H     -1.543996   -1.664174   -0.873167
C     -0.997698    0.360110   -0.219856
O     -1.460395    0.959559    0.937084
H     -1.279876    1.914280    0.972605
H     -1.606244    0.686144   -1.092520
C      0.445993    0.451605   -0.509162
H      0.762906    0.904636   -1.460413
