13

O      1.074917   -0.316086    0.396642
C      2.294546   -0.183839   -0.201516
N      2.321694    0.200713   -1.446661
H      1.430875    0.392775   -1.941548
H      3.245595   -0.372203    0.272982
C     -0.170035   -0.183637   -0.250970
C     -1.249843   -0.393479    0.715767
C     -2.131549    0.558153    0.952646
H     -2.940051    0.425538    1.664436
H     -2.072744    1.505722    0.439416
H     -1.328083   -1.329289    1.238705
H     -0.216190   -1.034502   -0.993772
H     -0.259131    0.730134   -0.846126
