14

C     -0.648269    1.310416    0.048000
H     -1.190250    2.039765   -0.580809
H     -0.978951    1.436538    1.085175
C     -1.043140   -0.071072   -0.446245
H     -2.106637   -0.230806   -0.228459
H     -0.757391   -0.205199   -1.502340
C     -0.269964   -1.110337    0.352937
H     -0.574459   -0.949356    1.416721
H     -0.541721   -2.120678   -0.009788
N      1.128276   -0.875883    0.147446
H      1.778837   -1.713623    0.178665
C      1.600601    0.430414   -0.083953
O      2.854766    0.553005   -0.244566
O      0.748302    1.506815   -0.132783
