17

C      2.506518    0.205346   -0.023264
C      1.267737   -0.517168   -0.452470
C      0.044889    0.068120    0.098077
H      0.406790    0.905200    0.920719
O     -0.730331    0.960138   -0.619913
C     -1.986813    0.697950   -0.177465
H     -2.829967    1.190320   -0.588499
H     -1.826831    1.279078    0.948475
C     -2.162661   -0.675734    0.341977
H     -2.933729   -0.979159    0.899467
H     -2.130529   -1.244281   -0.730535
C     -0.725271   -0.974484    0.805771
H      1.200397   -0.432587   -1.608281
H      1.355263   -1.584584   -0.220462
H      3.315288   -0.542503    0.233055
H      2.304305    0.755032    0.940476
H      2.924944    0.889316   -0.767129
