9

C     -0.138674   -0.461454    0.541929
C     -1.223848    0.137743   -0.247940
H     -1.161780    1.244212   -0.103027
H     -1.024883   -0.097722   -1.331880
H     -2.223420   -0.191182    0.049438
C      1.073495   -0.440385    0.009842
N      2.260712   -0.107171   -0.329902
H      2.654640    0.832555   -0.095400
H     -0.216242   -0.916595    1.506940
