9

C     -0.679104   -0.540509   -0.080831
H     -1.304523   -0.838403    0.781521
H     -0.898830   -1.083589   -1.012088
C     -0.178671    0.847474   -0.074409
H     -0.432708    1.510103    0.774730
H      0.011250    1.402446   -1.023008
C      0.790249   -0.291837    0.143745
H      1.511060   -0.551614   -0.669678
H      1.181276   -0.454071    1.160019
