16

N     -1.364057    1.906422   -0.397348
C     -0.429107    1.058681   -0.320337
C     -0.331248   -0.386960   -0.412294
C     -1.550498   -1.030254    0.148091
H     -1.297032   -2.026967    0.468510
H     -1.864687   -0.365564    1.006807
H     -2.394241   -1.043906   -0.572436
H     -0.285573   -0.679473   -1.538315
C      0.970515   -0.763441    0.191640
H      0.749323   -0.883065    1.346110
H      1.377382   -1.681561   -0.092688
C      1.806957    0.461431    0.104496
H      2.388208    0.618990    1.050191
H      2.514162    0.357827   -0.759839
O      0.906039    1.530459   -0.002121
H     -1.196142    2.927382   -0.220468
