16

C     -0.939622   -0.740536    0.969346
C     -0.753621   -0.129304   -0.404594
H     -1.363077   -0.624114   -1.201364
C     -0.897365    1.357016   -0.465884
H     -1.647646    1.735464   -1.193783
H     -1.042284    1.801593    0.549121
C      0.520181    1.472715   -0.917899
C      0.666350   -0.010231   -0.857584
C      1.702428   -0.359666    0.206889
H      1.333640   -0.110378    1.200767
H      2.614006    0.261489   -0.029283
H      2.024863   -1.410595    0.143889
H      0.890039   -0.506052   -1.839761
H     -1.915398   -1.296326    0.931406
H     -0.164223   -1.495147    1.189014
H     -1.028268    0.054073    1.719721
