12

C      1.652510    0.379421    0.051172
C      0.432653   -0.362968   -0.437982
H      0.709172   -1.077874   -1.235423
N     -0.260888   -1.023727    0.648946
C     -1.470687   -0.591533    0.758488
H     -2.204034   -0.914996    1.484839
C     -1.661919    0.415001   -0.281785
H     -2.566772    0.981087   -0.473564
N     -0.571640    0.540128   -0.960600
H      2.532991   -0.258742   -0.140592
H      1.811424    1.313324   -0.554450
H      1.597189    0.600880    1.140950
