13

C     -1.365762   -0.187882   -0.209004
H     -1.664945   -0.584905   -1.189730
H     -2.252071    0.111321    0.421843
O     -0.665577   -1.116237    0.561538
C      0.540913   -0.519413    0.904246
H      1.073567   -0.941231    1.717296
C      1.307628   -0.309242   -0.382294
H      2.286138    0.155188   -0.083229
H      1.436546   -1.225072   -0.961938
O      0.618177    0.686278   -1.072430
C     -0.485684    1.026748   -0.300751
H     -0.951626    1.953707   -0.520696
C      0.122697    0.950739    1.115149
