14

C     -1.907755    0.277456   -0.271031
C     -0.440588    0.574777   -0.153989
H     -0.164131    1.634091    0.074867
C      0.396986   -0.433286    0.581583
H     -0.040725   -1.313685    1.055062
C      1.849652   -0.089532    0.683949
H      2.504838   -0.949091    0.957377
H      2.021012    0.815417    1.261485
O      1.883303    0.077567   -0.709581
C      0.543468   -0.232817   -0.877669
H      0.264685   -1.019272   -1.604266
H     -2.506731    1.214198   -0.138201
H     -2.254644   -0.489270    0.451006
H     -2.149369   -0.066553   -1.310591
