9

N      2.020021   -0.148600    0.049447
C      0.730572   -0.332242    0.145786
N      0.103280   -1.411420    0.647289
O     -1.167936   -1.195146    0.559800
C     -1.441220   -0.043541    0.033421
H     -2.382876    0.442376   -0.180980
N     -0.235560    0.521862   -0.237498
H     -0.035471    1.454590   -0.667759
H      2.409192    0.712122   -0.349505
