11

C      2.095117    0.041538    0.442918
N      0.984680   -0.570306    0.398070
C     -0.145769    0.013756    0.048732
C     -1.450529   -0.761370   -0.386256
H     -1.237862   -1.311298   -1.323192
H     -1.982683   -1.240615    0.418989
C     -1.099088    0.704764   -0.408542
H     -1.486518    1.465195   -1.013741
O     -0.807796    0.983182    1.033441
H      3.035777   -0.416499    0.725165
H      2.094670    1.091653    0.160247
