12

C     -1.565939    0.702346    0.465936
H     -1.467955    1.783932    0.207325
H     -1.807523    0.446986    1.534186
C     -1.684010   -0.313739   -0.597860
H     -2.335278   -1.197884   -0.349647
H     -1.945451    0.096230   -1.608874
C     -0.396676   -0.165664    0.001338
C      0.853974   -0.516300    0.085546
C      2.126058   -0.647065    0.300481
O      3.012984    0.107151   -0.430085
H      2.770800    1.047361   -0.653441
H      2.439017   -1.343355    1.045095
