12

C      2.172256    0.147774   -0.047324
O      1.073924   -0.561724   -0.547589
C     -0.225143   -0.305200   -0.216131
C     -1.079309   -1.187021    0.303469
C     -2.395482   -0.787088    0.351082
H     -3.029418   -1.534536    0.763103
O     -2.320768    0.441171   -0.161760
N     -1.021021    0.882044   -0.306401
H     -0.611644    1.852639   -0.460281
H      3.036631    0.030855   -0.720107
H      1.889158    1.220486    0.100479
H      2.510815   -0.199400    0.941458
