13

C      2.068825    0.390432   -0.180201
H      3.038928    0.481626   -0.594734
C      0.737338    1.134934   -0.451543
C     -0.595390    1.445592   -0.507073
C     -1.613170    0.502370    0.035476
H     -1.914029    0.688901    0.976911
H     -2.493278    0.732815   -0.705165
O     -1.305812   -0.773929   -0.481237
C     -0.031084   -1.148368    0.017561
H     -0.073164   -1.979249    0.707242
H      0.504575   -1.591201   -0.906994
C      0.823584   -0.088348    0.502903
H      0.852677    0.204425    1.586853
