16

C      2.596182   -0.367261    0.287271
C      1.220910    0.177752    0.272837
C      0.357845   -0.057431   -0.706205
C     -0.988074    0.543257   -0.607217
H     -1.061239    1.587973   -0.989537
C     -1.684645    0.238631    0.718175
H     -2.076102    1.111152    1.244095
H     -1.245928   -0.529817    1.381966
C     -2.218725   -0.246106   -0.575331
H     -3.156342    0.233231   -0.918925
H     -2.213459   -1.354690   -0.761478
H      0.690485   -0.679339   -1.526313
H      0.940782    0.803559    1.134991
H      2.761937   -1.194760   -0.402031
H      2.791753   -0.759591    1.323922
H      3.284618    0.493439    0.123779
