8

N      2.060546    0.172697    0.643780
C      0.889197   -0.298198    0.381933
C     -0.207179   -0.618143   -0.289981
C     -1.370570    0.224710   -0.065600
O     -1.978224    0.092173    1.020552
H     -1.701705    0.938787   -0.803889
H     -0.182980   -1.454092   -0.944682
H      2.490916    0.942066    0.057887
