12

O     -2.570566    0.178217   -0.284230
C     -1.456811   -0.044588    0.548724
C     -0.267728   -0.371094   -0.253945
N      0.267822   -0.561308   -1.439375
C      1.154723   -0.717507   -0.370853
C      2.082816    0.419579   -0.089251
O      3.150611    0.283517    0.479938
H      1.818201    1.424580   -0.395199
H      1.496352   -1.698832   -0.029540
H     -1.699521   -0.941108    1.167028
H     -1.314229    0.869666    1.139364
H     -2.661669    1.158879   -0.472661
