13

N      2.607784    0.803710    0.714503
C      1.524758   -0.031872    0.371307
O      0.727610    0.278042   -0.556478
C     -0.363398   -0.538988   -0.920225
C     -1.501790   -0.423547    0.061261
O     -1.989828    0.880107    0.155731
H     -2.950188    0.790254    0.385294
H     -1.072842   -0.651867    1.075069
H     -2.321607   -1.133842   -0.165272
H     -0.040129   -1.600600   -0.922295
H     -0.660681   -0.293015   -1.951440
H      2.992505    1.543438    0.104375
H      3.047805    0.662668    1.648169
