14

C      0.967546    0.219915   -0.394291
C      2.341614    0.452234    0.201138
H      2.275144    1.343372    0.866248
H      2.734937   -0.440653    0.726219
H      3.073607    0.719335   -0.595560
C      0.193280   -0.634476    0.573245
H      0.778431   -1.458488    1.012001
O     -0.523147    0.063461    1.615808
C     -1.217582   -0.660753    0.528869
C     -2.030388    0.290693   -0.290939
H     -1.424458    0.910409   -0.989660
H     -2.568165    1.017228    0.371549
H     -2.812218   -0.293182   -0.837186
H     -1.788600   -1.529097    0.913872
