15

O     -1.159484   -0.582707    1.310391
C     -0.380951   -0.143371    0.242031
C     -1.078491    0.952266   -0.538637
H     -1.391041    1.783562    0.113366
H     -1.981794    0.566434   -1.081898
H     -0.351962    1.363465   -1.267808
C      0.956515    0.377216    0.692309
H      1.107296    0.250862    1.787566
H      1.073325    1.449596    0.427286
C      1.908508   -0.490309   -0.034677
H      2.980634   -0.397037    0.052050
O      1.204159   -1.396495   -0.806464
C     -0.027808   -1.235718   -0.679479
H     -0.781033   -1.839883   -1.196122
H     -2.077873   -0.657880    0.980085
