13

C      1.900352    0.761943    1.490481
C      0.963939    0.494629    0.672549
C     -0.051497    0.214258   -0.183669
C     -0.284777    1.314558   -1.270092
H      0.666892    1.808506   -1.517839
C     -0.179653   -1.101894   -0.853673
H     -0.040214   -1.134851   -1.963359
H      0.492599   -1.864426   -0.340808
O     -1.442214   -1.274976   -0.409535
C     -1.392570   -0.209237    0.404111
H     -1.158057   -0.552546    1.465778
H     -2.178243    0.532877    0.309975
H      2.703442    1.011159    2.196080
