16

C      1.052110    0.998625   -2.625609
C      0.146232    0.878853   -1.679410
C      0.581872    1.040308   -0.268736
C      0.310665   -0.216486    0.543078
O     -1.053288   -0.437130    0.494426
C     -1.449115   -1.561675    1.198659
H     -0.989448   -2.492256    0.831432
H     -1.228360   -1.456203    2.264704
H     -2.566476   -1.611661    1.105176
H      0.674733   -0.045709    1.577779
H      0.897314   -1.062795    0.137736
H      1.656737    1.296230   -0.210592
H     -0.009615    1.903184    0.134929
H     -0.903053    0.665895   -1.918152
H      2.074511    1.207492   -2.369859
H      0.805182    0.893328   -3.672684
