21

C      2.320022    0.610688   -0.494461
C      1.025831    0.798211    0.182603
C      0.014133   -0.255047    0.021971
C     -1.157776    0.282033   -0.779157
C     -1.810314    1.458398   -0.104626
H     -2.123452    1.186437    0.926036
H     -1.179049    2.343744   -0.167824
H     -2.767486    1.648657   -0.659987
H     -1.864918   -0.510922   -1.060642
H     -0.719153    0.665987   -1.734964
C      0.479457   -1.504437   -0.672832
H      1.188228   -2.098988   -0.083693
H     -0.436863   -2.158036   -0.789054
H      0.809328   -1.312090   -1.716736
C     -0.451832   -0.680749    1.418261
H     -0.707755    0.212450    2.025345
H     -1.239320   -1.435494    1.376799
H      0.470601   -1.105816    1.910670
H      2.330212    0.010257   -1.396517
H      3.111099    0.214331    0.205858
H      2.709007    1.630384   -0.785159
