9

C     -0.726660    0.037098   -1.536714
C     -0.495664    0.024688   -0.026401
O     -0.969290   -1.153386    0.513292
H     -1.435079   -0.971706    1.360415
C      0.943512    0.119057    0.172025
C      2.132231    0.190044    0.355788
H      3.186677    0.259912    0.501681
H     -1.006095    0.873673    0.460313
H     -1.629633    0.620621   -1.800398
