14

C      1.234101   -0.248931   -1.026585
C      0.494986    0.470094    0.085085
C     -1.001738    0.414852   -0.052234
O     -1.664815    1.072654    0.965710
H     -1.669519    2.037054    0.769185
N     -1.530745   -0.827352   -0.420698
H     -1.908610   -1.442158    0.280638
H     -1.455915   -1.137038   -1.377482
C      0.996137    0.144651    1.442700
H      1.176602   -0.499247    2.290975
O      1.112211    1.285030    0.927557
H      2.292883    0.049634   -1.030605
H      1.187676   -1.340653   -0.858135
H      0.736746    0.021412   -1.996112
