11

N     -1.675180   -0.068785    0.137052
C     -0.267818   -0.243203    0.028879
C      0.710750    0.719831   -0.088332
H      0.541739    1.786225   -0.115872
N      1.884916    0.068555   -0.158925
H      2.843023    0.470760   -0.252720
N      1.685628   -1.238897   -0.091971
C      0.385198   -1.455547    0.022577
H     -1.896878    0.317350    1.093415
H     -2.056724    0.616804   -0.547405
H     -2.154654   -0.973091   -0.026698
