10

C      0.659961   -1.012236   -0.062579
H      1.144918   -1.980087   -0.109680
C     -0.602101   -0.944359   -0.000292
C     -1.383277    0.256131    0.066759
H     -2.110550    0.240985   -0.786323
H     -1.955870    0.289077    1.042534
N     -0.548892    1.413363    0.055144
N      0.826837    1.362716   -0.012175
C      1.448106    0.234463   -0.069766
H      2.520868    0.139946   -0.123621
