13

C     -0.230566   -1.466490   -0.210333
N      0.097733   -0.111540    0.119593
C      1.449926    0.341371   -0.019285
H      1.702764    1.143096    0.704837
H      2.131605   -0.529082    0.128552
H      1.550913    0.759022   -1.052628
C     -0.909621    0.755035    0.574722
C     -1.482932    1.566744   -0.269946
H     -2.002402    2.264887   -0.905916
O     -1.333972    0.797380    1.884626
H     -0.349449   -1.576561   -1.324474
H      0.592290   -2.148992    0.151958
H     -1.216288   -1.794871    0.218293
