11

N      1.829860   -0.060099    0.049100
C      0.394043   -0.066147    0.005993
C     -0.405661    0.979937    0.049526
H     -0.058769    2.003465    0.125730
N     -1.744464    0.535251   -0.018943
H     -2.606096    1.127595   -0.006399
C     -1.740135   -0.902149   -0.111363
N     -0.347176   -1.269393   -0.093497
H     -0.000647   -2.255011   -0.146605
H      2.289134    0.651613    0.622157
H      2.389910   -0.745063   -0.475698
