9

O     -1.245815   -1.342212   -0.039548
C     -1.170823   -0.222709    0.420407
C     -0.097901    0.723982    0.064876
O      0.735637    0.102976   -0.835652
C      1.513776   -0.720896   -0.333880
H      2.206494   -1.257098   -0.971792
H     -0.498048    1.667182   -0.385936
H      0.496495    0.971162    0.955787
H     -1.939816    0.077613    1.125738
