10

O      1.911158   -0.619376   -0.325294
C      0.610215   -0.109482   -0.156180
N      0.310873    1.194579   -0.021635
H      1.016631    1.966177   -0.028907
N     -0.999166    1.245312    0.111373
C     -1.568244    0.035653    0.069897
H     -2.632063   -0.222872    0.153745
C     -0.540714   -0.864481   -0.103757
H     -0.639999   -1.945119   -0.181061
H      2.531308   -0.680392    0.481819
