17

C     -2.374372   -0.250060    0.604038
C     -1.359263    0.549919   -0.137002
C     -0.037856   -0.170006   -0.311614
H     -0.034111   -1.254436   -0.455281
C      0.969966    0.690336   -1.076980
H      1.597842    0.139381   -1.796251
N      1.110709    0.367092    0.355996
C      2.256887   -0.429888    0.646170
H      2.114162   -1.220852    1.377851
H      2.715431   -0.900162   -0.269590
H      3.052415    0.261973    1.040136
H      0.922360    1.184700    0.980385
H     -1.742593    0.793025   -1.148309
H     -1.205993    1.518600    0.400714
H     -3.385773    0.183122    0.348610
H     -2.371375   -1.325519    0.331791
H     -2.228436   -0.137225    1.706076
