15

C      1.338616   -1.029560   -0.140226
C      0.530522   -0.195835    0.849964
H      0.258208   -0.782983    1.767029
O      1.129977    0.962751    1.029947
C      0.279070    1.604997    0.597321
C     -0.597723    0.542273    0.285122
C     -0.887106    0.240951   -1.173564
H     -0.545574    1.018905   -1.856957
H     -2.000507    0.133684   -1.290329
H     -0.441340   -0.731025   -1.424510
O     -1.740829    0.487046    1.095422
H     -2.029714    1.419640    1.276146
H      0.869470   -1.980425   -0.381762
H      1.536503   -0.424235   -1.031402
H      2.300428   -1.266184    0.397801
