16

C     -1.666223   -0.030779    0.833523
C     -0.810468    0.449617   -0.328314
C      0.205461   -0.636024   -0.632152
C      1.079503   -0.908380    0.554950
C      2.375589   -0.157729    0.382028
H      2.893428   -0.586081   -0.511185
H      3.029908   -0.245509    1.257282
H      2.124247    0.899781    0.207104
H      0.831084   -0.342412   -1.478708
H     -0.359823   -1.541418   -0.946768
O     -1.565825    0.709447   -1.462776
H     -2.162816    1.483366   -1.219671
H     -0.224287    1.344394   -0.008524
H     -2.651054    0.495668    0.765498
H     -1.221077    0.182057    1.807473
H     -1.877649   -1.115996    0.780239
