10

C     -1.329271   -0.227679   -0.178957
N     -0.242467    0.754105   -0.081300
C      1.071825    0.335769    0.222932
N      1.443353   -0.888520   -0.008387
H      2.425682   -1.220689    0.213420
H      1.792719    1.017763    0.651330
H     -0.433008    1.757039   -0.234673
H     -2.227631    0.194691   -0.614701
H     -0.995983   -1.084014   -0.803260
H     -1.505219   -0.638465    0.833596
