12

C      2.137158    0.637768   -0.280007
C      1.103592   -0.226332    0.405210
N     -0.181349    0.400734    0.540427
C     -1.030978    0.683763   -0.566494
H     -1.576862    1.661755   -0.480063
H     -0.776984    0.338238   -1.590024
C     -1.376526   -0.407019    0.430544
H     -2.120002   -0.180997    1.222817
H     -1.307946   -1.441819    0.066794
H      1.491673   -0.352916    1.463020
H      1.062622   -1.224240   -0.038307
H      2.575604    0.111066   -1.173915
