14

N     -1.628983    2.765024    0.384115
C     -1.057942    1.797235    0.054882
C     -0.349622    0.628632   -0.333624
H      0.086732    0.712080   -1.414011
C     -1.137132   -0.603010   -0.275725
H     -1.560805   -0.670766    0.787712
H     -1.930518   -0.698480   -1.016999
C     -0.082882   -1.680885   -0.359499
C      1.219428   -1.046832   -0.059913
H      1.920331   -1.637732    0.541823
H      1.713352   -0.797944   -1.067565
C      0.822874    0.265294    0.562439
H      1.603012    1.009484    0.654440
H      0.382156   -0.042100    1.541925
