13

C     -2.052879   -0.124798    0.732597
O     -1.039453    0.864141    0.592654
C      0.155091    0.408843   -0.002624
C      1.385985    0.698369    0.315691
H      1.651421    1.368933    1.131160
N      2.323463    0.054089   -0.503885
H      3.389125    0.109869   -0.467646
C      1.590389   -0.744721   -1.462694
N      0.209084   -0.486565   -1.103872
H     -0.638486   -0.903810   -1.590609
H     -2.964689    0.294358    1.206145
H     -2.298390   -0.593478   -0.258292
H     -1.710661   -0.945229    1.411374
