9

N     -1.454862   -0.462401    0.664447
C     -0.400613    0.299295    0.367765
O     -0.047991    1.370171    0.615408
C      0.638316   -0.684376   -0.656893
N      2.190333    0.846997   -0.852347
C      1.728993    0.391962   -0.794173
C      1.203745   -0.134053   -0.731545
H     -1.975848   -0.942462   -0.161900
H     -1.882073   -0.685133    1.549239
