10

O     -1.062632   -1.824474    0.098468
C     -0.913847   -0.920800   -0.723136
C      0.112020    0.119069   -0.517612
C      0.747890   -0.038747    0.782272
C      1.292679   -0.173365    1.911237
H      1.746533   -0.271786    2.827145
C     -0.433726    1.480828   -0.696004
N     -0.846107    2.544279   -0.821902
H      0.926410    0.022244   -1.274876
H     -1.569220   -0.937249   -1.585591
