14

O      0.120011    1.562728    0.741916
C     -0.093098    0.335376    0.126794
C      1.121338   -0.210464   -0.627582
N      2.143823   -0.351073    0.332650
C      2.989933   -0.447589    1.120691
H      0.914797   -1.230146   -1.013884
H      1.355124    0.518444   -1.406311
C     -1.001608   -0.678523    0.721943
H     -0.730537   -1.757415    0.561370
H     -1.544437   -0.496717    1.656805
C     -1.467394    0.068909   -0.483250
H     -2.174246    0.911398   -0.361650
H     -1.512518   -0.495459   -1.438213
H     -0.121189    2.270531    0.068720
