17

C     -1.716934   -0.492579    0.485737
H     -1.528410   -1.420532    1.219244
H     -2.710423   -0.198262    0.762658
O     -1.454018   -0.993473   -0.762858
C     -0.141327   -0.700957   -1.124693
H     -0.080697    0.033376   -1.941509
H      0.363036   -1.626664   -1.488104
C      0.554312   -0.250839    0.134567
C      1.803171    0.469424   -0.007358
H      1.804711    1.259352   -0.770328
H      2.590609   -0.263465   -0.284664
H      2.104468    0.844459    1.010690
H      0.743256   -1.185187    0.716011
C     -0.586519    0.465487    0.805416
O     -0.895557    1.653888    0.117409
H     -0.396251    1.720633   -0.726820
H     -0.453429    0.685337    1.854605
