12

C      1.617367    0.019720   -0.179199
C      0.240935   -0.632674   -0.147048
H      0.169559   -1.489774   -0.861264
O     -0.110783   -0.893484    1.163885
C     -1.141060   -0.017020    1.107222
H     -1.892894    0.288736    1.858855
C     -0.880277    0.284328   -0.121236
O     -1.479571    1.163042   -1.030446
H     -2.415259    0.908498   -1.337892
H      1.857976    0.466523   -1.143681
H      2.342497   -0.805475    0.013209
H      1.691509    0.707580    0.677596
