10

C     -0.605537   -1.126055   -0.561855
C      0.012113    0.005269   -0.249400
C      0.135105    0.459685    1.158969
H     -0.853061    0.671703    1.641553
H      0.714792   -0.296001    1.769341
H      0.778195    1.368503    1.145545
C      0.563658    0.773685   -1.356706
N      1.012134    1.384357   -2.215482
H     -1.045123   -1.759829    0.229798
H     -0.712276   -1.481317   -1.561762
