11

C      2.334530    0.381585    0.150413
C      1.306301   -0.012636    0.872368
C      0.130161   -0.501805    1.230758
C     -0.932109   -0.698250    0.205590
H     -1.198981   -1.716729   -0.113524
C     -1.981925    0.352793    0.158110
H     -2.858501    0.846304    0.548456
N     -0.991010    0.311476   -0.861468
H     -1.351184    0.012616   -1.796094
H      3.059602   -0.364365   -0.115407
H      2.483115    1.389010   -0.183375
