9

C     -1.095179    0.028872   -0.245359
C      0.137583   -0.138150    0.533075
N      1.388678    0.130790   -0.040314
H      1.920535   -0.697916   -0.441992
H      1.831197    1.086337   -0.099035
O      0.053344   -0.521177    1.706463
H     -1.018582   -0.727074   -1.084303
H     -2.007897   -0.199641    0.360588
H     -1.209679    1.037959   -0.689124
