16

C      2.329452   -0.441830   -0.733669
C      1.052794    0.057227   -0.128890
C      0.654931    1.432253    0.102893
H      1.305890    2.274461   -0.166511
C     -0.535755    1.467828    0.651666
C     -1.001877    0.088342    0.817001
C     -2.344753   -0.133640    0.138076
H     -3.095012    0.399792    0.751503
H     -2.303640    0.170703   -0.907100
H     -2.556389   -1.209937    0.205030
H     -1.158511   -0.109334    1.921540
N      0.016166   -0.756844    0.318863
H     -0.335363   -1.440988   -0.384416
H      2.077880   -1.191077   -1.500218
H      2.942519   -0.990148    0.038373
H      2.951667    0.383191   -1.124141
