8

N     -1.224438   -1.636221   -0.229953
C     -0.395534   -0.503145   -0.077833
C      0.347609    0.491470    0.038727
C      1.205039    1.620628    0.193634
O      2.175175    1.570202    0.948446
H      1.025200    2.567479   -0.355031
H     -1.037749   -2.386964   -0.895923
H     -2.095303   -1.723448    0.377934
