12

C     -0.820258    0.716713   -0.338807
H     -0.747338    1.056678   -1.334131
H     -1.639430    1.230130    0.284195
C     -0.949478   -0.772605   -0.041286
H     -1.846472   -1.150694    0.366799
H     -0.622830   -1.270837   -1.045181
N      0.259623   -0.674702    0.741944
C      1.452219   -0.311270    0.049542
H      2.353925   -0.514670    0.643742
H      1.464559   -0.514369   -1.050790
C      0.425714    0.734677    0.501704
H      0.669766    1.470948    1.222270
