15

O      2.960992   -0.707258   -0.850684
C      2.635098    0.283336   -0.236220
C      1.229181    0.516120    0.121582
C      0.304695   -0.565409   -0.343792
C     -1.070773   -0.238267    0.061967
C     -1.930642    0.655474    0.706527
H     -1.986912    1.587436    1.244103
C     -2.542309   -0.523390    0.135844
H     -2.913554   -1.304466    0.798927
H     -3.042180   -0.511726   -0.859314
H      0.351286   -0.696758   -1.464070
H      0.541230   -1.553481    0.100306
H      1.176612    0.551991    1.232860
H      0.895705    1.515572   -0.238768
H      3.391571    0.990827    0.043832
