15

C      1.976350   -0.480758    0.186536
C      0.751064    0.038102   -0.479399
C      0.674209    1.442309   -1.013329
C     -0.824289    1.365179   -0.724142
H     -1.056683    2.080488    0.086331
H     -1.470300    1.422304   -1.607080
C     -0.566937   -0.041389   -0.236172
C     -1.405988   -0.656534    0.823919
H     -2.474430   -0.377428    0.653057
H     -1.328244   -1.760274    0.748751
H     -1.150160   -0.282787    1.826302
O     -0.030149   -0.887899   -1.258508
H      2.343041   -1.351550   -0.414118
H      1.800944   -0.827559    1.233659
H      2.761572    0.317796    0.174192
