14

N      2.464918    0.688913    0.191125
C      1.211245    0.055509   -0.061113
C      0.013729    0.605132    0.342427
H     -0.172229    1.528663    0.872929
C     -1.001359   -0.243740   -0.049317
N     -2.403769   -0.101723    0.143329
H     -2.676295    0.875438    0.346182
H     -2.896998   -0.415549   -0.745713
H     -2.722591   -0.782572    0.887692
C     -0.370904   -1.293053   -0.685922
N      0.964907   -1.094325   -0.682963
H      1.686329   -1.735098   -1.098901
H      2.761458    1.540622   -0.367337
H      3.141560    0.371783    0.907583
