11

N      1.885405    0.848806    0.914690
C      1.055411    0.145192    0.440058
C      0.137355    0.551957   -0.770983
H      0.430326    0.596977   -1.763132
C      0.058646   -0.774688   -0.065776
H      0.219618   -1.760334   -0.500568
C     -1.375915   -0.305816    0.124260
H     -1.995015   -0.866108   -0.716159
H     -1.869558   -0.461242    1.152232
O     -1.125971    0.929256   -0.310564
H      2.579697    1.095999    1.495941
