13

C     -1.141041   -0.865334   -0.196635
C     -0.528225    0.511962   -0.061790
O     -0.784650    1.048641    1.207204
H     -0.668250    2.027826    1.133044
C      0.910217    0.481523   -0.368173
C      1.751075   -0.416869    0.144095
H      2.789269   -0.423198   -0.089337
H      1.386479   -1.178398    0.826000
H      1.321151    1.227898   -1.048353
H     -1.060782    1.163390   -0.780929
H     -0.468901   -1.659895    0.131602
H     -2.102476   -0.840016    0.368096
H     -1.403868   -1.077530   -1.264824
