13

O      2.447450   -1.027287    0.375444
C      1.344524   -0.254157    0.053713
N      1.175397    0.916544   -0.156369
C     -0.219745    1.274031   -0.400906
H     -0.615420    1.433990   -1.366104
H     -0.253848    2.227915    0.263559
C     -0.923675    0.197584    0.356738
H     -1.218279    0.426184    1.407394
C     -1.366424   -1.050513   -0.076896
H     -1.754968   -0.989794   -1.244704
H     -1.962725   -1.775954    0.426476
N      0.001438   -0.904176   -0.111538
H      3.346275   -0.474368    0.473192
