11

C      2.440094    0.426104   -0.495880
C      0.949984    0.209430   -0.701438
C     -0.955769   -0.046296   -0.950420
C     -1.015562    0.583926    0.375110
N     -0.672768   -0.757188    1.188353
C     -0.369649   -1.901909    1.860749
H     -2.077759    0.516476    0.857033
H     -0.457054    1.267400    0.881928
H     -0.683699    0.341074   -1.845374
H     -0.592788   -1.208015   -0.733553
H      3.434970    0.568997   -0.340678
