12

O      2.041118    0.463217    0.034272
C      0.767702    0.114166   -0.406910
C     -0.392811    1.030292   -0.065122
H     -0.806212    1.482852   -1.006371
H     -0.264432    1.730303    0.747552
C     -1.188443   -0.236678    0.247994
H     -2.104639   -0.391161   -0.292966
H     -1.290841   -0.367729    1.365904
C      0.038497   -1.017865   -0.174349
H      0.238267   -2.014487    0.206879
O      0.571989   -0.734230   -1.446745
H      2.389805   -0.058679    0.789862
