13

C      1.733437    0.598425    0.090456
C      0.538945   -0.269087    0.037488
N      0.252567   -1.586685    0.473168
H      0.710622   -2.382664    0.949519
C     -1.043953   -1.368533   -0.052884
H     -1.947646   -1.990445   -0.106796
C     -0.820282   -0.124709   -0.479935
N     -1.594537    0.882929   -1.148579
O     -2.241194    1.832044   -0.407847
H     -1.697140    1.949679    0.413875
H      1.848574    1.095742   -0.915641
H      2.638538   -0.020616    0.260333
H      1.622072    1.383920    0.886843
