13

C      0.277054    1.029500   -0.493156
H      0.179228    1.213505   -1.560798
H      0.757112    1.786449    0.128145
C     -0.986875    0.459469    0.163603
H     -1.718259    1.115823    0.521447
C      0.001576   -0.173194    1.153089
H      0.515622    0.530431    1.802620
H     -0.332661   -1.123083    1.572584
C      0.797164   -0.370773   -0.145240
H      1.821202   -0.543471   -0.098143
C     -0.146022   -1.205162   -0.892070
H      0.116459   -2.082073   -1.458654
N     -1.281601   -0.637421   -0.693426
