11

N      2.582313    1.475190    0.404433
C      2.024323    0.359319    0.641094
C      1.205299   -0.667234    0.530262
N     -0.189370   -0.554241    0.623983
C     -0.982360   -0.267347   -0.347465
C     -2.401350   -0.188250   -0.086933
O     -3.180712    0.096705   -1.055417
H     -2.800029   -0.365992    0.906628
H     -0.587325   -0.094564   -1.316613
H      1.650543   -1.633554    0.357424
H      2.678667    1.839968   -0.561567
