13

O     -1.609230    0.289224    1.265872
C     -1.289788    0.934501    0.079658
O     -0.915019    0.075176   -0.933679
C      0.185152   -0.686740   -0.645413
N      1.384012    0.055233   -0.363451
C      2.431626   -0.941270   -0.085913
H      3.378200   -0.429756    0.140213
H      1.293950    0.659592    0.456783
H     -0.004901   -1.340422    0.250957
H      0.357372   -1.376136   -1.496885
H     -0.480720    1.647019    0.291133
H     -2.215189    1.474871   -0.246243
H     -2.515466   -0.076805    1.286967
