14

O      2.864294    0.794621    0.935746
C      2.055732   -0.064202    0.196590
C      0.891980   -0.575030    1.023645
C     -0.360325   -0.228412    0.246033
O     -1.491306   -0.246408    1.056230
C     -2.623046    0.071757    0.331347
H     -2.552853    1.082116   -0.120606
H     -3.506068    0.089997    0.995570
H     -2.837544   -0.705800   -0.439524
H     -0.437796   -0.971825   -0.589701
H     -0.188631    0.774203   -0.213065
H      2.670106   -0.944306   -0.065550
H      1.742703    0.473313   -0.712002
H      3.772755    0.449977    1.056600
