11

C      0.175996    0.287912   -0.053861
C      1.594575   -0.134696   -0.115615
H      1.701829   -1.142272    0.367615
H      1.934004   -0.155769   -1.178180
H      2.251492    0.572994    0.405962
C     -0.785344    1.133901   -0.418839
H     -1.030882    2.026356   -1.003786
C     -1.216769    0.075335    0.462952
O     -1.842414   -1.017541   -0.138562
H     -1.381041   -1.857930    0.134382
H     -1.401447    0.211711    1.537932
