11

C      1.483309   -0.336886   -0.005869
N      0.185329   -0.939960   -0.108549
C     -0.872737   -0.216826   -0.063347
O     -2.092643   -0.846363   -0.166507
H     -2.126770   -1.870030   -0.150559
N     -0.709984    1.180010    0.089717
H     -1.005604    1.676875    0.955765
H     -0.281033    1.798158   -0.661964
H      1.692086   -0.189415    1.093324
H      2.284487   -0.909886   -0.467239
H      1.443560    0.654323   -0.514773
