14

O      3.451319    0.394439    0.988772
N      2.890571    0.048143   -0.223619
C      1.670993   -0.323417   -0.245150
C      0.442846   -0.742149    0.032396
C     -0.567327    0.311727    0.163623
C     -1.976212   -0.294389    0.144007
O     -2.945630    0.670430    0.265379
H     -2.631859    1.493045    0.712269
H     -2.067707   -0.864351   -0.800340
H     -2.065779   -1.008563    0.987362
H     -0.475864    0.965911   -0.742340
H     -0.443255    0.928790    1.088830
H      0.314899   -1.786545    0.132496
H      4.403005    0.206932    1.197628
