13

C     -1.439242    0.481984    0.102502
C     -0.614747   -0.729062   -0.273570
C      0.761086   -0.645634    0.299148
H      1.230384   -1.633460    0.573393
C      1.639346    0.465787   -0.058099
H      1.280197    1.152524   -0.855948
H      2.742856    0.407787    0.000382
C      0.965460    0.481630    1.294421
H     -0.502852   -0.745151   -1.394120
H     -1.139157   -1.668834    0.065472
H     -0.820591    1.250551    0.647331
H     -2.315405    0.163867    0.708435
H     -1.787333    1.018011   -0.824860
