16

C      1.855180   -0.322618   -0.347116
C      0.879749    0.370004    0.571702
C     -0.520977   -0.007269    0.487742
C     -1.437390    0.152793   -0.634181
H     -1.417271    0.678545   -1.549053
C     -0.959080   -1.224208   -0.394787
H     -0.324844   -1.574676   -1.282959
H     -1.624413   -1.959993    0.049253
C     -1.643846    0.946952    0.633272
H     -1.441343    1.985255    0.606195
H     -2.345519    0.523868    1.464460
H      1.302154    0.533269    1.570144
H      0.902003    1.495073    0.179526
H      2.708092   -0.843642    0.339485
H      1.553166   -1.166022   -0.886492
H      2.514339    0.412670   -0.807188
