12

C      2.596719   -0.794046   -0.445242
C      1.421434    0.033466   -0.857242
C      0.282538   -0.099746   -0.161302
C     -1.022009    0.543303   -0.295985
H     -1.067638    1.638044   -0.103795
H     -1.592096    0.300132   -1.237590
C     -1.378050   -0.312866    0.875548
H     -2.117351   -1.118847    0.701533
H     -1.539661    0.270645    1.817513
O     -0.082084   -0.880131    0.925548
H      1.485746    0.720292   -1.692099
H      3.012452   -0.300245    0.473113
