13

C      1.894791   -0.738864    0.091700
C      0.806716    0.296748    0.105011
C      0.400698    1.529869   -0.209453
H      0.671549    2.474204   -0.666299
C     -0.597103    0.714828    0.468583
C     -1.628634   -0.033822   -0.269266
N     -2.397077   -0.825365    0.360807
H     -3.135349   -1.368868   -0.128506
H     -1.748267    0.076016   -1.347155
H     -0.735542    0.793814    1.572952
H      1.610598   -1.526136    0.799946
H      2.816039   -0.264633    0.461308
H      2.041580   -1.127791   -0.955143
