15

C      2.647044   -0.136667   -0.590951
O      1.531677    0.123419   -1.417239
O      0.499102   -0.548694   -0.885891
C     -0.336774    0.116675   -0.011049
C     -0.052608    0.319821    1.246513
H     -0.746441    0.844331    1.872057
H      0.879441   -0.041187    1.650572
O     -1.534455    0.586677   -0.508150
C     -2.719692   -0.039739   -0.007760
H     -3.632052    0.395414   -0.456505
H     -2.632898   -1.134277   -0.243311
H     -2.783192    0.047798    1.079201
H      2.735786    0.688211    0.134425
H      3.526342   -0.089240   -1.260777
H      2.618719   -1.132543   -0.148037
