8

N     -0.982871   -1.142216    0.536302
C     -0.519095   -0.190106   -0.201225
O     -1.380433    0.302119   -1.170670
H     -2.381785    0.444315   -0.978853
C      0.813055    0.301950    0.001160
C      1.928363    0.729951    0.186330
H      2.914811    1.120710    0.335782
H     -0.392046   -1.566723    1.291175
