17

C      1.347420   -1.112394   -0.088591
H      0.760242   -1.899092   -0.553759
H      2.255089   -1.508353    0.445265
C      1.816168    0.005741   -1.013470
C      1.117706    0.974797   -0.127324
H      1.737641    1.745722    0.362035
C     -0.281192    1.349365   -0.469706
H     -0.512928    1.132438   -1.534378
H     -0.559270    2.362063   -0.145322
C     -0.753520    0.235801    0.462523
C     -1.609369   -0.772713   -0.210239
H     -2.033461   -1.455897    0.564474
H     -2.510442   -0.226843   -0.619746
H     -1.129885   -1.304495   -1.038646
H     -1.271433    0.673168    1.340740
C      0.646379   -0.132030    0.796541
H      0.980855   -0.067279    1.829604
