12

C     -2.124061    0.145126    0.223566
C     -0.714086    0.276841    0.671678
C      0.255179   -0.713448    0.295004
C      1.504015   -0.419486   -0.047973
C      2.671687    0.154210   -0.054083
H      2.927164    0.513992   -1.014975
H      3.302311    0.260559    0.786969
H      0.100018   -1.749165    0.248138
O     -0.428898    1.275131    1.377866
H     -2.811233   -0.136154    1.036813
H     -2.470525    1.065327   -0.331016
H     -2.211572   -0.672935   -0.544217
