9

C      1.828256   -0.233279    0.269668
C      0.601947    0.225868    0.046011
C     -0.524358    0.537598   -0.512964
C     -1.628724   -0.170834    0.042845
O     -2.208293    0.170136    1.118257
H     -2.001789   -1.047213   -0.469892
H     -0.623865    1.232499   -1.291018
H      2.256633    0.282834    1.058408
H      2.300194   -0.997609   -0.261316
