12

C     -2.115034    0.475512    0.168973
C     -1.311230   -0.733375    0.388722
C     -0.170354   -0.884486   -0.218759
N      1.087918   -0.877561   -0.513897
C      2.005416   -0.120191    0.261948
O      1.716776    0.518500    1.295314
O      3.336759   -0.072213   -0.143056
H      3.867964    0.749251    0.115830
H     -1.649596   -1.494413    1.050632
H     -2.958374    0.587414    0.846276
H     -1.415552    1.351798    0.300314
H     -2.394692    0.499765   -0.904528
