15

O      3.251249    1.034987    0.274512
C      2.732780    0.142910   -0.613668
C      1.577364   -0.376477   -0.304216
C      0.360697   -0.768334    0.026708
C     -0.735744    0.064832   -0.450263
C     -2.012359   -0.446869    0.102848
C     -2.748859    0.328769    0.858654
H     -2.441668    1.352516    1.092847
H     -3.697740    0.029070    1.302655
H     -2.379624   -1.458539   -0.090601
H     -0.799664    0.106870   -1.568270
H     -0.592159    1.112781   -0.127053
H      0.353335   -1.650490    0.604730
H      3.129687   -0.203952   -1.538977
H      4.002706    0.731926    0.883193
