8

C     -0.979079   -1.118390   -0.422158
C     -0.805996    0.293945   -0.009005
C      0.430544    0.742853    0.089162
C      1.530485   -0.131731   -0.200545
N      2.435664   -0.848141   -0.425755
H      0.637332    1.754391    0.382756
H     -1.662999    0.916249    0.199237
H     -1.585951   -1.609176    0.386307
