13

C      2.075862    0.506589    0.886888
O      0.875693   -0.007736    1.386207
C     -0.181256   -0.460310    0.653063
O     -0.709418   -1.694480    1.014827
C     -0.714234    0.204150   -0.361449
N     -1.818578   -0.340672   -1.075474
H     -2.149504   -1.229551   -0.668099
H     -2.584400    0.384107   -1.016241
H     -1.621528   -0.490084   -2.084489
H     -0.333426    1.166465   -0.674656
H      2.738436    0.789726    1.722133
H      2.519006   -0.249551    0.208935
H      1.903347    1.421347    0.292842
