14

N     -1.986773    0.025950    0.460092
H     -2.990965    0.050245    0.791413
C     -1.068520    1.051881    0.214779
O     -1.112877    2.321171    0.299203
C     -0.046310    0.073800   -0.174976
C      1.124296    0.164362    0.732654
C      2.364729    0.026291    0.302921
H      3.188478    0.098368    0.991288
H      2.613038   -0.161641   -0.736087
H      0.955857    0.349700    1.781547
H      0.191956    0.178037   -1.255441
C     -1.038625   -0.965820    0.093976
H     -1.384536   -1.590915   -0.765022
H     -0.809748   -1.621429    0.964966
