15

C      1.870788    1.088933    0.278361
O      0.621650    0.476058    0.379726
C      0.416593   -0.258745   -0.773328
C     -0.896816   -0.938699   -0.732234
O     -1.229211   -1.634028   -1.686890
C     -1.770083   -0.764618    0.449958
O     -1.186729    0.053721    1.384049
H     -1.462451    0.996046    1.324506
H     -2.791124   -0.444127    0.158893
H     -1.870627   -1.787465    0.918056
H      0.424052    0.495381   -1.614817
H      1.254023   -0.976814   -0.931468
H      2.038176    1.685159    1.213158
H      2.616749    0.271757    0.237175
H      1.965010    1.737439   -0.605144
