14

C      1.746582   -0.316960    0.295943
C      0.624914    0.036757   -0.620478
C     -0.660383    0.336505    0.107681
O     -0.729405    1.362495    1.023578
H     -0.846276    2.220176    0.523139
C     -1.771331   -0.659416    0.044243
H     -2.545919   -0.599217    0.822787
H     -1.546966   -1.659952   -0.334231
O     -1.753075    0.410709   -0.885292
H      0.908491    0.967316   -1.177092
H      0.433569   -0.777321   -1.337224
H      2.706926   -0.235637   -0.269718
H      1.671319   -1.390042    0.591476
H      1.761554    0.304589    1.215187
