13

N     -1.680283   -0.791767    0.795019
C     -0.614895   -0.623456   -0.157169
H     -0.633658   -1.179595   -1.115719
C      0.689849   -0.148483    0.420801
N      1.893500   -0.571750   -0.275524
H      1.938630   -0.156006   -1.236127
H      2.719296   -0.174970    0.237004
H      0.819018   -0.161218    1.530987
C     -0.157000    0.828188   -0.240976
N     -0.562055    1.957248   -0.705155
H      0.060878    2.762863   -0.558346
H     -2.357119   -0.008806    0.822350
H     -2.116161   -1.732247    0.767343
