11

N     -1.406872   -0.770950    0.904486
H     -2.249875   -0.892831    0.279327
H     -1.663433   -0.245670    1.774531
C     -0.312984   -0.171539    0.202567
C      0.252039    0.954342   -0.518755
C      1.465732    0.917092   -0.988948
O      2.000532    1.997799   -1.678304
H      2.058321    0.042411   -0.842106
H     -0.359981    1.850087   -0.667062
C     -0.223291   -1.408743    0.710342
H      0.439813   -2.271998    0.823923
