12

O      1.114473    0.409193   -1.165382
C      1.769184   -0.092779   -0.037289
H      2.492403   -0.938079   -0.166476
H      2.241271    0.728707    0.559272
C      0.428696   -0.213809   -0.147083
C     -0.637597    0.477605    0.635431
H     -0.699335    1.570382    0.551213
H     -0.729486    0.144487    1.679779
C     -1.489649   -0.324672   -0.310284
H     -1.632561    0.211786   -1.274302
H     -2.423839   -0.737223    0.104490
O     -0.433560   -1.235598   -0.429368
