14

C     -1.891949    0.680432    0.234745
C     -0.726175   -0.211336    0.621810
C      0.229330   -0.409360   -0.448376
O      0.034944   -0.960212   -1.689654
H      0.061434   -1.959657   -1.865136
C      1.452923   -0.022431   -0.237946
C      2.689043    0.318450    0.069839
H      2.894758    1.332511   -0.187223
H      3.282384   -0.426942    0.510633
H     -1.164681   -1.214170    0.880801
H     -0.317392    0.183957    1.556132
H     -2.679664    0.512428    1.020561
H     -1.554537    1.749402    0.289140
H     -2.310417    0.426928   -0.755326
