17

C     -2.180985   -0.181356   -0.294660
C     -1.006401    0.019417    0.618256
C      0.293359   -0.464370    0.071879
H      0.262068   -1.574286   -0.014264
C      0.759855    0.140007   -1.178299
H      0.070917    0.835792   -1.681759
H      0.989054   -0.657008   -1.938172
C      2.059806    0.785997   -0.871508
C      2.400541    0.631759    0.389869
H      3.331884    1.031054    0.841541
C      1.358100   -0.131171    1.037959
H      1.357479   -0.415469    2.074298
H     -0.969227    1.097696    0.877269
H     -1.214417   -0.538646    1.554802
H     -2.377325   -1.239011   -0.537314
H     -3.078664    0.198713    0.237567
H     -2.056041    0.460881   -1.187462
