8

N      2.362283   -0.345191   -0.289140
C      1.108492   -0.299133   -0.141830
C      0.158518    0.778625    0.003036
H      0.100606    1.856688    0.044165
C     -0.917916   -0.246449    0.095450
H     -1.327598   -0.300815    1.101362
H     -1.586462   -0.211420   -0.758518
O      0.102078   -1.232305   -0.054526
