19

C     -1.950347   -0.323711    0.263443
C     -1.281077    0.613070   -0.686799
C      0.103046    0.151950   -1.088206
C      0.997787    0.028954    0.085071
C      1.292313    1.203728    0.936219
H      0.731922    2.093596    0.602897
H      2.361657    1.476408    0.947867
H      1.013703    0.932459    1.979295
C      1.553137   -1.125641    0.400810
O      1.346586   -2.287334   -0.325333
H      0.523698   -2.532429   -0.814556
H      2.210992   -1.220594    1.261763
H      0.532995    0.983443   -1.717725
H      0.109807   -0.742227   -1.710460
H     -1.157464    1.597112   -0.171153
H     -1.927382    0.809704   -1.561862
H     -3.017855   -0.033426    0.349649
H     -1.907305   -1.383600   -0.052848
H     -1.536213   -0.241461    1.301927
