17

C      2.645052   -0.267510   -0.359513
C      1.588249    0.349660   -0.607575
C      0.337667    0.149786    0.210984
H      0.664723    0.077524    1.295616
C     -0.728582    1.111538   -0.032021
H     -0.686694    1.562544   -1.052398
H     -0.746353    1.831267    0.750246
C     -2.035336    0.298922    0.036397
H     -2.388465    0.393342    1.075813
H     -2.840778    0.584421   -0.687573
C     -1.603496   -1.159303   -0.316595
H     -2.238097   -1.903968   -0.615903
C     -0.276169   -1.184894   -0.210504
H      0.332624   -2.062231   -0.332751
H      1.464157    1.025408   -1.470533
H      2.995149   -0.952208    0.309397
H      3.516348    0.145703   -1.064872
