15

C      1.507884   -0.680059   -0.298714
C      0.276092    0.017470    0.215676
C      0.051427    1.470164   -0.103965
H      0.500938    1.767429   -1.063101
H      0.469408    2.082555    0.734341
C     -1.442052    1.598106   -0.156221
N     -2.007865    0.282844   -0.206324
H     -2.436932    0.054250   -1.121149
C     -1.003650   -0.662935    0.188024
H     -1.017688   -1.693760   -0.241252
N     -0.338707   -0.426607    1.442429
H      0.076478   -1.215860    1.982270
H      1.203737   -1.663546   -0.686578
H      2.275565   -0.828682    0.484201
H      1.885365   -0.101369   -1.169637
