14

C     -1.321043    0.682021    0.032933
H     -1.033949    1.027733   -0.970467
H     -2.108261    1.295544    0.532689
C     -1.320747   -0.779438    0.321105
H     -2.032530   -1.182527    1.071884
H     -0.985666   -1.468382   -0.475628
C     -0.243795    0.120773    0.916157
C      1.154611   -0.048179    0.344838
C      1.116099   -0.991062   -0.851686
H      2.000290   -1.683361   -0.794177
O      1.585254    1.211111   -0.125211
H      1.666225    1.869290    0.583769
H      1.820534   -0.416999    1.131362
H     -0.297022    0.363475    1.983746
