10

O      1.608041   -0.757657   -0.906954
C      2.118518   -0.223303    0.104511
O      1.256675    0.409625    0.973203
C     -0.093362    0.418864    0.685454
O     -0.552368   -0.134649   -0.346584
C     -1.907063   -0.132557   -0.647388
H     -2.666817    0.102110    0.089777
H     -2.178508   -0.381220   -1.674018
H     -0.760788    0.927039    1.388360
H      3.175673   -0.228252    0.333638
