8

C     -0.280334   -0.586007   -0.715669
C      0.882040   -0.444212    0.196100
H      1.767938   -0.058075   -0.388273
H      1.138676   -1.339654    0.813091
O      0.247270    0.510495    0.933240
C     -0.858533    0.462030    0.169372
H     -1.781979    0.021334    0.666593
H     -1.115077    1.434089   -0.345620
