12

N     -1.848442   -0.506957    0.190198
C     -0.486712   -0.138181    0.048608
C      0.114554    1.196033   -0.196865
H     -0.117848    1.821749    0.707876
H     -0.261629    1.663533   -1.124740
C      1.558847    0.899879   -0.239711
C      1.809684   -0.379601   -0.055377
H      2.806681   -0.821964   -0.047800
N      0.587217   -1.069132    0.127735
H      0.539671   -2.099033    0.291522
H     -2.321739   -0.066365    0.994413
H     -2.380285   -0.499961   -0.695859
