9

C     -1.504478    0.061583   -0.024597
C     -0.255322   -0.322664    0.182375
C      0.874568    0.461054   -0.263952
N      2.069146    0.058083   -0.046160
H      2.282096   -0.828632    0.449004
H      0.682274    1.381964   -0.778441
H     -0.091730   -1.271874    0.712948
H     -2.338351   -0.521636    0.307482
H     -1.718201    0.982123   -0.538659
