10

C      1.268428   -0.577507   -0.431553
C      0.267041   -0.003449    0.196693
N      0.575956    0.813267    1.320442
O      0.305551    2.034069    1.194266
C     -1.146327   -0.140433   -0.172403
H     -1.618747    0.861440   -0.379617
H     -1.351369   -0.792598   -1.016838
H     -1.693548   -0.516220    0.732605
H      1.090200   -1.213379   -1.298219
H      2.302814   -0.465189   -0.145377
