11

N      3.601276   -0.186521    0.117792
C      2.451701   -0.277875    0.007317
O      1.087505   -0.382181   -0.100994
C      0.202129    0.556997    0.496243
C     -1.204816    0.091346    0.147229
O     -1.383959   -1.198291    0.673524
H     -2.308392   -1.451942    0.446598
H     -1.968449    0.797368    0.502201
H     -1.209775   -0.013840   -0.973908
H      0.331816    0.521166    1.608839
H      0.400962    1.543773    0.066050
