11

C     -0.849839    0.549871   -1.686158
N     -0.398565    0.661713   -0.303299
C      0.562819   -0.373634    0.024362
N      0.381379   -0.831277    1.383035
N      1.398141   -1.026912    2.256333
C      2.254822   -1.191780    3.017211
H     -0.597263   -1.017240    1.693278
H      0.090190    1.586435   -0.198989
H      0.023646    0.558488   -2.387983
H     -1.430703   -0.380661   -1.801823
H     -1.434629    1.464997   -1.900139
