15

C      1.948908   -0.519108   -0.476929
C      0.535977   -0.268630   -0.135447
C     -0.348343   -1.229157   -0.069084
C     -1.748659   -0.875730    0.283220
H     -1.829022   -0.945761    1.390084
H     -1.942578    0.161511    0.010826
H     -2.469971   -1.601390   -0.170114
H     -0.038916   -2.246613   -0.270828
C      0.164064    1.114110    0.128116
C     -0.241187    2.332517    0.285153
O     -1.269195    2.836522   -0.484331
H      0.218749    2.959688    1.014379
H      2.417941    0.361378   -0.967034
H      2.107184   -1.447198   -1.039215
H      2.495048   -0.632138    0.501205
