9

N     -0.146326   -1.104190    0.490380
H      0.360407   -1.738352   -0.178242
C     -1.008453   -0.060250   -0.199941
H     -1.981975    0.095614    0.305943
H     -1.089948   -0.182469   -1.281323
C      0.204815    0.307848    0.515203
C      1.336983    0.775072   -0.268870
N      2.221611    1.151170   -0.904760
H      0.102887    0.755556    1.521610
