11

C     -0.114630    1.137116   -0.009435
C     -0.198714   -0.330525    0.230120
O      0.934151   -1.124741    0.364474
N      2.020504   -0.735282   -0.299045
C      2.974500   -0.371822   -0.884601
C     -1.394446   -0.868649    0.313293
H     -2.281515   -0.265712    0.211191
H     -1.475333   -1.914412    0.483898
H     -0.597088    1.300550   -1.015539
H      0.916353    1.515263   -0.008281
H     -0.783781    1.658215    0.709755
