13

O      0.650597    2.082980   -0.028286
C      0.681473    0.845876   -0.018673
C      1.892123    0.015784   -0.020856
H      2.499961    0.156045    0.918738
H      2.508674    0.197082   -0.922466
O      1.412147   -1.285764   -0.007003
C      0.033714   -1.293406    0.003063
H     -0.538632   -2.194156    0.014398
C     -0.470858   -0.078321   -0.002956
C     -1.918349    0.328712    0.004295
H     -2.190151    0.852231   -0.919032
H     -2.512752   -0.604601    0.070090
H     -2.047947    0.977538    0.908686
