11

C      2.376454    0.305558    0.519749
C      1.467595   -0.033614    0.083152
C      0.283191   -0.480875   -0.473602
H      0.262850   -1.673241   -0.746780
C     -0.108897    0.038419   -1.935186
O     -1.059150    0.453549   -1.800389
C     -1.789793    0.419932   -0.490752
H     -2.776339    0.931549   -0.734034
C     -0.989030   -0.154848    0.205151
H     -1.019652   -0.496028    1.248291
H      3.352770    0.689599    1.000477
