14

N      2.210313   -0.884561   -0.115335
C      0.952634   -0.235931   -0.099363
C     -0.197891   -0.731586    0.274432
H     -0.364698   -1.739223    0.637268
C     -1.269664    0.244586    0.148390
N     -2.650668    0.097866    0.449228
H     -2.970705   -0.600622    1.152060
H     -3.376345    0.680592   -0.021359
C     -0.672479    1.338564   -0.321590
N      0.708271    1.107744   -0.497863
H      0.942258    1.223493   -1.509990
H      1.292703    1.708696    0.129977
H      2.346450   -1.885097   -0.372536
H      3.049820   -0.324522    0.146682
