9

C      1.035597   -0.494995   -0.554534
C      0.103664    0.202386    0.086375
O      0.268586    1.581566    0.175455
H     -0.113252    2.115687   -0.607916
C     -1.056912   -0.396980    0.686712
O     -1.267199   -1.641208    0.642459
H     -1.797261    0.196655    1.201191
H      0.929819   -1.547369   -0.634268
H      1.896958   -0.015741   -0.995474
