13

O      3.041186   -0.579084    0.753785
O      2.064936    0.411409    0.385762
C      0.836139   -0.030381    0.154842
C     -0.136211    0.987383   -0.186806
H     -0.194209    1.981884    0.520633
H      0.127358    1.499270   -1.229416
C     -1.444658    0.494285   -0.264339
H     -1.963286    0.540979    0.753807
H     -2.128805    0.867653   -1.104695
C     -1.227551   -1.081512   -0.399616
C      0.185185   -1.263875    0.151723
H      0.102330   -1.682856    1.160659
H      0.737587   -2.145155   -0.411852
