9

N      0.085272    0.761794    0.189830
H      0.053137    1.759681    0.460885
C     -1.011953   -0.155627    0.011415
H     -1.513981   -0.354947    0.987753
H     -1.731402    0.186341   -0.758035
C     -0.321351   -1.404973   -0.368778
N      0.894686   -1.155373   -0.377886
C      1.252850    0.003782   -0.087865
H      2.292741    0.359322   -0.057319
