12

C      1.808034    0.013646    0.293878
C      0.295696    0.018788    0.064568
C     -0.630357    0.915880    0.127207
H     -0.612533    1.978039    0.371190
C     -1.666974   -0.020216   -0.243405
H     -2.469195   -0.212889    0.511928
H     -2.079448    0.195496   -1.264123
N     -0.615465   -0.962828   -0.297288
H     -0.527733   -1.989497   -0.517152
H      2.091052   -0.983699    0.634346
H      2.331215    0.212786   -0.664052
H      2.075708    0.834496    0.982904
