17

C     -1.096450    1.397780   -0.379064
C     -0.898353   -0.024804    0.052899
C      0.460579   -0.287134    0.629662
C      1.574443    0.001191   -0.347073
O      2.788466   -0.272757    0.282220
H      2.680648    0.050490    1.232433
H      1.518376   -0.707662   -1.214746
H      1.546340    1.007707   -0.769798
H      0.509842   -1.366520    0.887165
H      0.585579    0.339174    1.522452
O     -1.200772   -0.913601   -0.962533
C     -1.595274   -2.032460   -0.672631
H     -1.708903   -2.330752    0.365790
H     -1.640306   -0.230686    0.856346
H     -1.492953    1.437334   -1.431490
H     -1.851730    1.936156    0.265921
H     -0.179532    1.996545   -0.317553
