18

C     -0.795252   -0.906337   -0.870664
C     -0.115921    0.229591   -0.156353
C     -0.432537    0.287963    1.311497
H     -0.982934    1.210328    1.608162
H     -1.114375   -0.549620    1.637555
H      0.480212    0.277561    1.956462
N      1.307124    0.297024   -0.430696
C      2.162516   -0.501699    0.090376
O      1.699203   -1.470861    0.953879
H      0.750056   -1.815692    0.817637
H      3.224736   -0.456973   -0.109777
C     -0.680921    1.524260   -0.767292
H     -0.073206    1.845684   -1.635989
H     -1.707292    1.347269   -1.155121
H     -0.722393    2.324352   -0.021479
H     -1.515416   -0.564412   -1.643450
H     -1.420086   -1.526975   -0.161713
H     -0.063513   -1.551461   -1.423034
