15

O      1.098936   -1.580018   -0.380148
C      0.369272   -0.628183   -0.163584
C      0.953713    0.583971    0.387185
C      2.412553    0.392377    0.581882
O      2.940605   -0.664499    0.290266
H      3.057826    1.179419    0.987642
H      0.842524    1.396302   -0.392258
H      0.483422    0.949582    1.318345
C     -1.055364   -0.845962   -0.502266
C     -1.937968    0.320135   -0.234831
H     -1.472394    1.303808   -0.365426
H     -2.350823    0.257238    0.813138
H     -2.833411    0.242961   -0.893143
H     -1.406266   -1.704603    0.109891
H     -1.102624   -1.202528   -1.556695
