9

C      1.758844    0.067193   -0.334552
C      0.422795   -0.070054   -0.293107
C     -0.349515   -1.042520    0.470258
O     -1.559467   -0.810720    0.212961
C     -1.693194    0.246120   -0.669221
H     -2.622714    0.647379   -1.051657
N     -0.533987    0.712911   -0.993028
H      2.401779   -0.580544    0.236440
H      2.175460    0.830234   -0.943752
