13

N     -1.861870    0.777909   -0.119870
C     -1.399582   -0.491788    0.314779
C      0.054449   -0.644295    0.225791
O      0.542475   -1.764313    0.601099
N      0.958732    0.334075   -0.236386
C      2.371431    0.089797   -0.286399
O      2.763060   -1.041272    0.102824
H      3.051543    0.850747   -0.643514
H      0.581296    1.247417   -0.544512
H     -1.865852   -1.353018   -0.201020
H     -1.682517   -0.605795    1.395580
H     -2.097019    1.432503    0.630099
H     -1.416145    1.168032   -0.953984
