10

C      0.176758    0.050850   -0.283143
O      0.295634    0.700109   -1.486475
H      0.562480    1.695016   -1.436725
C     -1.164037   -0.234258    0.240418
H     -1.906935    0.562486   -0.020157
H     -1.092261   -0.290825    1.355600
H     -1.502730   -1.206651   -0.185488
C      1.235547   -0.310804    0.391373
H      1.142558   -0.828912    1.351638
H      2.252986   -0.137010    0.072958
