15

O      0.353054    0.873925    0.717713
C      1.477766    0.327542    0.417391
N      2.638109    1.028487    0.704476
H      2.194545    2.066800    1.172350
N      1.468677   -0.910187   -0.185044
H      2.152686   -1.711633   -0.278738
C      0.032136   -1.053100   -0.627042
H     -0.276697   -2.014157   -0.734707
H      0.252814   -0.491024   -1.685034
C     -0.654102   -0.072079    0.189173
C     -1.855333    0.521219   -0.203407
H     -2.456477    0.821167    0.761802
H     -1.808823    1.455202   -0.774890
H     -2.652375   -0.154862   -0.688647
H     -0.865979   -0.687299    1.214602
