12

C     -0.503717    1.383711   -0.292320
C     -0.065469    0.168331   -0.022572
C      1.344516   -0.027699    0.402072
H      1.679588   -1.015463    0.026023
H      2.020831    0.744789   -0.009623
H      1.359221   -0.072565    1.494970
C     -0.978984   -1.024175   -0.140246
H     -1.879702   -0.911028    0.486112
H     -0.410801   -1.939171    0.093034
H     -1.221439   -1.090631   -1.235734
H     -1.523699    1.569176   -0.604715
H      0.179656    2.214724   -0.197001
