12

C      0.256283    1.257551   -0.351993
C     -0.296311   -0.070035    0.050467
C     -1.699082   -0.380745   -0.157044
O     -2.130470   -1.497346    0.189458
H     -2.391910    0.318069   -0.602028
C      0.497795   -0.971167    0.600689
C      1.944373   -0.670469    0.822647
H      2.540808   -0.858098   -0.101085
H      0.109193   -1.930985    0.894224
H      0.116122    2.020900    0.438062
H      1.334160    1.129771   -0.526468
H     -0.280961    1.652553   -1.256929
