15

C     -2.213489    0.044934    0.204658
N     -0.759074    0.108563    0.089187
C      0.070336    1.245967    0.233586
H     -0.327596    2.246703    0.459562
C      1.344646    0.953338    0.065916
H      2.212750    1.621690    0.117362
C      1.453449   -0.465357   -0.214491
N      2.582434   -1.095157   -0.433761
H      3.498236   -0.588746   -0.417396
C      0.090419   -1.012608   -0.199406
H     -0.038835   -1.836653    0.534255
H     -0.136842   -1.363479   -1.239261
H     -2.575045    0.629116    1.093987
H     -2.680154    0.509158   -0.677047
H     -2.521237   -0.997471    0.382850
