14

N      1.599183    0.958740   -1.013266
C      0.493492    0.497695   -0.188117
O     -0.133283   -0.562503   -0.188429
C     -0.955508   -0.281187    0.830818
C     -1.700526    0.391586    1.996630
H     -2.026868   -0.279269    2.771565
H     -2.309175    1.194922    1.605019
C     -0.237135    0.978219    2.303790
H      0.378107    0.141338    2.675481
H     -0.289286    1.861822    2.922873
C     -0.235496    1.076268    0.835157
H     -1.008511    1.882501    0.478141
H      2.547594    0.942219   -0.639723
H      1.374668    1.286364   -1.951338
