11

C      2.521376    0.657679    0.269165
C      1.690574   -0.333136    0.423215
C      0.545112   -0.868476    0.763076
C     -0.632353   -0.847070   -0.153380
C     -1.359252    0.467103   -0.004852
H     -0.721208    1.220406    0.529236
H     -1.584215    0.929645   -0.994879
H     -2.350655    0.347615    0.498900
H     -0.259810   -0.951059   -1.189251
H     -1.264499   -1.723256    0.052268
H      3.414930    1.100549   -0.097670
