16

C      0.672601   -1.828141   -0.001173
C     -0.185831   -0.621080   -0.147676
C      0.375094    0.614159   -0.650769
C      1.462574    1.027412    0.271659
C      2.356227    1.371140    1.005379
H      3.136305    1.662616    1.659632
H      0.876186    0.437443   -1.648184
H     -0.271594    1.461171   -0.770737
N     -1.418282   -0.636876    0.159247
C     -2.180530    0.517309    0.004808
H     -2.250877    0.956010   -0.992752
H     -3.241025    0.273700    0.312632
H     -1.869326    1.311824    0.739044
H      0.167697   -2.686934   -0.534580
H      1.647613   -1.707595   -0.466843
H      0.723169   -2.152158    1.060313
