13

C      0.874477    0.499136   -0.283233
C      2.104279    0.031848   -0.114075
H      2.250841   -1.004788    0.132478
H      2.969397    0.666659   -0.217457
C     -0.298639   -0.396174   -0.135102
C     -1.339816    0.275817    0.721852
H     -1.883873    1.049787    0.130282
H     -2.018849   -0.489843    1.118565
H     -0.787541    0.801189    1.546612
O     -0.861261   -0.578229   -1.398662
H     -1.731767   -1.045873   -1.282010
H      0.010285   -1.357241    0.314057
H      0.712467    1.547714   -0.533306
