12

O      1.992427    1.604657    0.654679
C      1.295221    0.465162    0.266929
C      1.821154   -0.334405   -0.596245
H      2.303194   -0.949444   -1.305328
C     -0.023323    0.263870    0.894474
H     -0.132639    0.718690    1.898196
C     -0.894441   -0.874862    0.569660
H     -1.645876   -1.151631    1.336848
H     -0.551872   -1.721631   -0.037732
C     -1.184922    0.436729   -0.105120
H     -2.021839    1.073516    0.242635
H     -0.957083    0.469349   -1.171226
