12

C      0.430784   -0.597931   -0.682296
C      1.445417   -0.538020   -0.255157
H      2.531623   -0.661902   -0.022748
C      0.638656    0.508767    0.720134
H      1.266276    1.207986    1.138018
C     -0.682290    0.849847    0.051968
H     -0.576358    1.411882   -0.863737
H     -1.513973    0.978170    0.699501
C     -0.914284   -0.705483   -0.594315
H     -1.466396   -1.196588    0.197827
H     -1.559416   -0.473257   -1.482616
O      0.399961   -0.783472    1.093419
