13

C      2.089270   -0.290135    0.001412
C      0.582976   -0.184962    0.011799
C     -0.281815   -1.154716    0.255678
N     -1.600857   -0.641673    0.167561
H     -2.152130   -1.187461   -0.523089
H     -2.063800   -0.730236    1.115996
C     -1.478977    0.720111   -0.149759
H     -2.357294    1.369887   -0.279616
C     -0.208987    1.007243   -0.245314
H      0.175941    1.993860   -0.482046
H      2.407701   -0.114680    1.066608
H      2.410051   -1.298291   -0.294115
H      2.477922    0.511052   -0.645114
