16

C      1.112652    0.427055   -0.464167
C      2.516748   -0.057259   -0.260051
H      2.686226   -1.046552   -0.772938
H      3.254064    0.680355   -0.675855
H      2.797102   -0.204664    0.791247
C      0.241704    0.293549    0.747904
C     -1.016963   -0.463558    0.418776
H     -1.023483   -1.501545    0.770641
C     -2.318082    0.194102    0.255214
H     -2.434124    1.247166    0.531600
H     -3.226154   -0.408433    0.382269
C     -1.532784   -0.164212   -0.994444
H     -1.773948   -1.064785   -1.559183
H     -1.141525    0.709489   -1.524153
H      0.708304   -0.133834   -1.353752
H      1.150263    1.493125   -0.750230
