13

C     -1.569586   -0.390717    0.295033
C     -0.887536    0.785004   -0.212928
C      0.383959    0.789722   -0.492570
C      1.248507   -0.368961   -0.328333
O      2.288845   -0.069221    0.583985
H      2.013830   -0.260726    1.505987
H      1.797100   -0.517116   -1.307298
H      0.785118   -1.310773   -0.095387
H      0.848382    1.713646   -0.876083
H     -1.455094    1.694850   -0.367262
H     -0.969728   -1.077943    0.907150
H     -2.406992   -0.055369    0.945184
H     -2.076805   -0.932396   -0.557477
