17

C     -1.369023   -1.018089   -0.073229
C     -0.407298    0.060024    0.316500
O     -0.197252    0.149108    1.668761
H     -1.056901    0.155323    2.170930
C     -0.840689    1.417179   -0.195886
H     -0.920623    1.460460   -1.279703
H     -1.797752    1.747287    0.237829
H     -0.016846    2.129108    0.090902
C      0.904952   -0.246825   -0.349858
C      2.161865   -0.406017    0.429347
H      2.467938    0.621524    0.783486
H      2.082774   -1.125221    1.251187
H      2.951268   -0.691904   -0.307546
O      0.857407   -0.354184   -1.572309
H     -1.330328   -1.174292   -1.169029
H     -1.064393   -1.954018    0.431490
H     -2.425099   -0.769465    0.163870
