9

N     -1.120477   -0.954672    0.179698
C     -0.314295    0.205100   -0.003960
C      0.975372    0.122333   -0.175733
N      2.172840    0.116646    0.155144
N      3.387022    0.026312    0.307770
O     -0.954753    1.438626    0.006264
H     -1.270639    1.767663   -0.916726
H     -2.024777   -0.965469   -0.344195
H     -0.850292   -1.756539    0.791738
