16

C     -1.258236    0.407875    0.950801
C      0.006369    0.005800    0.202031
C      0.753808    1.292705   -0.066970
H      1.840742    1.018382   -0.097033
H      0.564869    1.990172    0.774431
H      0.529058    1.725843   -1.058369
C     -0.330135   -0.731960   -1.072712
O      0.844166   -1.023553   -1.720386
H      1.172809   -1.927843   -1.608854
H     -0.775635   -1.713048   -0.747518
H     -1.017764   -0.175002   -1.712404
N      0.817121   -0.813604    1.006182
C      1.499531   -1.483174    1.665158
H     -2.068063    0.694872    0.269275
H     -0.984034    1.199931    1.665549
H     -1.594607   -0.467394    1.550818
