12

C     -1.148526   -0.195913   -0.260512
H     -2.113151   -0.166132    0.274408
H     -1.175109   -0.448893   -1.322938
C     -0.294702    0.976860    0.144001
H     -0.686649    1.954906    0.144385
C      1.039455    0.701267   -0.457259
H      1.677337    1.391401   -0.985067
C      1.195432   -0.599440   -0.156604
H      2.004747   -1.278678   -0.369565
C     -0.101759   -0.853362    0.576973
H     -0.251228   -1.790821    1.029038
O     -0.145846    0.308805    1.383140
