16

O     -2.187841   -1.022575   -0.007583
C     -1.076987   -0.696221    0.783491
C      0.025302   -0.183641   -0.141191
C     -0.443139    1.027972   -0.883635
H     -1.519374    0.900143   -1.183576
H      0.147794    1.138583   -1.803937
H     -0.348204    1.962873   -0.289911
C      1.250240    0.155738    0.683785
C      2.302837    0.656911   -0.293470
H      2.780219   -0.266832   -0.724617
H      1.024970    1.030083    1.357895
H      1.614663   -0.699586    1.265241
H      0.311173   -0.972208   -0.840412
H     -1.302769    0.097031    1.507605
H     -0.687095   -1.563855    1.341499
H     -1.891790   -1.564416   -0.771184
