12

O     -2.651872   -0.268340    0.916639
C     -1.566095    0.342576    0.273022
H     -1.309531    1.357461    0.639435
C     -0.403143   -0.569568   -0.022214
N      0.654307   -1.276142    0.604336
C      1.769325   -0.641387    0.722621
C      2.816021    0.126285    0.619925
H      3.008539    0.953515    1.272083
H      3.516403   -0.084627   -0.162489
C     -1.163126   -0.137166   -1.022328
H     -1.278382   -0.199117   -2.103517
H     -3.392445    0.396511    0.910257
