12

C     -0.828399   -0.872860    0.315062
C     -0.597784    0.504924   -0.180739
N      0.607012    0.879640   -0.303971
C      1.751083    0.088178   -0.006178
H      1.805555   -0.789286   -0.669723
H      1.863861   -0.217122    1.040086
H      2.658639    0.715657   -0.233368
C     -1.741335    1.341906   -0.494886
N     -2.655158    2.015917   -0.728391
H      0.003103   -1.556364    0.140351
H     -1.169061   -0.840362    1.380871
H     -1.697516   -1.270230   -0.259114
