13

C     -0.584069   -1.214736    0.139230
C     -0.029064    0.031160   -0.430800
O      1.299963    0.203280   -0.790897
C      2.340687    0.082887    0.113990
O      2.002493   -0.198782    1.312117
H      3.383859    0.211160   -0.137003
C     -0.861287    1.045338   -0.606340
C     -2.314684    0.943889   -0.243540
H     -2.477658    1.442863    0.744000
H     -0.506541    1.984822   -1.021897
H     -1.620953   -1.345323   -0.179566
H     -0.021970   -2.117002   -0.150108
H     -0.610775   -1.069557    1.250815
