12

C     -1.664158   -0.567541   -0.026020
C     -0.570246    0.435994   -0.001501
C      0.674471    0.281250   -0.727979
C      1.578128   -0.553012   -0.311428
N      2.531467   -1.185171    0.286820
H      3.105424   -0.610549    0.971242
H      0.830429    0.869465   -1.609772
N     -0.727002    1.506840    0.701665
H     -0.019768    2.258628    0.777422
H     -1.665480   -1.097330   -1.000352
H     -2.621406   -0.032278    0.146008
H     -1.451859   -1.306297    0.793895
