15

C     -0.220564   -1.821921   -0.217059
C     -0.192000   -0.482763    0.525203
C     -1.487309    0.218148    0.237021
H     -1.559964    0.355704   -0.870246
H     -2.369837   -0.326259    0.631069
H     -1.429172    1.234503    0.668347
O      0.864269    0.243260    0.048759
C      1.083509    1.438860   -0.012378
C      2.317272    1.892162   -0.583156
C      3.373764    2.282881   -1.049968
H      0.389631    2.176159    0.344487
H     -0.178201   -0.733585    1.598753
H      0.745177   -1.982655   -0.769449
H     -0.331182   -2.671988    0.457646
H     -1.005394   -1.822506   -1.009029
