15

C     -1.779890   -0.301656    0.412107
C     -0.891088   -0.544553   -0.809836
N      0.125993    0.477855   -0.840729
C      1.159710    0.571767    0.108404
O      1.809856    1.761588    0.364906
H      2.627159    1.971263   -0.200860
C      1.521400   -0.495493    0.771703
H      1.008910   -1.433022    0.569564
H      2.330503   -0.460295    1.526058
H      0.088838    1.181921   -1.608421
H     -0.484320   -1.574148   -0.808082
H     -1.578290   -0.485913   -1.683140
H     -2.707744    0.226366    0.140873
H     -2.000400   -1.254362    0.933072
H     -1.230638    0.358682    1.124378
