11

C     -1.984175    0.099474   -0.279760
N     -0.644549    0.411257   -0.744316
C      0.490342   -0.074759   -0.089477
C      1.605210   -0.430712    0.474811
N      2.764652    0.377258    0.295577
N      3.665522   -0.062415   -0.491318
H      1.688494   -1.327234    1.082632
H     -0.581200    1.016982   -1.592237
H     -2.272638    0.752801    0.594277
H     -2.733003    0.175830   -1.087021
H     -1.998655   -0.938482    0.096628
