10

C     -0.817125    0.760382   -0.410075
H     -1.316829    1.718476   -0.369451
C     -1.003093   -0.495042    0.094404
H     -1.696706   -0.688544    0.906498
H     -0.817681   -1.404384   -0.507110
N      0.247528    0.357017    0.392475
C      1.417745    0.044219   -0.298527
O      1.329703   -1.103042   -0.642149
H      2.326708    0.553753   -0.580536
H      0.329751    0.257162    1.414472
