14

C     -1.322994   -0.421679   -0.153708
H     -2.289557   -0.752860    0.332112
H     -1.559377   -0.374294   -1.257186
C     -0.332148   -1.495681   -0.007038
C      1.098169   -1.311292    0.016327
H      1.555880   -2.004723   -0.749438
H      1.560508   -1.739766    0.959390
O      1.673507   -0.062142   -0.142387
C      1.340497    1.236402   -0.262036
H      2.109633    1.952722   -0.533599
N      0.117927    1.676857   -0.066608
C     -0.972726    0.884760    0.324832
H     -1.074046    0.864223    1.474568
H     -1.905274    1.547473    0.064770
