8

O      1.386888    0.056891    0.664769
C      0.389879   -0.483677   -0.138994
H      0.371602   -1.583509   -0.275104
C     -0.956103    0.189765    0.046584
H     -1.856762   -0.430239    0.030379
H     -1.015314    1.155520    0.573918
O     -0.184005    0.289386   -1.139310
H      1.863815    0.805864    0.237758
