13

C      2.026074   -0.142117    0.153811
C      0.692241    0.012591    0.045020
C     -0.329375   -1.049758    0.121753
H     -0.260727   -1.593312    1.097270
H     -0.161734   -1.830321   -0.673608
N     -1.569500   -0.369526   -0.052106
H     -2.505069   -0.878798   -0.044674
C     -1.313815    1.003826   -0.221423
H     -2.106215    1.735656   -0.372803
C     -0.024056    1.256880   -0.170803
H      0.482340    2.231116   -0.269527
H      2.627264    0.736396    0.074322
H      2.442571   -1.112633    0.312769
