10

O     -0.388396    1.648875   -0.043519
C      0.111676    0.357908    0.040606
C     -0.790551   -0.813054   -0.024120
H     -1.678595   -0.628620    0.636255
H     -1.141099   -1.043946   -1.039647
H     -0.299226   -1.719554    0.410146
C      1.413967    0.136141    0.181597
H      2.081411    0.987327    0.229865
H      1.821690   -0.862996    0.248852
H     -1.130879    1.937920   -0.640035
