14

C     -1.929465   -0.354033    0.180464
C     -0.945711    0.793363    0.325570
C      0.410515    0.350588   -0.078045
O      1.050429   -0.697308    0.580598
C      2.162321   -1.098048    0.193560
H      2.626926   -0.632709   -0.650604
H      2.659890   -1.902778    0.694834
C      0.979620    0.980908   -1.073390
N      1.751645    1.761863   -1.745298
H     -1.267812    1.658234   -0.251026
H     -0.895720    1.028402    1.406252
H     -2.033535   -0.674165   -0.884782
H     -2.926626   -0.002622    0.512728
H     -1.642477   -1.211693    0.789140
