13

C     -1.673851    0.330840   -0.454149
C     -0.186626    0.582573   -0.265048
H      0.091987    1.522425    0.193804
N      0.466816   -0.615006    0.111263
H      0.325660   -1.105181    0.936156
C      1.678512   -0.138335   -0.403640
H      2.170458    0.724318    0.030431
H      2.354611   -0.992485   -0.705233
C      0.646768    0.190772   -1.502172
O      0.177740   -1.094868   -1.106243
H     -2.153821    0.259148    0.532723
H     -2.149398    1.025252   -1.141307
H     -1.748855   -0.689454   -0.929403
