13

C     -0.398993   -0.703293    0.342773
C      0.821903    0.088338    0.708985
C      1.440810    0.652399   -0.518365
C      2.317870   -0.051440   -1.208794
H      1.168387    1.642375   -0.842073
H      1.549610   -0.624528    1.162672
H      0.627315    0.854789    1.480847
C     -1.454219    0.089863   -0.351279
H     -1.010803    0.632670   -1.194675
H     -2.182472   -0.645811   -0.792611
H     -2.014996    0.771491    0.306222
H     -0.070593   -1.515936   -0.350863
H     -0.793819   -1.190915    1.257160
