9

O      2.387442   -0.241435    0.031893
C      0.996113   -0.056812   -0.130509
N      0.205176    0.685888   -0.773103
N     -0.926614    0.075928   -0.249327
N     -2.323833    0.189134   -0.350085
H     -2.843600    1.012860    0.055336
C     -0.172924   -0.709055    0.429666
H     -0.293511   -1.536023    1.142923
H      2.971751    0.579515   -0.156795
