12

C     -1.442200   -0.450124    0.269958
C     -0.290694    0.191910   -0.472842
H     -0.653080    0.731450   -1.367774
C      0.488653    1.116769    0.354821
H      0.159355    2.044596    0.834181
O      1.768997    0.586502    0.425818
C      1.847140   -0.475308   -0.217104
H      2.747057   -1.107238   -0.330182
O      0.643179   -0.805498   -0.804987
H     -2.383176   -0.211324   -0.270495
H     -1.371371   -1.554034    0.290171
H     -1.513860   -0.067700    1.288435
