11

N     -1.603824    0.935804   -0.119410
C     -0.741169   -0.060309    0.396945
N     -0.748660   -0.383623    1.639337
H     -0.141761   -1.099375    2.058782
C      0.164346   -0.717023   -0.522089
C      1.300516   -0.094849   -0.781847
N      2.483803    0.350017   -0.938162
H      3.148186    0.151103   -0.136127
H     -0.004180   -1.646351   -0.999524
H     -2.637064    0.761977   -0.026178
H     -1.220195    1.802630   -0.571726
