12

C      1.518573   -0.328528   -0.096620
C      0.189676   -0.017317    0.490362
H      0.229534    0.172625    1.595533
C     -0.450409    1.180113   -0.105897
H     -0.041353    2.170398   -0.214125
C     -1.619521    0.777016   -0.497168
C     -1.892724   -0.483099   -0.328948
H     -2.777356   -1.059546   -0.566591
O     -0.772518   -1.007005    0.285636
H      1.875727    0.344580   -0.879459
H      1.480222   -1.403005   -0.453909
H      2.260149   -0.346233    0.771186
