15

C     -1.953791    0.444533   -0.429764
N     -0.543262    0.567874   -0.045477
H     -0.068401    1.430712   -0.395056
C     -0.237473    0.063713    1.259707
H     -1.010745   -0.202352    1.982254
C      0.209308   -0.653102    0.116345
C      1.705106   -0.621397   -0.205091
O      2.329228    0.311763    0.626973
H      2.739162    1.026624    0.105350
H      2.116923   -1.615409    0.093456
H      1.883653   -0.418324   -1.279658
H     -0.281988   -1.544398   -0.341573
H     -2.243663   -0.590310   -0.178601
H     -2.526701    1.154580    0.178469
H     -2.117356    0.645492   -1.487333
