12

C     -1.789297    0.539543   -0.253118
N     -0.530459   -0.187110   -0.251846
C      0.129129   -0.317622    0.853256
N      1.354704   -0.993178    0.995250
C      2.293996   -0.812830    0.158104
O      2.098182    0.060190   -0.901168
H      1.512157    0.886695   -0.823455
H      1.486603   -1.639237    1.788341
H     -0.283420    0.128193    1.769450
H     -2.358591    0.392054    0.696373
H     -1.509308    1.626124   -0.256640
H     -2.403695    0.317177   -1.126777
