10

C      1.576053    0.097959   -0.208689
O      0.859091   -0.818295    0.539308
C     -0.391250   -0.764584    0.605204
C     -1.083681    0.312253   -0.143530
H     -1.138146   -0.021273   -1.211619
H     -0.521687    1.248307   -0.012748
H     -2.114518    0.481378    0.230648
H     -0.998041   -1.442057    1.164784
H      1.185171    0.709499   -0.991321
H      2.627009    0.196813    0.027962
