15

C     -0.980902   -0.983449   -0.740079
C     -0.348948   -0.161569    0.375429
C     -0.838110    1.282337    0.266546
H     -0.992876    1.438046   -0.838671
H     -1.737869    1.462225    0.856318
H      0.022124    1.933597    0.554824
C      1.128532   -0.185370    0.149734
O      1.698110    0.310534   -1.022749
H      2.574351    0.843011   -0.922266
N      1.953691   -0.666636    1.029417
H      1.547160   -1.050993    1.931610
H     -0.553794   -0.583226    1.361641
H     -0.225332   -1.538481   -1.329287
H     -1.635215   -1.754422   -0.275813
H     -1.610921   -0.345606   -1.396654
