14

O     -1.411300   -1.323126    0.937466
C     -1.450702   -0.376753   -0.080070
C     -0.168459    0.344256   -0.223641
N      1.027870   -0.346811   -0.524635
C      2.190771   -0.291191    0.316370
H      2.377367    0.543146    0.983973
H      2.891397   -1.096346    0.281824
H      1.042444   -0.914681   -1.400216
C     -0.135532    1.636641   -0.071321
O     -1.288636    2.321237    0.221038
H      0.798289    2.160686   -0.176010
H     -2.283056    0.329416    0.085179
H     -1.659056   -0.855206   -1.075454
H     -1.931397   -2.131268    0.725497
