12

O      2.513036    0.229445   -0.376583
C      1.136791    0.064768   -0.197280
N      0.602757   -1.100595   -0.055086
C     -0.818360   -1.011505    0.112991
H     -1.339775   -1.553345   -0.702838
H     -1.105434   -1.453310    1.104465
C     -1.166335    0.472547    0.057779
H     -1.618474    0.750328    1.036961
H     -1.798333    0.718274   -0.797786
N      0.136514    1.076636   -0.141575
H      0.269905    2.107503   -0.226001
H      3.187708   -0.300748    0.184953
