14

O      1.959569   -0.787320    0.434391
C      0.728968   -0.128688    0.709369
H      0.441035   -0.184627    1.732011
C      0.678818    1.246993    0.078395
H      1.556440    1.578492   -0.453751
H      0.259342    2.011093    0.812716
N     -0.381749    0.784476   -0.807689
C     -1.592324    0.272167   -0.207078
H     -2.397902    0.038022   -0.944105
H     -1.896688    0.759935    0.749724
C     -0.362065   -0.533662   -0.247428
O     -0.349017   -1.681056   -0.956438
H     -0.696614   -2.409012   -0.365526
H      2.052187   -0.966812   -0.534591
