12

N      3.273713   -0.619561   -0.630439
C      2.313062   -0.035633   -0.382254
C      1.096254    0.734094   -0.064049
C      0.167980   -0.037946    0.803929
N     -0.849625   -0.884530    0.293173
C     -2.029728   -0.185310   -0.119193
H     -2.910805   -0.834735    0.061483
H     -2.141627    0.815085    0.331033
H     -1.076513   -1.643817    0.965343
H      0.257502    0.036650    1.881102
H      0.539380    1.003260   -0.978672
H      1.360406    1.652442    0.486315
