12

C     -2.381986    0.091313    0.125990
N     -1.167190   -0.692164    0.168563
C     -0.039610   -0.074973    0.337347
C      1.230480   -0.766387    0.394156
N      2.258800   -0.248527   -0.076764
C      3.329847    0.379329   -0.362231
H      3.684387    1.053678    0.429276
H      1.287808   -1.730180    0.846503
H     -0.091032    1.022738    0.437879
H     -2.856537    0.095675    1.131822
H     -2.189393    1.160171   -0.117397
H     -3.065574   -0.290673   -0.667373
