13

C      2.179089    0.099108   -0.122855
C      0.822425    0.232027   -0.825321
C     -0.273122    0.174136    0.192493
H      0.054119    0.306103    1.262107
C     -1.323887   -0.861877   -0.050556
H     -1.635875   -1.482076    0.804569
H     -1.389661   -1.387846   -1.019155
C     -1.647282    0.600280   -0.111537
H     -1.951074    1.034408   -1.077038
H     -2.287431    0.960801    0.733441
H      2.927264   -0.387738   -0.767574
H      2.052802   -0.436162    0.844299
H      2.472633    1.148837    0.137128
