12

C      1.702113   -0.079037   -0.989324
N      0.660567    0.161162   -0.038940
C      0.163892   -0.727893    0.749795
O     -0.844427   -0.341164    1.618284
C     -1.830615    0.597660    1.161516
H     -2.563574    0.803997    1.967734
H     -2.397563    0.075588    0.361158
H     -1.383611    1.541823    0.851662
H      0.565893   -1.729105    0.686745
H      2.489180   -0.675748   -0.494524
H      2.098744    0.923167   -1.300998
H      1.339401   -0.550450   -1.925338
