15

C     -1.426855   -1.057769   -0.020818
N     -0.604697    0.119153    0.004798
C     -0.966258    1.490889    0.033634
H     -1.973263    1.869142    0.040878
C      0.278124    2.247269    0.050663
H      0.450079    3.309322    0.073337
C      1.211348    1.343071    0.032204
C      0.820869    0.088858    0.005271
N      1.624179   -1.082482   -0.018979
H      1.631694   -1.537430    0.907946
H      2.571276   -0.851131   -0.350380
H      1.202828   -1.754909   -0.711123
H     -1.174760   -1.703364    0.865940
H     -1.141725   -1.656620   -0.910584
H     -2.502839   -0.823998   -0.002784
