12

O      0.611273   -0.797752    1.140093
C      1.555388   -0.765700    0.158099
C      2.345317    0.238627   -0.082807
O      2.978070    1.287424   -0.342467
H      1.664459   -1.634543   -0.473707
N     -0.644114   -0.368747    1.122193
C     -1.078463    0.889194    0.650994
H     -1.795361    1.451539    1.280438
H     -0.465088    1.540230    0.007001
C     -1.505119   -0.395690   -0.000026
H     -2.526804   -0.803365    0.203902
H     -1.139560   -0.641218   -1.015943
