15

C     -1.833889    0.269368    0.251201
C     -0.369506    0.051372    0.508318
H     -0.293173   -0.200558    1.645826
C      0.230697   -1.116291   -0.185360
H      0.237393   -2.080521    0.381438
H     -0.391964   -1.288432   -1.172281
C      1.528716   -0.639071   -0.680708
H      2.342087   -1.204899   -1.176131
C      1.686296    0.638366   -0.423068
H      2.559053    1.247786   -0.691149
C      0.509501    1.156188    0.302187
O      0.409702    2.377977    0.614018
H     -2.238203    0.939627    0.995460
H     -2.042112    0.571612   -0.768918
H     -2.334597   -0.722525    0.399167
