19

C     -1.189196    1.210439    0.581227
C     -0.795331   -0.193720    0.408433
C     -1.564460   -0.788125   -0.770905
O     -2.934326   -0.731260   -0.555717
H     -3.170825   -1.296064    0.222110
H     -1.310369   -1.862667   -0.918344
H     -1.293034   -0.277090   -1.710061
C      0.626616   -0.460201    0.169350
C      1.575144    0.447147    0.047246
C      3.004186    0.028686   -0.198229
H      3.438245    0.803866   -0.864292
H      3.544653    0.062447    0.762132
H      3.010539   -0.967260   -0.658812
H      1.310231    1.471669    0.125419
H      0.925763   -1.500372    0.085192
H     -1.093695   -0.775277    1.316784
H     -1.134611    1.545878    1.656572
H     -0.665396    1.954727   -0.023929
H     -2.284132    1.327179    0.325823
