11

O     -0.934722   -0.820954   -0.865333
C     -0.234734   -0.861004    0.522758
C     -1.241280   -0.330181    0.842195
H     -2.156236   -0.083428    1.364326
C     -0.753519    0.564550   -0.443097
H     -1.427671    1.280034   -0.700791
N      0.654750    0.747968   -0.175101
H      0.974390    1.706214    0.114474
C      1.613672   -0.328465   -0.296812
H      2.540802   -0.418250   -0.673400
N      0.964548   -1.456484    0.310783
