17

C      0.094662   -1.454690    0.044713
H      1.083791   -1.781632    0.434782
H     -0.727835   -2.126686    0.355913
C      0.086671   -0.833674   -1.328246
H     -0.805629   -1.093593   -1.928486
H      0.998465   -0.736186   -1.917685
C     -0.090706    0.010394   -0.062801
C      1.034025    0.898170    0.320717
C      2.293305    0.637444   -0.041644
H      3.075283    1.305144    0.256794
H      2.500465   -0.247432   -0.632123
H      0.805861    1.778302    0.912848
C     -1.447661    0.607928    0.025569
C     -2.135469    0.655068    1.158857
H     -1.763384    0.265391    2.095823
H     -3.123673    1.099281    1.184666
H     -1.878169    1.016769   -0.879698
