13

C      1.093566   -0.095678    0.475216
O      2.233194   -0.732542    0.012127
H      2.311525   -0.598833   -0.948062
C      0.022216   -0.072217   -0.605468
C     -1.207076    0.642098   -0.033536
O     -1.616937   -0.099165    1.084436
H     -2.008584   -0.947764    0.709240
H     -0.940939    1.676590    0.225087
H     -2.027807    0.670056   -0.750514
H      0.349541    0.478255   -1.506192
H     -0.231229   -1.134094   -0.807139
H      0.687494   -0.708459    1.311008
H      1.335037    0.921755    0.833797
