10

N      1.606665    0.013548    1.426647
N      0.260245   -0.083634    1.768489
N     -0.595128    0.121774    0.861385
C     -0.142377    0.434485   -0.432032
N     -0.881496    0.102597   -1.436779
C     -2.086207   -0.541811   -1.269485
N     -3.113550   -1.068343   -1.128775
H      0.785663    0.936132   -0.652226
H      1.894025   -0.363990    0.500168
H      2.272159    0.449241    2.088427
