13

N     -1.557671    1.159767   -0.426785
C     -0.338439    0.693801    0.177268
C      0.781400    1.298327    0.378511
C      1.810065    0.517661    0.057386
H      2.757226    0.824471   -0.236175
N      1.279898   -0.779275    0.055457
H      1.804907   -1.651056   -0.328291
C     -0.078067   -0.747376    0.546175
O     -0.799331   -1.666534   -0.093271
H     -1.675577   -1.384261   -0.426720
H     -0.084976   -0.817137    1.676093
H     -2.272754    1.648359    0.089155
H     -1.626680    0.903253   -1.468801
