9

N      1.894347    0.365516    0.416571
C      1.345544   -0.115679   -0.644112
N      0.335031   -1.108912   -0.531562
C     -0.918701   -0.796759   -0.473873
C     -2.001205   -0.088569   -0.325100
H     -2.379566    0.239301    0.624171
H     -2.551963    0.190334   -1.201729
H      1.636951    0.220079   -1.627161
H      2.639561    1.094688    0.397136
