12

N     -2.055602    0.842496    0.116484
C     -1.111277   -0.166885    0.488350
N     -0.663769   -1.008667    1.376928
C      0.052798   -1.024510    0.188954
C      1.384665   -0.352477    0.153864
O      1.240589    1.011049    0.461628
H      2.118023    1.437523    0.523020
H      1.760614   -0.382567   -0.892785
H      2.121053   -0.851704    0.816979
H     -0.079955   -1.845151   -0.567207
H     -1.731706    1.818868    0.043518
H     -3.035433    0.522024   -0.061962
