13

C     -1.446777   -0.415447    0.619084
C     -0.790388   -0.187896   -0.717932
H     -1.342025   -0.676225   -1.557934
C     -0.229551    1.148437   -1.056594
H     -0.135216    1.916902   -0.237109
C      0.675779   -0.099631   -0.859755
C      1.507219   -0.109119    0.340131
N      2.330479   -0.036169    1.281331
H      3.252978    0.428400    1.188236
H      1.125786   -0.494739   -1.800332
H     -1.605968   -1.503129    0.760501
H     -2.479042    0.034151    0.584616
H     -0.863272   -0.005536    1.455758
