13

O      1.821084   -0.846934    1.229230
C      1.172213    0.069183    0.771791
C      0.698184    0.094208   -0.618553
O      1.130278   -1.083674   -1.244931
H      1.984414   -1.395658   -0.856994
C     -0.808754    0.142362   -0.635638
H     -1.239850    0.467443   -1.593659
C     -1.469819   -1.063229    0.053616
C     -1.594988    0.369845    0.580953
H     -2.627797    0.766151    0.451508
H     -1.130194    0.610986    1.556009
H      1.113524    0.977349   -1.148141
H      0.951704    0.891967    1.454809
