13

N      2.175517   -0.860137   -0.349154
C      1.248860    0.192040   -0.103569
C      0.777427    1.428635   -0.297710
H      0.918219    2.355738   -0.829572
C      0.037924    0.599436    0.657567
C     -1.252856    0.012242    0.229498
O     -2.430468    0.331590    0.876207
H     -3.252582   -0.258099    0.798478
N     -1.291950   -0.806036   -0.754501
H     -2.170465   -1.250519   -1.100243
H      0.237159    0.714817    1.743004
H      2.982162   -0.986796    0.290801
H      2.021054   -1.472911   -1.160805
