12

N      2.724985   -1.737973    0.614853
C      1.841388   -1.318683   -0.002041
N      0.755104   -0.819705   -0.750228
C      0.224818    0.490771   -0.388339
C     -0.422549    0.381514    0.945252
C     -1.705590    0.658989    1.084861
H     -2.143228    0.568477    2.070854
H     -2.334053    0.971330    0.261909
H      0.187211    0.072567    1.778104
H      1.057719    1.241730   -0.264553
H     -0.505922    0.833422   -1.161162
H      0.320117   -1.342438   -1.541740
