12

C     -1.688237   -0.899849    0.296002
H     -2.113135   -1.761557    0.758115
C     -1.890659    0.406857   -0.182544
H     -2.574180    1.219975   -0.334007
C     -0.535223   -0.140657   -0.315486
C      0.536991    0.247909    0.675334
H      0.136600    0.474953    1.695616
C      1.716948    0.975664    0.291410
H      2.370766    1.786006    0.008298
C      1.821672   -0.401243    0.506541
H      2.428816   -1.292514    0.527810
H     -0.210358   -0.615543   -1.279316
