14

O      0.510399   -1.507497   -0.007528
C      1.541319   -0.576321   -0.143092
H      2.541505   -0.860814   -0.439792
C      1.202940    0.690829    0.120095
H      1.954857    1.437290    0.231910
C     -0.262855    0.947644    0.236931
H     -0.542540    1.991702    0.346836
C     -0.933016    0.185298   -0.890149
H     -0.336451    0.079732   -1.802839
H     -1.981687    0.488000   -0.992096
C     -0.801463   -0.985408    0.091992
H     -1.619282   -1.700894    0.071802
N     -0.895933    0.010990    1.159184
H     -0.377792   -0.200550    2.016745
