15

O      2.405608    0.426563   -0.722800
C      1.329045   -0.071441   -0.151396
H      1.676002   -0.323845    0.990546
C      0.230258    0.954731    0.029583
H     -0.158589    1.378059   -1.019114
H      0.441259    1.855238    0.703000
C     -0.921467    0.097501    0.506343
O     -2.131169    0.673627    0.828468
H     -2.804387    0.440757    0.044738
H     -0.504713   -0.381481    1.443519
C     -0.904147   -1.086097   -0.371587
H     -1.293285   -2.006245   -0.019327
H     -1.319301   -0.689866   -1.315257
C      0.627667   -1.283180   -0.601499
H      3.327220    0.015678   -0.345217
