10

N     -0.496767    0.276973    0.432649
C      0.497403   -0.261881   -0.418208
O      0.195233   -1.184188   -1.213544
C      1.837310    0.301744   -0.313260
O      2.148339    1.207823    0.463403
H      2.592921   -0.119992   -0.971766
C     -1.811627   -0.253595    0.351511
O     -2.068371   -1.179793   -0.462584
H     -2.593077    0.156715    1.007447
H     -0.301364    1.056193    1.124353
