14

N      2.179278    0.247243    0.967703
C      1.019640    0.024137    0.537603
C     -0.383052    0.061369    1.092819
H     -0.509097   -0.036642    2.136801
C     -0.630432   -1.146566    0.199504
H     -1.656110   -1.238357   -0.156101
H     -0.160490   -2.081127    0.574583
C      0.315156   -0.397787   -0.726627
H      0.861423   -0.932544   -1.451391
C     -0.478132    0.822362   -1.082906
C     -0.978475    1.196620    0.328876
H     -0.482744    2.131935    0.659702
H     -2.064375    1.226898    0.328753
H      2.967410    0.122458    0.291994
