8

C      1.220090    0.337575    0.680446
N      2.233717    0.846862    0.106227
H      2.826456    0.306798   -0.568393
N      0.204613   -0.387998    0.995974
C     -0.874563   -0.574638    0.084870
N     -1.887810    0.170318    0.123241
N     -2.952038    0.680230    0.532648
H     -0.770464   -1.379148   -0.626179
