12

O      2.646201   -1.017426    0.104739
C      1.645127   -0.180386   -0.428459
C      0.489119   -0.254875    0.577709
C     -0.589586    0.732519    0.193442
H     -0.513171    1.772912    0.544721
O     -1.145675    0.512505   -1.087926
C     -1.961675    0.190302    0.050697
H     -2.136143   -0.898422    0.200557
H     -2.854305    0.843240    0.067278
H      0.881424    0.036564    1.557689
H      0.114320   -1.293988    0.523680
H      3.424364   -0.442945    0.343644
