13

O      2.561787   -0.824418   -0.335794
C      1.440318   -0.598242    0.439766
C      0.596401    0.494041   -0.033852
N     -0.671877    0.358495   -0.112869
C     -2.031899    0.840276   -0.420905
H     -2.231837    0.985892   -1.511116
H     -2.508536    1.518240    0.308151
C     -1.810096   -0.527186    0.088267
H     -2.217372   -1.481170    0.387079
H      1.027752    1.441168   -0.327792
H      0.849085   -1.558749    0.423436
H      1.677031   -0.419226    1.511388
H      3.319245   -0.229120   -0.131270
