11

O      1.040546    1.467861    0.223587
C      1.536503    0.311831    0.035611
H      2.567796    0.177748    0.133613
N      0.608089   -0.718743   -0.221291
H      1.084254   -1.723810   -0.469683
C     -0.788234   -0.616553   -0.063938
H     -1.372762   -1.310235   -0.593991
H     -0.994288   -1.005545    0.975460
C     -1.149740    0.748565   -0.043350
H     -2.317680    1.008701   -0.055948
C     -0.214484    1.660180    0.079930
