11

N      2.475866    0.764954    0.066216
C      1.109971    0.298877    0.106879
N      0.696928   -0.923291   -0.265295
H      1.270549   -1.713327   -0.632915
N     -0.610107   -0.955182   -0.079127
H     -1.267093   -1.768739   -0.269158
C     -1.052142    0.214865    0.403727
O     -2.382151    0.519924    0.713182
H     -2.979541    1.058173    0.091886
N      0.032284    0.988717    0.515030
H      2.705436    1.515030   -0.650425
