18

C      3.254573    0.355041   -0.491345
O      2.094344   -0.312070   -0.777712
C      1.102622   -0.044835   -0.153646
C     -0.184625   -0.749329   -0.434355
N     -1.149731   -0.286629    0.520853
C     -2.427091   -0.896002    0.347875
H     -3.245087   -0.308080    0.800981
H     -2.363972   -1.925713    0.807991
H     -2.591485   -1.062262   -0.744216
C     -1.164616    1.124356    0.709407
H     -2.203698    1.477799    0.872756
H     -0.606510    1.425974    1.643864
H     -0.761746    1.688311   -0.174260
H     -0.016145   -1.839003   -0.219710
H     -0.502795   -0.660425   -1.475707
H      3.401502    1.237036   -1.150799
H      3.221137    0.680827    0.556806
H      4.143323   -0.304884   -0.638783
