12

O     -2.093450    0.416956    0.766728
C     -1.094582    0.290977    0.288102
C     -0.620217   -1.182170   -0.092105
H     -0.379062   -1.730339    0.750328
H     -1.352863   -1.638978   -0.749867
O      0.537005   -0.726405   -0.867977
C      1.580921   -0.361542    0.035489
H      2.418359   -0.832612    0.332366
N      1.235732    0.893695    0.507748
C     -0.013353    1.281509   -0.099833
H     -0.324964    2.284453    0.341000
H      0.106476    1.304456   -1.211978
