9

O     -1.150161   -0.051667   -0.670114
C     -0.361766   -0.897942    0.075669
H     -0.830284   -1.157624    1.057491
H      0.037743   -1.799446   -0.459560
C      0.606104    0.203564    0.292599
H      1.582068    0.002859   -0.222598
H      0.759890    0.534547    1.346793
C     -0.314912    0.979638   -0.509194
O     -0.328682    2.186070   -0.911085
