11

N      1.384852    0.803910   -0.445392
H      1.727243    1.617324    0.137355
C      0.166437    0.208070   -0.178390
C      1.270680   -0.496994    0.254130
H      1.605211   -0.460356    1.332303
H      1.646290   -1.403270   -0.307872
O     -0.755854   -0.129954   -1.159190
C     -1.748890   -0.114830   -0.116025
H     -1.745019   -1.120135    0.343902
H     -2.701990    0.306497   -0.401037
O     -0.848959    0.789737    0.540214
