12

O      1.951700   -1.711085   -0.248647
C      1.092277   -0.777284   -0.138966
C      1.325807    0.603821    0.204403
H      2.307861    1.108266    0.153309
C      0.225257    1.238060    0.554228
H      0.069417    2.208046    0.806493
C     -0.904846    0.253883    0.382750
H     -1.784896    0.203809    1.012920
N     -1.107780   -0.005239   -1.040197
H     -2.033189   -0.221704   -1.416145
C     -0.354886   -0.962194   -0.269974
H     -0.786722   -1.938380   -0.000174
