16

C      1.572760   -0.710566   -1.024093
O      0.931133   -0.776084    0.195892
C     -0.276495   -0.133065    0.233121
C     -0.125247    1.349509   -0.080098
H      0.866005    1.737351    0.185724
H     -0.310457    1.489080   -1.179965
H     -0.914048    1.900166    0.457688
C     -0.841207   -0.211659    1.636597
H     -1.937628   -0.410748    1.549275
H     -0.403078   -1.097104    2.121305
H     -0.632854    0.700680    2.232262
N     -1.204939   -0.664467   -0.704275
C     -1.956611   -1.086012   -1.477690
H      1.775896    0.351194   -1.311210
H      2.498882   -1.315772   -0.977697
H      0.957888   -1.122504   -1.856836
