16

C     -2.327762   -0.188513   -0.035664
C     -1.042167   -0.193091   -0.071318
C     -0.278712    1.088471    0.035919
H     -0.628853    1.782251    0.796761
H     -0.433874    1.731147   -0.969966
C      1.243455    0.925459    0.093825
H      1.444279    1.182073    1.235191
H      1.891766    1.523292   -0.478225
C      1.484790   -0.571579    0.078413
H      1.907526   -0.949208    1.032143
H      2.090795   -0.870124   -0.761091
C      0.129484   -1.213431   -0.167648
H     -0.009422   -2.030151    0.583360
H      0.092791   -1.809774   -1.118644
H     -2.798944    0.835136   -0.000146
H     -2.765153   -1.241959   -0.252910
