11

N     -1.547568    0.212977    0.078445
H     -2.583565   -0.001694    0.089595
C     -1.148544    1.568353    0.221518
O     -0.010684    2.099343    0.243450
N      1.192918    1.467162    0.128416
C      1.543974    0.237980   -0.026108
H      2.617644    0.010153   -0.089806
C      0.649560   -0.912967   -0.128288
H      1.123993   -1.878834   -0.256607
C     -0.692044   -0.911122   -0.081449
H     -1.145685   -1.891352   -0.179166
