10

C      1.446804   -0.382735   -0.461622
C      0.906993    0.225060    0.577226
O     -0.281826    0.907310    0.374584
C     -1.472481    0.211863    0.011009
H     -2.266916    1.006492   -0.084604
H     -1.744181   -0.557756    0.759301
H     -1.342751   -0.316148   -0.968599
H      1.366167    0.196108    1.545630
H      0.995272   -0.362271   -1.444292
H      2.392918   -0.927921   -0.308632
