12

N      2.200815   -0.343415   -0.103778
C      0.779810   -0.187359   -0.019164
N     -0.051601   -1.158893    0.216083
C     -1.417663   -0.689129    0.241539
H     -1.959459   -1.124096   -0.625975
H     -1.936894   -0.912616    1.196815
C     -1.296602    0.764468   -0.022100
H     -2.148300    1.446853   -0.074323
C     -0.009594    1.003971   -0.165273
H      0.389134    2.006755   -0.371962
H      2.840357    0.414191    0.194588
H      2.609997   -1.220730   -0.466450
