14

O     -0.658311    1.676756   -0.007073
C     -0.600929    0.283250    0.174248
C      0.555755   -0.453518   -0.441279
C      1.894408    0.013634    0.075668
H      2.038146    1.110203   -0.073372
H      2.665971   -0.558509   -0.500091
H      2.023225   -0.284664    1.131038
H      0.457637   -1.525509   -0.122996
H      0.571618   -0.430498   -1.537356
C     -1.938281   -0.419760   -0.028411
H     -1.945199   -1.437433   -0.466832
H     -2.791706    0.195361   -0.377679
C     -1.358125   -0.291928    1.319336
H     -0.914210    2.122615    0.854798
