15

C     -0.939429    0.631175   -0.915053
C      0.343787    0.482944   -0.165234
C      0.163492    0.031284    1.263100
C     -0.650436    1.018028    1.974702
N     -1.276515    1.807766    2.537439
H      1.172734   -0.056414    1.714915
H     -0.283258   -0.984794    1.283792
N      1.269861   -0.369386   -0.845286
C      1.091108   -1.607520   -1.029341
H      0.228836   -2.184585   -0.704505
H      1.897194   -2.132579   -1.572168
H      0.827502    1.505213   -0.165444
H     -1.826829    0.540369   -0.242139
H     -1.032117   -0.234608   -1.623910
H     -0.985929    1.553107   -1.510868
