19

C      2.098227    0.898408   -0.063372
C      1.375901   -0.134495   -0.904245
H      1.459987    0.029365   -1.976647
C      1.281155   -1.531822   -0.443939
H      1.897590   -1.778077    0.460149
H      1.240569   -2.361814   -1.160155
C      0.101462   -0.637756   -0.328636
O     -0.322251   -0.228485    0.922177
C     -1.697719   -0.133064    0.931414
C     -2.206641    0.850659   -0.075644
H     -3.200650    1.253688    0.223872
H     -1.528243    1.723737   -0.184382
H     -2.385708    0.349374   -1.064873
H     -2.097376    0.152485    1.925203
H     -2.184244   -1.120449    0.693848
H     -0.696936   -0.809827   -1.070678
H      2.966565    1.331304   -0.612546
H      2.482013    0.402346    0.861861
H      1.416300    1.744423    0.162702
