16

C      1.649694   -0.104178    0.519699
C      0.283169   -0.282700    1.092913
C     -0.828000    0.033110    0.121751
C     -0.797077    1.417495   -0.370757
N     -0.698787    2.187906   -1.433640
O     -0.826234    2.801898   -0.278723
C     -0.860790   -0.982386   -0.998407
H     -0.509135   -0.482493   -1.935974
H     -1.876858   -1.388925   -1.179518
H     -0.187036   -1.823831   -0.723633
H     -1.785211   -0.099251    0.694539
H      0.165889   -1.371455    1.349179
H      0.161221    0.254792    2.052339
H      1.668678    0.668061   -0.291271
H      2.075503   -1.034429    0.072305
H      2.364973    0.206388    1.309198
