15

C     -2.168540    0.149988    0.451604
C     -0.726436   -0.027968    0.421999
H     -0.273621   -0.136537    1.464961
N      0.122799    0.520503   -0.625833
C      1.459029    0.857565   -0.327733
H      1.908725    1.066500   -1.383585
H      1.609181    1.700169    0.312650
C      2.044699   -0.456591   -0.037449
H      3.101218   -0.731514    0.338777
N      1.241710   -1.433531   -0.192294
C     -0.001890   -0.891751   -0.589561
H     -0.524217   -1.393197   -1.422450
H     -2.456626    0.609524    1.479096
H     -2.758259   -0.784430    0.359939
H     -2.577770    0.951270   -0.250121
