12

C      0.130430   -1.135721    0.838165
C     -0.588870   -0.097684    0.033627
C      0.231262    0.370396   -1.120052
N      1.202548    1.173791   -1.032179
H      1.723551    1.448737   -1.894614
H     -0.021232   -0.003278   -2.108160
C     -0.909799    1.050270    0.912116
N     -1.172940    1.935413    1.606580
H     -1.543189   -0.527605   -0.325035
H      0.230709   -0.862666    1.904756
H     -0.437279   -2.083145    0.799283
H      1.154808   -1.268507    0.385512
