14

C      0.092696    1.232484   -0.778952
H     -0.161075    0.747547   -1.753007
H      0.389132    2.290579   -0.777434
C     -0.609310    0.704788    0.414892
C     -1.582544   -0.447341    0.305898
H     -2.526954   -0.216849    0.842072
H     -1.814342   -0.692988   -0.743139
H     -1.090527   -1.328098    0.760677
H     -0.769325    1.414770    1.271937
C      0.865218    0.368414    0.183068
O      1.117131   -0.933297   -0.162978
C      2.199230   -1.468265   -0.056044
H      2.275258   -2.498448   -0.361311
H      1.615412    0.826704    0.854321
