15

C     -0.800254   -1.194741   -0.541906
C     -0.580082   -0.092955    0.453593
C     -0.887687    1.252480   -0.169004
H     -0.762211    1.129795   -1.263552
H     -1.959629    1.527917   -0.019712
H     -0.219652    2.045612    0.182795
C      0.715995   -0.132044    1.121753
C      1.760878    0.261921    0.430298
N      2.773209    0.551992   -0.297909
H      3.130649   -0.264406   -0.876878
H      0.934260   -0.448683    2.128590
H     -1.363915   -0.233676    1.255772
H      0.114677   -1.555118   -1.009255
H     -1.358116   -2.054127   -0.076469
H     -1.498119   -0.793968   -1.318117
