10

O      1.975868    0.013484   -0.898156
C      0.826104    0.321530   -0.189631
C      0.322075    0.642238    1.085082
H      0.578720    0.801585    2.111416
C     -0.623741    0.574066   -0.001975
N     -1.497830   -0.566537   -0.090231
N     -1.440283   -1.212272   -1.323839
H     -1.486060   -1.187829    0.719531
H     -0.995336    1.539181   -0.415733
H      2.340482   -0.925445   -0.996464
