15

C     -1.704099   -0.410575    0.283849
C     -0.415020    0.013333   -0.438896
O     -0.686329    0.780515   -1.511933
H     -0.996290    1.685953   -1.266297
C      0.535363    0.670110    0.575277
H      0.308673    0.328537    1.557956
H      0.422899    1.793204    0.473226
N      1.774047    0.237663   -0.007201
H      2.509017    0.478524    0.777186
N      1.618674   -1.148502   -0.031328
H      2.333473   -1.636701   -0.628796
C      0.364006   -1.252920   -0.819297
H     -2.556218    0.241106    0.043530
H     -1.971983   -1.470348    0.066216
H     -1.536213   -0.309898    1.379607
