14

C     -0.731110    1.073268   -0.179020
H     -1.119173    1.355290    0.828380
H     -1.127684    1.695400   -0.988272
C      0.769645    0.835103   -0.284871
C      1.504833    0.867155    0.987486
N      2.083843    0.910984    2.003281
H      1.307592    1.171283   -1.172271
C     -0.232586   -0.282612   -0.478735
O     -0.476424   -0.731667   -1.780659
H     -1.439211   -0.529322   -1.961460
C     -0.167249   -1.360338    0.550491
H      0.611273   -1.163284    1.318717
H     -1.114813   -1.526170    1.095932
H      0.131064   -2.315090    0.061000
