11

N      0.844105   -0.997408   -0.331254
H      0.805427   -2.008633   -0.514029
C      0.342768    0.393137   -0.398284
C     -0.935930    0.565490    0.388205
O     -1.926945   -0.265192   -0.107506
H     -1.608647   -1.121957   -0.443221
H     -1.287441    1.617987    0.188997
H     -0.747728    0.424258    1.472756
H      0.351029    0.771561   -1.429531
C      1.560930    0.147239    0.262050
O      2.602432    0.473519    0.911817
