14

C     -2.362509    0.105919    0.169391
C     -1.065371   -0.647124    0.308267
O     -1.048313   -1.794910    0.699089
C      0.167783    0.077834   -0.052273
N      1.303003   -0.818180    0.150169
C      2.525387   -0.429972   -0.061477
O      2.691356    0.887802   -0.491912
H      1.890878    1.451260   -0.780887
H      3.380443   -1.094528    0.087723
H      0.145926    0.444475   -1.102240
H      0.307366    0.947292    0.614654
H     -3.236791   -0.565335    0.294094
H     -2.338179    0.875816    0.994138
H     -2.360977    0.559651   -0.828736
