16

C     -0.863811    0.994072   -0.843103
C     -0.144260   -0.075270   -0.024190
C     -1.153420   -0.968957    0.664939
H     -1.663236   -1.587341   -0.101647
H     -1.933902   -0.281310    1.084545
H     -0.744263   -1.533129    1.499355
C      0.906093   -0.705664   -0.757183
H      0.941128   -1.393749   -1.633509
C      1.836295   -0.191865   -0.037186
H      2.944808   -0.311600   -0.114028
C      0.900520    0.517856    0.804960
H      0.978488    0.149043    1.866846
H      0.986122    1.650376    0.777200
H     -1.629578    0.509443   -1.461269
H     -1.281255    1.791756   -0.221966
H     -0.079730    1.436339   -1.503763
