13

C      1.979226   -0.269367    0.107453
C      0.715607   -0.167919   -0.197767
C     -0.455870   -1.068625   -0.474086
H     -0.262127   -1.549863   -1.478196
H     -0.703636   -1.818666    0.243304
N     -1.391952    0.034265   -0.577201
C     -1.328319    0.874643    0.600927
H     -1.196766    0.302974    1.631788
H     -2.153978    1.617554    0.705123
C     -0.243874    0.942414   -0.283519
H     -0.009236    1.764390   -0.957408
H      2.625458    0.591592    0.290081
H      2.425467   -1.253391    0.389501
