12

C      2.254258    0.158613    0.058535
C      0.813778    0.074856    0.316402
C     -0.385724   -0.120340    0.777791
C     -1.534083    0.334717   -0.042650
O     -2.323955   -0.796167   -0.336899
H     -2.670330   -1.226329    0.459662
H     -2.195170    1.030281    0.509005
H     -1.210356    0.732758   -1.019355
O     -0.651215   -0.731356    1.996335
H      2.849564   -0.393334    0.818460
H      2.607347    1.210326    0.062666
H      2.445886   -0.274027   -0.952184
