12

C     -1.572427    0.153928   -0.387359
H     -2.467021    0.261737   -0.919857
C     -1.091435   -0.477653    0.593959
H     -1.444109   -1.199782    1.387673
C      0.266937   -0.104560    0.485346
O      1.162003    0.084637    1.493091
H      1.762049   -0.637442    1.680521
C      0.911024   -0.165398   -0.846800
H      0.830037   -1.015029   -1.385331
H      1.864475    0.434763   -0.969639
C     -0.224045    0.759154   -0.564922
H      0.002513    1.905646   -0.566684
