16

C     -1.254658   -1.460563   -0.222580
C     -0.628317   -0.107897   -0.146530
C      0.719098    0.247437   -0.604979
C      1.806088   -0.515369    0.110072
H      1.306947   -1.194751    0.834685
H      2.416983    0.194786    0.704874
H      2.487477   -1.045242   -0.570173
H      0.778673    0.121899   -1.713173
C      0.823020    1.696472   -0.294168
C     -0.293988    2.121372    0.261072
H     -0.518000    3.136834    0.598949
N     -1.229398    1.070632    0.383541
H     -2.202593    1.117804    0.788657
H     -2.361117   -1.411219   -0.212349
H     -0.934897   -2.039840    0.679952
H     -0.915317   -1.932355   -1.167456
