12

O     -1.772290   -0.861609    0.057819
C     -1.487725    0.511232    0.046136
C     -0.332649    0.742183    0.896242
C      0.710048   -0.030684    0.674089
C      1.718764   -0.806697    0.342806
O      2.538281   -0.301938   -0.616635
H      3.360612    0.224830   -0.312378
H      1.749549   -1.714318    0.869979
H     -0.180843    1.435108    1.674559
H     -2.389889    0.998325    0.515590
H     -1.403676    0.916064   -0.979079
H     -2.510181   -1.112498   -0.521358
