14

C     -1.698782    0.280576   -0.587149
C     -0.503642    0.174407    0.307455
O     -0.810063   -0.331510    1.573999
H     -0.327055   -1.150061    1.796748
C      0.571777   -0.672377   -0.255017
C      1.830108   -0.356184   -0.118747
O      2.138948    0.805859    0.573828
H      2.043408    1.677118    0.067717
H      2.604624   -0.980109   -0.532383
H      0.298291   -1.577007   -0.792698
H     -0.118743    1.225340    0.455781
H     -1.941332    1.311232   -0.887265
H     -1.489158   -0.282286   -1.533886
H     -2.598380   -0.124997   -0.068383
