13

C     -1.783092   -0.049491    0.236449
N     -0.519744   -0.227635   -0.451412
C      0.456950    0.569389    0.219394
C      1.703356    0.209194    0.360638
O      2.188328   -0.983850   -0.130845
H      2.794615   -0.985992   -0.965438
H      2.391276    0.853280    0.876053
O      0.001455    1.785258    0.730478
H     -0.575789    0.130205   -1.439681
H     -0.255508   -1.235547   -0.488859
H     -1.656176    0.503283    1.200527
H     -2.223344   -1.039447    0.537434
H     -2.522328    0.471355   -0.400251
