18

C     -1.816078   -0.645358    0.188734
C     -0.608249    0.245534    0.487354
N      0.615033   -0.349707    0.116589
C      0.805078   -0.692767   -1.231998
H     -0.087423   -1.198042   -1.628303
H      1.652825   -1.433593   -1.295440
H      1.095744    0.138779   -1.902943
C      1.760801    0.024723    0.861029
H      2.548444   -0.752328    0.714522
H      1.471750    0.018438    1.953490
H      2.150815    1.033880    0.644470
C     -0.828437    1.594130   -0.118910
O     -1.834298    2.245219    0.098388
H     -0.089685    2.030661   -0.774389
H     -0.602100    0.397310    1.588749
H     -2.515532   -0.675728    1.047474
H     -1.417873   -1.666524   -0.002479
H     -2.300815   -0.314626   -0.746337
