10

C     -1.260612   -0.387763    0.354410
C     -0.220765    0.672385    0.431406
C      1.019822    0.511359   -0.007263
C      1.373259   -0.796568   -0.601821
H      2.440741   -1.050706   -0.502127
H      1.708854    1.342929    0.091763
H     -0.493756    1.626721    0.869846
H     -1.916952   -0.275515    1.236046
H     -0.747535   -1.365949    0.394983
H     -1.903056   -0.276893   -0.541424
