11

N      1.818383    0.089739   -0.263165
C      0.518909    0.388612    0.311392
H      0.609744    1.086248    1.178617
C     -0.155707   -0.812845    0.830821
N     -1.282882   -0.922850    0.231098
H     -2.024767   -1.675098    0.362211
C     -1.426144    0.150005   -0.685765
H     -2.315202    0.282565   -1.328441
N     -0.399610    0.916095   -0.654647
H      2.344796   -0.504450    0.400606
H      2.312481    1.001980   -0.382727
