15

O      2.704571   -0.732042   -0.987567
C      2.182013   -0.581198    0.088175
C      1.007353    0.323362    0.218384
C     -0.110204   -0.297535   -0.606622
C     -1.355257    0.541735   -0.545165
C     -2.472578    0.015830   -0.061053
H     -3.373118    0.613997   -0.013633
H     -2.487721   -1.009175    0.286878
H     -1.350512    1.567835   -0.890603
H      0.236459   -0.308282   -1.658589
H     -0.335455   -1.312359   -0.246623
O      0.555405    0.357295    1.539665
H      1.009795    1.038372    2.081734
H      1.238792    1.328131   -0.174584
H      2.550455   -1.092866    0.969605
