12

O      1.876290    1.633280   -1.008491
C      1.299847    0.668299   -0.909430
C      0.572760   -0.560246   -0.759166
C      0.944406   -1.611558   -1.454304
H      0.455274   -2.573502   -1.403105
N     -0.513644   -0.622314    0.118459
C     -1.033335    0.474526    0.828769
C     -0.390723    0.944018    1.860618
H      0.533211    0.487086    2.159926
H     -0.787057    1.797077    2.419507
H     -1.954727    0.914607    0.514048
H     -1.002301   -1.551273    0.280939
