16

C     -1.505734    0.446568   -0.755832
C     -0.595452    0.172850    0.417837
H     -0.694121    0.907934    1.251315
C     -0.474124   -1.203562    0.884725
H     -1.112052   -1.937858    0.303689
H     -0.615676   -1.391786    1.982484
O      0.816753   -1.293251    0.482343
C      0.816550   -0.021170    0.012428
O      1.014828   -0.020108   -1.384251
H      1.592098   -0.787021   -1.618822
N      1.703720    0.912304    0.697222
H      1.461333    1.859744    0.327806
H      2.701016    0.659010    0.525821
H     -1.049078   -0.000287   -1.658242
H     -1.513698    1.555034   -0.890614
H     -2.546363    0.141599   -0.577909
