13

N      2.222327    1.125615    0.294477
C      1.276336    0.244034    0.127067
O      1.304188   -0.964585   -0.520328
C     -0.025533   -1.189161   -0.219637
H     -0.167780   -2.042623    0.511927
H     -0.703373   -1.357591   -1.084007
C     -0.127113    0.096583    0.491848
N     -0.963473    1.117226   -0.112001
C     -2.360307    0.909432    0.296407
H     -2.432204   -0.100536    0.751390
H     -0.873373    1.171424   -1.129681
H     -0.310829    0.035006    1.583253
H      3.161136    0.955175   -0.091705
