17

C      0.209689    1.519027    0.150749
C     -0.159675    0.062488   -0.015705
C      1.035409   -0.828066   -0.340464
O      2.002402   -0.800729    0.633065
H      2.910860   -0.730215    0.218956
H      1.480710   -0.371536   -1.272743
H      0.699146   -1.842553   -0.631412
C     -1.257663   -0.221558   -0.985462
H     -1.026355   -0.981693   -1.764757
H     -1.682336    0.726170   -1.396594
C     -2.112508   -0.728034    0.126683
C     -1.018469   -0.445338    1.096844
H     -1.326142    0.391072    1.769354
H     -0.615024   -1.325139    1.648725
H      0.069807    1.776527    1.238217
H     -0.479159    2.144687   -0.413546
H      1.269308    1.654893   -0.061910
