9

C      0.060241   -0.497374   -0.291818
C      1.111719    0.541489   -0.053921
O      2.041026    0.333339    0.700850
H      1.003288    1.491374   -0.590764
C     -1.228425   -0.068659    0.294341
O     -1.310555    1.001388    0.850751
H     -2.108619   -0.687526    0.234207
H      0.388916   -1.449603    0.241834
H      0.042409   -0.664429   -1.385480
