15

C      2.573901   -0.564621   -0.268531
N      1.248603   -0.062843   -0.094655
C      0.952627    1.235525    0.120377
H      1.624885    2.089186    0.196779
C     -0.418304    1.324998    0.236441
H     -1.003324    2.217424    0.412843
C     -0.919797    0.048496    0.084437
C     -2.326150   -0.421241    0.120121
H     -3.051955    0.398247    0.162773
H     -2.489938   -0.968015   -0.850368
H     -2.508558   -1.168045    0.918969
N      0.128709   -0.769495   -0.115663
H      0.062084   -1.819389   -0.266597
H      3.378381    0.056937   -0.573321
H      2.748834   -1.597163   -0.083605
