19

C     -2.331832   -0.685752   -0.416301
C     -1.026055   -0.258619   -1.098536
C     -0.363849    0.704688   -0.159003
H     -0.851049    1.715797   -0.155651
C     -0.042426    0.097648    1.219583
H     -0.170121   -0.989270    1.344548
H     -0.355149    0.720884    2.073067
C      1.026035    0.592325    0.274162
C      1.971026   -0.440321   -0.221145
C      3.314194   -0.235639    0.456233
H      3.197480    0.358899    1.399469
H      1.656285   -1.478002    0.030701
H      2.145962   -0.342401   -1.330532
H      1.519067    1.559951    0.579581
H     -1.300942    0.277263   -2.017618
H     -0.434317   -1.166786   -1.288076
H     -3.049090   -1.106238   -1.117140
H     -2.125833   -1.307865    0.467832
H     -2.779383    0.279548   -0.041173
