18

C      0.208721    0.426924    1.082624
H      0.751796    1.371138    1.164128
H     -0.455422    0.247267    1.915341
C      1.176388   -0.641194    0.799244
H      0.703319   -1.632382    1.015845
H      2.141441   -0.576570    1.295548
C      1.342970   -0.541481   -0.761920
H      1.478650   -1.656291   -1.055640
H      2.323133    0.013979   -1.006145
N      0.170208    0.094512   -1.260768
H      0.548969    0.971092   -1.748921
C     -0.629938    0.537541   -0.228359
O     -1.276123    1.732779   -0.341855
H     -0.901322    2.470005   -0.845441
C     -1.737192   -0.572039   -0.025108
H     -1.948149   -0.883014   -1.070719
H     -1.333963   -1.315388    0.654380
H     -2.563486   -0.046879    0.417766
