15

C     -1.674140   -0.968910    0.262866
H     -2.055756   -1.283199   -0.710113
H     -2.117793   -1.397922    1.180535
C     -0.228035   -0.533003    0.383300
O      0.509807   -0.683359   -0.800400
C      1.865697   -0.330861   -0.875704
C      2.402500    0.480326    0.014883
H      1.777972    0.871672    0.808366
H      3.436734    0.726489   -0.073700
H      2.432495   -0.744243   -1.675610
H      0.280258   -0.709831    1.362361
C     -1.268949    0.532259    0.369417
O     -1.433555    1.299433   -0.762394
H     -2.347920    1.698942   -0.798094
H     -1.579314    1.042208    1.314287
