12

C     -1.544918   -0.000629    0.098007
C     -0.081772    0.157999    0.017803
C      0.621126    1.251946    0.087104
H      0.248242    2.242764    0.216806
N      1.983198    0.909864   -0.039431
N      2.156186   -0.322290   -0.181434
C      0.881278   -0.974967   -0.166061
H      0.818000   -1.645259    0.717291
H      0.679459   -1.488623   -1.122718
H     -2.102539    0.885930   -0.297121
H     -1.837918   -0.887993   -0.494603
H     -1.820344   -0.128742    1.164357
