16

C      2.442455    0.271263   -0.529055
C      1.103364   -0.317814   -0.790379
C     -0.010481    0.297731    0.010540
C     -1.263762   -0.409291   -0.377485
C     -2.539373    0.001334    0.268648
H     -3.143476   -0.869645    0.572549
H     -3.121896    0.566991   -0.495908
H     -2.376106    0.666114    1.131823
O     -1.297963   -1.309581   -1.199580
H      0.114669    0.120023    1.107308
H     -0.169788    1.363099   -0.201066
H      1.062723   -1.421115   -0.594649
H      0.809180   -0.216741   -1.869948
H      2.684196    0.953729   -1.391465
H      2.524836    0.865138    0.376373
H      3.181422   -0.561233   -0.474828
