10

C     -1.971540   -0.947300    0.643965
C     -0.850410   -0.847115    0.425287
C      0.623474   -0.701132    0.114775
C      0.842752    0.732520   -0.042476
N      0.385404    1.584571    0.792607
H      0.587002    2.570681    0.605712
H      1.424602    1.059872   -0.930885
H      0.805204   -1.261976   -0.844380
H      1.202882   -1.159020    0.917206
H     -3.049371   -1.031100    0.868137
