17

C     -1.925958    0.449500   -0.002129
C     -1.271695   -0.886408    0.326883
C      0.024813   -1.059488   -0.428521
C      0.987270    0.040847   -0.058173
C      0.907350    1.053357    0.754551
H      0.095819    1.404914    1.419910
O      2.169463    1.455924    0.445132
C      2.345360    0.413323   -0.437423
H      3.143340   -0.323602   -0.206519
H      2.445881    0.843243   -1.484490
H     -0.152206   -1.084574   -1.519288
H      0.461199   -2.027799   -0.127462
H     -0.987110   -0.895173    1.418233
H     -1.970978   -1.711739    0.143281
H     -2.843287    0.274687   -0.628616
H     -2.207124    0.938817    0.945417
H     -1.222138    1.114170   -0.560786
