10

C      2.156750   -0.242538    0.623934
O      1.306381    0.685122   -0.046801
C     -0.046496    0.509688   -0.135495
C     -1.237706    0.337176   -0.212329
C     -2.655931    0.156457   -0.298203
O     -3.324232   -0.631510    0.408265
H     -3.185798    0.746580   -1.029214
H      2.240606    0.002410    1.706931
H      1.616672   -1.224312    0.586546
H      3.129754   -0.339074    0.122186
