15

C      2.430230    0.121032   -0.141108
C      0.957913   -0.041592   -0.300748
C      0.033630    0.869178   -0.337294
C     -1.157906    0.518350   -0.030603
N     -2.119676    1.414058    0.367792
H     -2.819580    1.174308    1.132768
H     -2.187741    2.362387    0.028236
C     -1.170310   -0.946125   -0.031276
H     -1.288042   -1.222063    1.084046
H     -1.894047   -1.423498   -0.692981
N      0.211069   -1.281005   -0.238201
H      0.639470   -2.236063   -0.377311
H      2.733569   -0.386722    0.809135
H      2.554331    1.212783    0.138120
H      3.077092   -0.135028   -0.957475
