12

O      2.399235    0.076617   -1.034437
C      1.344775    0.946184   -0.817254
C      0.503001    0.385532    0.318204
H      0.881043    0.680256    1.336295
C     -0.971537    0.635751    0.175353
H     -1.469086    0.950593    1.131412
H     -1.275797    1.266875   -0.680253
C     -1.097698   -0.843176    0.008056
H     -1.427224   -1.104260   -1.031204
H     -1.607220   -1.403288    0.797462
O      0.281127   -0.965659    0.153160
H      2.439383   -0.625425   -0.356793
