16

O      2.142136    0.604541    0.482575
C      1.767375   -0.588691   -0.102736
C      0.380837   -0.421659   -0.717008
C     -0.596434   -0.049234    0.377434
C     -1.975805    0.118068   -0.227492
H     -2.658295    0.536882    0.538647
H     -1.889210    0.864449   -1.027778
H     -2.401969   -0.839961   -0.558456
C     -0.164599    1.269571    0.980628
H     -0.732507    2.096752    0.497904
H     -0.655802   -0.832087    1.140860
H      0.068533   -1.366153   -1.206951
H      0.393482    0.355542   -1.487262
H      2.509074   -0.880446   -0.848008
H      1.681640   -1.380488    0.684941
H      2.131546    0.512913    1.472702
