15

C     -0.468221   -1.263457   -0.832548
C     -0.178035    0.214412   -0.667431
H      0.120513    0.620371   -1.659209
C     -1.339848    0.912923   -0.092433
H     -2.329034    1.000180   -0.581558
O     -0.994620    1.430578    1.135348
C      0.193403    1.169314    1.421041
H      0.677599    1.484338    2.350382
C      0.882193    0.390158    0.376119
O      1.310374   -0.853737    0.838429
H      2.077088   -1.172085    0.290195
H      1.756668    0.962623   -0.013190
H      0.421549   -1.874267   -0.675143
H     -0.910867   -1.483005   -1.824145
H     -1.218761   -1.538345   -0.065856
