10

C      2.356811    0.600328    0.079952
O      1.417417   -0.213738    0.254388
C      0.126732    0.246426    0.042669
O     -0.077668    1.436765   -0.310373
C     -1.014002   -0.699773    0.242384
O     -2.181341    0.001596   -0.030227
H     -2.041850    0.919146    0.350706
H     -0.906118   -1.597804   -0.411410
H     -1.080473   -1.052886    1.294235
H      3.400494    0.359939    0.213495
