11

C     -1.228854    0.341789   -0.395274
C     -0.393343   -0.740488    0.243700
H     -0.916685   -1.265397    1.068672
C      1.022237   -0.430795    0.456978
C      1.613599    0.759148   -0.117275
N      2.084412    1.681362   -0.580878
H      1.553407   -0.842799    1.330756
O      0.573596   -1.400143   -0.471768
H     -0.567617    1.080582   -0.879626
H     -1.982235   -0.074870   -1.074134
H     -1.758517    0.891610    0.418848
