11

N      1.864785    0.019461   -0.181692
C      0.641139    0.166440    0.539355
O      0.676953    0.383388    1.772154
C     -0.678907    0.072304   -0.114956
C     -0.774377   -1.272923   -0.800872
H     -1.808907   -1.564141   -1.032202
O     -1.675755    0.251591    0.809720
H     -2.082888    1.152834    0.777086
H     -0.731117    0.847239   -0.907499
H      2.407273   -0.864178   -0.063589
H      2.161801    0.807985   -0.797506
