17

C     -1.519052   -0.556849   -0.467278
H     -2.472832   -0.081486   -0.254043
H     -1.521021   -1.409693   -1.181167
C     -0.386944    0.392996   -0.872806
H     -0.274063    0.640581   -1.888161
C     -0.416532    1.414305    0.209376
H     -1.323276    2.044847    0.179437
H      0.520061    1.977796    0.252093
C     -0.574694    0.490429    1.435937
C     -0.624771   -0.832159    0.722414
H     -0.710003   -1.737271    1.252010
C      0.535426   -0.674462   -0.270591
C      1.785756   -0.133689    0.342102
H      1.589263    0.264304    1.356777
H      2.528437   -0.954440    0.425349
H      2.216075    0.688951   -0.282982
H      0.648171   -1.534159   -0.958469
