17

O      2.981256    0.695859    0.603956
C      2.688220   -0.565187    0.113248
C      1.489748   -0.886373   -0.317615
C      0.380486    0.083208   -0.303552
C     -0.790537   -0.363775    0.536753
C     -1.817235    0.736645    0.436015
C     -3.018637    0.509199   -0.050748
H     -3.707140    1.339921   -0.095709
H     -3.260396   -0.497161   -0.382571
H     -1.491849    1.705308    0.788656
H     -1.177713   -1.313245    0.121191
H     -0.553987   -0.454098    1.605507
H      0.712426    1.107033   -0.058190
H     -0.009882    0.161196   -1.357353
H      1.302630   -1.882312   -0.693162
H      3.467688   -1.314609    0.081188
H      2.804923    0.938391    1.569126
