16

C     -1.998243    0.310579    0.501906
C     -0.901263    0.599969   -0.500001
N     -0.206666   -0.608881   -0.778491
C      0.881642   -0.544429   -1.715555
H      0.913604   -1.381834   -2.429457
H      1.171737    0.463936   -2.060655
C      1.089319   -0.891712   -0.235740
C      1.859624    0.102767    0.498785
O      2.704303   -0.258604    1.290052
H      1.709035    1.159723    0.367415
H      1.304451   -1.968874   -0.043793
H     -1.390178    0.940532   -1.449165
H     -0.241549    1.421454   -0.170314
H     -1.839101   -0.672980    0.996030
H     -2.982840    0.244253   -0.007243
H     -2.073877    1.084100    1.279103
