10

O     -2.037447    0.488191   -0.977096
C     -1.563905   -0.342100   -0.207237
C     -0.331358    0.010927    0.537335
H     -0.546582   -0.005231    1.625846
N      0.112036    1.333407    0.206483
N      1.281699    1.240003   -0.272096
C      1.713077   -0.112597   -0.303538
H      2.679550   -0.491294   -0.665796
N      0.765562   -0.838216    0.172326
H     -2.072631   -1.283089   -0.116228
