8

C      0.722024   -0.264374    0.069741
H      1.350416   -0.805652   -0.680319
H      1.249734   -0.027743    0.994349
C     -0.700977   -0.333033    0.034301
H     -1.291032   -0.997635   -0.654670
H     -1.286080   -0.073436    0.938185
N     -0.062742    0.798225   -0.587345
H      0.018658    1.703648   -0.114243
