17

C      2.413148   -0.442528   -0.383653
C      1.480830    0.680865   -0.194339
C      0.169980    0.479383   -0.008157
C     -0.873729    1.467416    0.191660
H     -0.760022    2.538979    0.222859
C     -2.038421    0.863325    0.337931
H     -2.990290    1.350499    0.501564
C     -1.872708   -0.609296    0.247088
H     -2.502230   -1.034751   -0.565590
H     -2.152657   -1.096556    1.218272
C     -0.426498   -0.853009    0.020791
H      0.051045   -1.523513    0.760203
H     -0.305411   -1.371269   -0.970667
H      1.776727    1.733069   -0.191127
H      3.438626   -0.028105   -0.474044
H      2.157382   -1.074552   -1.251127
H      2.434228   -1.079957    0.538338
