13

C     -1.141224    0.716295   -0.018099
H     -2.023702    0.952286   -0.637356
H     -1.261081    1.054107    1.018529
C     -0.785270   -0.723078   -0.185936
H     -1.425532   -1.405432   -0.787226
C      0.710348   -0.729970   -0.377484
H      1.074752   -1.256928   -1.267405
C      1.184421    0.664788   -0.055121
H      1.166870    0.842564    1.041105
H      2.145259    0.926144   -0.513242
C      0.029209    1.485130   -0.619500
N      0.084723   -1.415579    0.714809
H      0.241227   -1.110328    1.686927
