10

O      2.087380    0.093270   -0.373819
C      0.712399   -0.065072   -0.157115
N      0.084428   -1.180979   -0.105133
C     -1.298903   -0.967228    0.129683
H     -2.061705   -1.758181    0.218254
N     -1.509136    0.291080    0.220563
C     -0.278432    1.004197    0.052327
H     -0.014456    1.630352    0.935587
H     -0.382879    1.655508   -0.862996
H      2.661304   -0.702946   -0.057351
