9

C     -1.009967    0.049930   -0.001428
H     -1.505892   -0.129437    0.986275
H     -1.630795    0.720007   -0.639537
O     -0.715369   -1.167052   -0.601062
C      0.496408   -1.348755   -0.675791
C      1.204210   -0.222057   -0.108218
H      2.291346   -0.123522   -0.045585
C      0.298385    0.640531    0.307961
H      0.571674    1.580355    0.777384
