14

O      1.411469   -0.533496   -1.167848
C      2.390651   -0.749182   -0.226656
N      2.537032    0.116893    0.711966
H      1.913380    0.953950    0.733998
H      3.008850   -1.645825   -0.307919
C      0.370694    0.357358   -1.027046
C     -0.685467    0.143856   -0.277344
C     -2.000736    0.655326    0.234188
H     -1.863250    1.579417    0.844820
H     -2.815634    0.791622   -0.520282
C     -1.521149   -0.651610    0.656115
H     -1.174078   -0.767990    1.711833
H     -1.995560   -1.539421    0.199032
H      0.423801    1.289103   -1.564856
