12

C     -1.136468   -0.714927   -0.152401
C      0.000249    0.047240    0.425632
C      1.297767   -0.123047   -0.310554
H      2.105184    0.288198    0.361133
H      1.494240   -1.137523   -0.646358
H      1.270815    0.603571   -1.170686
N     -0.285329    1.437452    0.475491
C     -0.515914    2.570664    0.527719
H      0.184925   -0.294502    1.481849
H     -1.412364   -1.625521    0.419024
H     -2.027388   -0.023554   -0.198092
H     -0.975716   -1.028050   -1.212758
