13

C     -1.312493   -0.481533   -0.124055
H     -0.995416   -1.518051   -0.259356
H     -2.379564   -0.320586    0.118375
C     -0.393029    0.429813    0.604123
H     -0.145869    0.424353    1.579782
O     -0.932503    1.463553   -0.129082
C     -0.751735    0.484853   -1.118514
H     -1.030399    0.589609   -2.084315
C      0.586023    0.268158   -0.543262
O      1.101650   -0.978499   -0.535727
C      2.198062   -1.141429   -0.024360
H      2.768287   -0.331356    0.419755
H      1.286985    1.111113   -0.632134
