14

C      1.318749   -0.770799    0.246670
H      0.930873   -1.125854   -0.724104
H      2.103983   -1.451746    0.658642
C      1.683360    0.695287    0.387731
H      2.593933    0.974518    0.912440
H      1.395744    1.305251   -0.480944
C      0.546732    0.022705    1.194670
C     -0.776929    0.615960    0.945708
C     -1.542976    0.091744   -0.207347
O     -2.906420    0.400815    0.010665
H     -3.476407   -0.383913   -0.022981
H     -1.418365   -0.987854   -0.393985
H     -1.265398    0.699334   -1.112402
H      0.813122   -0.085448    2.286549
