11

C      0.436624   -0.663297    0.409101
H      0.638290   -1.426100    1.056744
C      1.419533    0.073199   -0.565722
H      2.420705    0.290809   -0.163521
H      1.246403   -0.074298   -1.637978
C      0.240830    0.692338    0.260727
H      0.195816    1.599531    0.726850
C     -0.942749   -0.229465   -0.194289
O     -2.004051   -0.346164    0.680823
H     -2.580099    0.445148    0.703045
H     -1.071303   -0.361702   -1.275778
