13

C     -1.691325   -0.404595   -0.246194
C     -0.750387    0.563224    0.481770
C      0.340456    0.994384   -0.427513
H      0.600722    2.088060   -0.380392
H      0.258099    0.626612   -1.486054
C      1.243961    0.221881    0.431786
O      2.620444    0.011844    0.360809
H      2.817071   -0.782698   -0.225411
N      0.184532   -0.158015    1.259389
H      0.059742   -1.174755    1.385047
H     -1.145469   -0.907376   -1.097991
H     -2.592181    0.119740   -0.568253
H     -1.945665   -1.198307    0.513007
