15

C     -1.369188    1.325687   -0.466356
C     -0.451973    0.225935   -0.013188
C     -0.986920   -1.033405    0.564319
H     -1.900551   -0.780216    1.151029
H     -1.176890   -1.783682   -0.226981
H     -0.285138   -1.497136    1.281744
C      0.857363    0.347014   -0.115227
O      1.398928    1.518852   -0.654253
H      1.333950    1.644931   -1.657004
C      1.712285   -0.713165    0.322713
C      2.447410   -1.597363    0.686286
H      3.105689   -2.363894    1.014817
H     -1.629005    1.071990   -1.527694
H     -0.779770    2.239422   -0.484102
H     -2.276190    1.395029    0.123894
