12

O      1.291110    2.147650    0.100579
C      0.646189    1.094832    0.070090
C      1.177412   -0.261962    0.070581
H      1.756786   -0.420463    1.016693
H      1.893482   -0.372493   -0.764074
N      0.098168   -1.188682    0.028789
H      0.202898   -1.943387   -0.681036
C     -1.120164   -0.473676    0.001123
H     -1.799712   -0.740113   -0.830492
H     -1.673988   -0.685409    0.950259
C     -0.799821    0.969863    0.026475
O     -1.672359    1.873840    0.011014
