17

C      2.569932    0.364382    0.237087
O      2.003808   -0.811786    0.658657
C      0.814612   -1.068721    0.014788
C     -0.207161   -0.011571    0.248844
O     -0.473895    0.098199    1.610957
C     -1.523025   -0.358589   -0.398717
C     -2.632949    0.625767   -0.235747
H     -3.231698    0.750507   -1.156001
H     -3.325765    0.264295    0.571416
H     -2.240484    1.630187    0.040569
H     -1.686812   -1.255623   -0.953487
H      0.118299    0.943566   -0.185444
H      1.052105   -1.131779   -1.071741
H      0.459687   -2.088930    0.285201
H      2.753064    0.316014   -0.865366
H      3.584030    0.484340    0.738388
H      1.966252    1.249744    0.460596
