12

C     -1.258627   -1.004304    0.014309
C     -0.169460   -0.084576   -0.037169
C      1.207648   -0.477491   -0.003989
N      2.156733    0.379801   -0.167726
H      3.169871    0.132541   -0.150226
H      1.509974   -1.501938    0.158486
C     -0.505534    1.156225   -0.115740
N     -0.674178    2.418795   -0.354225
H     -0.774610    2.894885    0.536086
H     -1.483670   -1.267489    1.078841
H     -2.209543   -0.686733   -0.447032
H     -0.968605   -1.959716   -0.511616
