11

C     -0.537071   -0.971964    0.142923
H     -0.576151   -1.357599    1.193281
H     -0.495473   -1.791366   -0.613082
N     -1.545065    0.005639   -0.049516
H     -2.591274    0.021737   -0.079617
C     -0.592168    1.012395   -0.195613
O     -0.648736    2.274661   -0.411520
C      0.476047    0.071644   -0.007856
C      1.797064    0.213350    0.002615
H      2.438516   -0.647077    0.165541
H      2.274311    1.168581   -0.147156
