13

C      1.047925    0.703155   -0.486106
C      2.250999    0.540490    0.011446
H      2.500005   -0.392602    0.485210
H      2.990332    1.326000   -0.047781
C      0.019611   -0.369082   -0.412025
N     -1.101762    0.145238    0.323239
C     -2.263411   -0.657881    0.565551
O     -2.243361   -1.832883    0.099175
H     -3.120826   -0.282649    1.120739
H     -1.118758    1.105082    0.704481
H     -0.232207   -0.653031   -1.452734
H      0.477181   -1.268981    0.050684
H      0.794271    1.637145   -0.961879
