13

N      2.295815   -0.335281    0.097421
C      0.902747   -0.336177    0.412220
H      0.663096   -0.346603    1.480828
O      0.247696   -1.433877   -0.335819
C     -0.062901    0.003650   -0.569038
C     -1.533039    0.180736   -0.216540
O     -1.965106    1.466734   -0.384116
H     -2.512100    1.794767    0.387441
H     -2.114096   -0.462779   -0.938838
H     -1.697998   -0.194372    0.806950
H      0.219327    0.316858   -1.586207
H      2.803876    0.527768    0.305844
H      2.752683   -1.181423    0.539853
