14

C      2.307388    0.196918    0.148906
C      0.906987    0.127885    0.665747
C     -0.036434   -0.639140   -0.232743
H      0.334057   -1.485588   -0.835384
C     -1.258534    0.097860   -0.690218
H     -1.718222   -0.085664   -1.666179
C     -1.402374   -0.810666    0.450847
H     -1.900857   -1.774286    0.433466
N     -1.875805    0.304622    1.187930
C     -1.717657    1.151260    0.231069
H     -1.738531    2.240596    0.135474
H      2.937782    0.590018    0.987017
H      2.745921   -0.798151   -0.093593
H      2.416282    0.884336   -0.722338
