15

C      3.064169   -0.008868    0.158302
C      1.804857   -0.352547    0.086543
C      0.505261   -0.427697    0.016647
C     -0.612445   -1.199675   -0.562479
H     -0.867139   -1.099913   -1.634075
H     -0.721515   -2.211449   -0.168168
C     -0.873237   -0.036309    0.287215
O     -1.452522   -0.354896    1.535897
H     -2.297692   -0.840658    1.295641
C     -1.341812    1.284794   -0.254436
H     -0.492501    2.019546   -0.370362
H     -2.064038    1.802882    0.422832
H     -1.820207    1.204419   -1.254947
H      3.613943   -0.420319    0.974004
H      3.554877    0.640690   -0.532614
