11

C     -1.169714   -0.822092   -0.031319
C     -0.007631    0.137942    0.200511
O      1.007609   -0.384465    0.942572
C      2.143406   -0.525395    0.524938
H      2.460057   -0.249352   -0.478669
O     -0.535770    1.385984    0.805341
C      0.060017    1.410237   -0.446597
O      0.373638    2.168595   -1.402186
H     -1.971015   -0.362528   -0.634386
H     -1.597508   -1.008756    0.995597
H     -0.763089   -1.750170   -0.475803
