16

C     -2.599266    0.494603   -0.998353
C     -1.333954    0.169473   -0.213712
O     -0.874555   -1.125392   -0.527042
C      0.262446   -1.597478    0.086959
N      1.019728   -0.761194    0.620770
C      1.860507    0.134534    0.952350
C      2.803952    0.542945   -0.145609
H      3.261110   -0.427748   -0.499818
H      2.276636    0.989034   -0.994946
H      3.643344    1.135399    0.242649
H      0.504999   -2.632910    0.116023
H     -1.585518    0.300315    0.855670
H     -0.524579    0.884826   -0.466669
H     -2.539149    0.191165   -2.047628
H     -3.487227    0.090320   -0.462180
H     -2.688473    1.612107   -0.975584
