10

O      2.315787    0.775588    0.132990
C      1.674534   -0.346755    0.683427
N      0.408564   -0.474696    0.004355
C     -0.698215    0.067335    0.751193
H     -0.634271    0.082393    1.844375
C     -2.009707   -0.023759    0.132725
H     -2.982465   -0.273070   -0.276784
N     -1.314522    1.215327    0.138088
H      0.227401   -1.422051   -0.375855
H      3.012893    0.399689   -0.484565
