11

C      1.790379   -0.256942   -0.091675
N      0.413272    0.076565    0.023147
C     -0.168286    1.237426    0.366610
H      0.356505    2.157429    0.625663
N     -1.497009    1.038168    0.326714
N     -1.760187   -0.203247   -0.028776
H     -2.708045   -0.612998   -0.134620
C     -0.574114   -0.802190   -0.217804
H     -0.479388   -1.852721   -0.522868
H      2.479906   -0.258496    0.730511
H      2.146968   -0.522994   -1.076902
