11

N      0.163679   -1.138002   -0.743811
C      1.204643   -0.505396   -0.382354
C      2.057453    0.384207    0.086514
H      2.307773    1.212253   -0.513594
H      2.449268    0.206354    1.070988
C     -1.136054   -0.735729   -0.320143
C     -1.175920    0.558515    0.384748
O     -2.219351    1.002224    0.789525
H     -0.265619    1.099838    0.532755
H     -1.754436   -0.600637   -1.256817
H     -1.631437   -1.483628    0.352189
