19

C     -2.443765    0.331084    0.015140
C     -1.753377   -0.973095    0.251260
C     -0.403806   -1.035475   -0.448335
C      0.490400    0.080832    0.077645
C      1.809004    0.086891   -0.548746
C      2.146560   -0.798990   -1.467864
C      2.802079    1.112803   -0.147217
H      3.597140    1.272498   -0.895554
H      2.248670    2.066316   -0.017424
H      3.274409    0.815820    0.834799
H      0.604178   -0.003836    1.173204
H     -0.065714    1.031553   -0.156453
H     -0.476148   -1.035479   -1.533729
H      0.069012   -1.990618   -0.138991
H     -1.526911   -1.023863    1.354448
H     -2.370435   -1.855489    0.037455
H     -2.548305    0.536372   -1.076325
H     -1.971724    1.149914    0.561160
H     -3.481266    0.232762    0.421636
