19

C     -1.855176   -0.202416    1.213475
C     -1.911315    0.196746   -0.192443
O     -3.151327    0.307979   -0.852315
H     -3.490855   -0.539669   -1.290975
C     -0.777136    0.447289   -0.818875
C      0.478647    0.316693   -0.088005
C      1.422213   -0.706261   -0.685434
C      2.677222   -0.735697    0.170357
H      3.591043   -0.573941   -0.411007
H      2.740224   -1.715050    0.711512
H      2.634486    0.039082    0.976276
H      0.954048   -1.709715   -0.758379
H      1.722948   -0.408750   -1.708190
H      0.390837    0.109664    0.969765
H      1.017217    1.306117   -0.176900
H     -0.755873    0.745730   -1.856066
H     -1.399805   -1.227879    1.303649
H     -1.383560    0.530996    1.883817
H     -2.903837   -0.336916    1.609735
