10

O      2.212289    0.471177   -0.219857
C      1.037546    0.088517    0.404288
C     -0.035430   -0.123540   -0.317307
O      0.026723    0.038682   -1.684541
C     -1.266413   -0.524703    0.338426
O     -2.002784    0.453992    0.939563
H     -2.573969    0.948420    0.277108
H     -1.599907   -1.550980    0.358797
H      1.060595   -0.020270    1.484880
H      3.141350    0.218705    0.144462
