14

C     -2.489182   -0.443453    0.443052
C     -1.031879   -0.437900    0.316825
C     -0.286531    0.652285    0.340812
C      1.162323    0.569875    0.208163
C      2.383723    1.088245    0.144198
H      2.949301    2.002646    0.169478
N      2.319219   -0.280843    0.038366
H      2.414238   -0.926056    0.869858
H      2.371047   -0.791752   -0.879000
H     -0.749179    1.619669    0.459790
O     -0.399602   -1.686174    0.160216
H     -2.929829   -0.329752   -0.579290
H     -2.823443   -1.399322    0.916556
H     -2.890207    0.362533    1.092288
