13

N      2.755248    0.812525   -1.397774
C      1.952672    0.115776   -0.916452
C      0.940857   -0.765096   -0.307596
H      0.937254   -1.793223   -0.677388
C      0.694971   -0.647804    1.191498
H      0.368638   -1.551306    1.743472
N     -0.144795   -0.116769    0.242577
C     -1.494517   -0.120813    0.045630
H     -2.001178   -0.288730   -0.929776
H     -2.209122   -0.251057    0.895510
C     -0.658240    1.158597    0.060355
H     -0.432927    1.646277   -0.921949
H     -0.708861    1.801622    0.971891
