12

N      2.640238   -1.032968    1.861769
C      1.671379   -1.024606    1.226815
C      0.451479   -1.029034    0.431119
C     -0.152240    0.350432    0.439219
C     -1.367200    0.604719   -0.278106
H     -1.883082   -0.181288   -0.878623
H     -2.096268    1.416766    0.012265
N     -0.124398    1.141446   -0.768528
H      0.210215    0.729231   -1.656480
H      0.133842    2.129134   -0.615189
H     -0.208879   -1.796008    0.831376
H      0.724912   -1.307825   -0.605639
