10

O      2.116373   -0.890806    0.463664
C      0.838927   -0.381058    0.331416
C      0.683515    0.806630   -0.166038
N     -0.439454    1.365904   -0.329761
H     -0.485152    2.325424   -0.736983
N     -1.553311    0.623411    0.062513
C     -1.456052   -0.682469    0.614369
H     -2.314535   -1.266373    0.921669
N     -0.262237   -1.174653    0.744680
H      2.871926   -0.726011   -0.179709
