16

C     -1.646917   -0.464690   -0.086933
H     -1.723044   -0.023221   -1.090001
H     -2.586902   -0.910470    0.292668
C     -0.372628   -0.887878    0.485438
C      0.857880   -0.941765   -0.366939
C      1.172815    0.427048   -0.933177
O      1.377232    1.286960    0.146267
H      2.004942    0.833137    0.762792
H      0.371726    0.790986   -1.601376
H      2.081290    0.325979   -1.570821
H      0.657295   -1.665920   -1.202648
H      1.734992   -1.326400    0.163590
H     -0.419409   -1.655116    1.309894
C     -0.875722    0.428656    0.884988
N     -0.938364    1.561581    1.462043
H     -1.695186    2.221113    1.344214
