10

N      2.003537    0.137572   -0.241060
C      0.622825   -0.086402   -0.144676
C     -0.265659    0.701099    0.372997
C     -1.630512    0.172677    0.318106
H     -2.322142    0.846822   -0.232523
H     -1.983265    0.035319    1.381680
O     -1.435832   -1.044804   -0.306450
N     -0.128250   -1.201344   -0.578011
H      2.483076    1.013933    0.084074
H      2.656222   -0.574871   -0.654136
