12

O     -0.114305    2.136372    0.291323
C     -0.072847    0.764783    0.158639
C      0.846246   -0.173888    0.033334
O      2.230532   -0.113670   -0.014526
H      2.707429    0.682834   -0.365484
C     -0.087457   -1.339955   -0.041938
H      0.007999   -2.034309    0.827073
H     -0.116155   -1.832006   -1.035101
C     -1.129211   -0.288591    0.098891
H     -1.662580   -0.313592    1.083072
H     -1.817577   -0.145125   -0.749334
H     -0.792074    2.657147   -0.285950
