13

C     -1.244591   -0.702304    0.633979
H     -2.218735   -0.763163    1.143527
H     -0.896646   -1.529954    0.058090
C     -1.040215    0.620426   -0.186892
H     -1.744937    1.163273   -0.698192
C      0.518128    0.686238   -0.285703
C      1.358983   -0.446317   -0.609742
H      2.200426   -0.507205    0.129604
H      1.862139   -0.257691   -1.593930
H      0.946728   -1.447361   -0.679354
H      0.821157    1.697691   -0.561744
C     -0.349458    0.520278    1.009812
H     -0.212980    0.966090    1.925032
