8

C     -0.673212   -0.218509    0.771816
C      0.255465    0.420078    0.917954
C      1.595593    1.335363    1.100383
H      2.559547    1.981844    1.226671
C     -1.277994   -0.383373   -0.528317
N     -0.993008   -1.250457   -1.505408
H     -0.226916   -1.035675   -2.157404
H     -1.239476   -0.849271    1.503141
