17

C     -0.452611    1.647877    0.318909
C     -0.282255    0.159143    0.113444
C      0.970224   -0.434623    0.686118
C      2.229776    0.168246    0.104618
O      2.891054   -0.823562   -0.586667
H      2.514927   -0.940223   -1.514743
H      0.983642   -0.161191    1.781004
H      0.971359   -1.536049    0.654442
C     -0.986673   -0.431733   -1.035262
H     -1.608041    0.249340   -1.665432
H     -0.548823   -1.256696   -1.632119
C     -1.514459   -0.723115    0.317313
H     -1.376154   -1.747830    0.698894
H     -2.400645   -0.206187    0.732203
H     -0.952619    1.857867    1.283589
H     -1.008067    2.089759   -0.545324
H      0.569364    2.088977    0.289012
