18

C      2.206382    0.240696   -0.420868
O      1.320529    0.535067    0.631417
C     -0.056522    0.587606    0.442840
N     -0.592789   -0.510740    0.047134
C     -2.006558   -0.513562   -0.166344
H     -2.557366   -1.182877    0.466694
H     -2.445125    0.121859   -0.914640
C      0.118042   -1.750904   -0.175401
H     -0.487632   -2.606905    0.230724
H      1.090036   -1.807827    0.328903
H      0.203744   -1.980705   -1.265183
C     -0.901738    1.787161    0.665798
H     -1.893871    1.458838    1.092212
H     -1.049195    2.364422   -0.271702
H     -0.473306    2.457251    1.443507
H      3.161777   -0.216380   -0.037793
H      1.781575   -0.234004   -1.293699
H      2.582014    1.251003   -0.803600
