13

C      2.227664   -0.366632    0.216143
C      1.307628   -0.004185   -0.652273
N     -0.005638    0.293560   -0.207758
C     -1.244971    1.059228   -0.144467
H     -1.253546    2.011881    0.421741
H     -1.930767    1.052454   -1.003337
C     -1.101546   -0.162641    0.681062
C     -1.755144   -1.455398    0.245684
H     -2.220894   -1.376822   -0.739606
H     -0.833690   -0.074423    1.742073
H      1.544974    0.067194   -1.692462
H      3.222647   -0.590245   -0.135753
H      2.043283   -0.453969    1.268953
