10

O      2.728639    0.722366   -0.629581
C      2.006800   -0.011968    0.079690
C      0.547206    0.117002   -0.094567
N     -0.270636   -0.600137    0.594553
C     -1.612762   -0.243041    0.196617
H     -2.101386   -1.149436   -0.236089
H     -2.206646    0.160033    1.048014
C     -1.360670    0.779424   -0.814533
O     -0.142121    0.932026   -0.928456
H      2.411576   -0.706268    0.784353
