15

C      2.366360   -0.068632   -0.492734
C      1.478425   -0.009716    0.654523
C      0.200618    0.075217    0.362565
C     -1.042880    0.142581   -0.013894
C     -1.712194   -1.124282   -0.193074
H     -1.445070   -1.847173    0.626728
H     -2.821448   -0.972197   -0.067619
H     -1.588213   -1.599696   -1.174601
C     -1.536915    1.475850   -0.189824
O     -0.891526    2.396394   -0.752415
H     -2.527108    1.703897    0.185077
H      1.667314   -0.022427    1.689880
H      2.295988    0.892341   -1.047812
H      2.104585   -0.860888   -1.219122
H      3.452064   -0.181269   -0.233203
