10

O      3.484929    0.662177    0.372354
C      2.231646    0.647934    0.470618
C      0.976216    0.315778    0.224308
N     -0.014583    1.167619   -0.317074
C     -1.131609    0.568113   -0.441549
H     -2.074953    0.959412   -0.826255
C     -0.988712   -0.825017    0.032223
H     -1.691744   -1.035526    0.864182
H     -1.147939   -1.560893   -0.809105
O      0.356749   -0.899597    0.430299
