15

C     -1.564928    0.486060    0.636178
C     -0.124694    0.722016    0.154591
H      0.175911    1.788418    0.219942
C      0.095816    0.068278   -1.172891
H     -0.808810   -0.331056   -1.673819
H      0.690688    0.746811   -1.852918
C      0.992153   -0.910861   -0.521224
H      0.697697   -1.986847   -0.621994
O      2.281756   -0.646998   -0.408103
C      2.200195   -0.108503    0.647011
C      0.776279   -0.268455    0.772354
H      0.380655   -0.872911    1.610428
H     -2.182057    0.073284   -0.186515
H     -1.596840   -0.221050    1.482236
H     -2.013820    1.461814    0.914726
