19

C     -2.097381    1.070762    0.255311
C     -1.065198   -0.063340    0.319476
C     -1.646959   -1.246434   -0.436589
H     -1.717452   -2.156049    0.205546
H     -2.646088   -1.003915   -0.876394
H     -0.999544   -1.533400   -1.291334
C      0.150340    0.434570   -0.394267
C      1.427811   -0.206515    0.038605
C      2.565377    0.655951   -0.525597
H      2.723428    1.533090    0.140803
H      3.477108    0.084273   -0.691543
H      2.238057    1.091184   -1.505154
O      1.608502   -0.222664    1.415832
H      2.271426   -0.922669    1.655078
H      1.545729   -1.245596   -0.314954
H     -0.898030   -0.360963    1.362389
H     -3.109330    0.668774    0.185815
H     -1.912032    1.689256   -0.662147
H     -1.915762    1.733686    1.119124
