14

C     -1.185488   -1.070476   -0.226745
C     -0.312757    0.051314    0.284491
C     -0.955865    1.382499    0.036562
O     -0.418853    2.242997   -0.641376
H     -1.941419    1.629067    0.461421
N      0.950318    0.044475   -0.398716
C      2.160345   -0.060369    0.316710
O      2.113462   -0.147516    1.560099
H      3.089172   -0.062912   -0.220305
H      0.918313    0.121402   -1.451188
H     -0.163780   -0.033373    1.374563
H     -1.734491   -1.505204    0.634016
H     -0.587361   -1.862823   -0.753714
H     -1.931596   -0.729081   -0.975820
