17

C      2.787522   -0.161347    0.612528
C      1.612248   -0.648431    0.252128
C      0.570866    0.201494   -0.332440
C     -0.705800    0.214126    0.494279
H     -0.517692    0.313459    1.590007
C     -1.777915    1.063813   -0.069574
H     -2.288813    1.658414    0.763532
H     -1.471574    1.744012   -0.907972
O     -2.531311   -0.003701   -0.390085
C     -1.626067   -0.876375    0.093117
H     -1.185920   -1.604883   -0.640431
H     -2.098790   -1.435804    0.962347
H      0.916246    1.250884   -0.402229
H      0.302660   -0.145320   -1.354225
H      1.448960   -1.709169    0.407587
H      2.986440    0.895121    0.471940
H      3.578940   -0.756294    1.046233
