13

C      1.377958    0.513973    0.473716
H      1.265680    1.612703    0.347959
H      2.167101    0.294984    1.205543
C      1.534549   -0.163674   -0.863348
C      0.219435   -0.824258   -0.655708
H      0.213831   -1.935431   -0.656735
C      0.064718   -0.156479    0.652803
H     -0.064445   -0.793188    1.542879
C     -1.129124    0.499412    0.082636
H     -2.055911    0.199091    0.604328
H     -0.990072    1.614679    0.012023
N     -0.916980   -0.164181   -1.169542
H     -1.686742   -0.697632   -1.576554
