15

C     -0.873552    1.338126    0.078387
N     -0.554100    0.040046   -0.421742
C     -1.203307   -1.040033    0.247234
H     -2.112175   -0.692064    0.776423
H     -1.514846   -1.786876   -0.526655
H     -0.581363   -1.556596    0.998475
C      0.825378   -0.170526   -0.716827
H      1.062575   -0.131175   -1.820185
O      1.340658   -1.351170   -0.076568
C      1.909752   -0.079368    0.206136
H      2.937261    0.082189   -0.176433
H      1.787243    0.216069    1.255993
H     -0.005215    1.927685    0.409371
H     -1.397527    1.963821   -0.697749
H     -1.620784    1.239871    0.917238
