17

C      2.506246   -0.097344    0.019175
C      1.198170    0.450447   -0.498243
C      0.108800    0.358884    0.490007
N     -1.059276   -0.032087    0.114668
C     -1.351756   -0.385476   -1.231467
H     -1.094590   -1.366224   -1.593077
H     -1.833023    0.365009   -1.852843
C     -2.170869   -0.138386    1.059966
H     -2.452998   -1.212078    1.080204
H     -3.060815    0.408734    0.651405
H     -1.906692    0.232017    2.052916
H      0.306337    0.621414    1.516225
H      0.947556   -0.052241   -1.453912
H      1.300035    1.540847   -0.760089
H      3.253052    0.725476    0.023110
H      2.893088   -0.894532   -0.655393
H      2.416736   -0.524460    1.037347
