10

C      1.019115    0.004211   -0.718118
O      2.262437   -0.445110   -0.240455
H      2.771475    0.283043    0.204371
C     -0.003976   -0.339844    0.320115
C     -1.298063    0.415598    0.161806
H     -1.765402    0.444935    1.183206
H     -2.018987   -0.172627   -0.461544
H     -1.178126    1.414235   -0.279621
H      0.448270   -0.188143    1.333120
H     -0.236744   -1.416296    0.222941
