14

C      2.119877    0.494049    0.419344
C      0.810672   -0.219470    0.457650
O      0.575796   -1.008125    1.344516
C     -0.186401    0.046363   -0.591064
O     -1.359678   -0.633484   -0.462976
C     -2.101193   -0.407953    0.661712
H     -2.409539    0.652119    0.784761
H     -1.699199   -0.822622    1.604142
H     -3.073372   -0.971873    0.513232
H      0.261396   -0.262705   -1.583004
H     -0.314341    1.149089   -0.703193
H      2.926682   -0.292985    0.422300
H      2.186263    1.137617   -0.482136
H      2.263036    1.139980    1.316027
