10

C     -1.060607   -0.724217    0.490368
C      0.018883    0.318619    0.363670
N      1.335202   -0.168709    0.121240
N      2.052463    0.175681   -0.843282
H      3.024484   -0.186100   -1.019689
N     -0.246290    1.580020    0.470648
H     -1.226171    1.878936    0.647911
H     -1.993878   -0.238802    0.804209
H     -0.689078   -1.489016    1.209185
H     -1.215008   -1.146412   -0.518439
