15

C     -2.040819    0.457400    0.377753
C     -0.914114   -0.524443    0.466215
C      0.119654   -0.326343   -0.638622
H     -0.357639   -0.526020   -1.624609
N      0.694068    0.992367   -0.567289
C      1.930709    0.858305   -0.277600
H      2.610360    1.691632   -0.159916
C      2.265763   -0.545741   -0.136492
H      3.273477   -0.944555    0.112824
N      1.202682   -1.202546   -0.350185
H     -0.397817   -0.459323    1.429283
H     -1.336403   -1.535776    0.304900
H     -2.563568    0.457421    1.354243
H     -2.768522    0.130031   -0.380674
H     -1.717832    1.477592    0.090168
