12

C     -1.655098   -0.246293    0.058016
N     -0.247434    0.106191    0.032148
C      0.315649    1.299187    0.170892
H     -0.154120    2.247833    0.330641
C      1.673725    1.107823    0.070600
N      1.933814   -0.190085   -0.127360
H      2.853421   -0.639832   -0.240646
C      0.740139   -0.798857   -0.149323
H      0.591777   -1.859805   -0.291676
H     -2.242697    0.483203    0.631292
H     -1.813703   -1.243436    0.526905
H     -1.995473   -0.265931   -1.011489
