15

C      2.244356    1.078789    0.443452
C      1.654574   -0.077111    0.852475
C      0.435753   -0.553689    0.178215
C     -0.431077   -1.523988    0.203334
H     -0.611368   -2.443680    0.793206
C     -1.450583   -0.876227   -0.665786
H     -1.896485   -1.395638   -1.471190
C     -1.867334    0.541133   -0.238239
H     -2.051856    0.530395    0.819404
H     -2.456777    1.151729   -0.950185
C     -0.478333    0.216469   -0.786487
H     -0.087153    0.840509   -1.510713
H      2.058820   -0.633927    1.733041
H      1.766354    1.648577   -0.350849
H      3.171112    1.496658    0.950321
