9

O      1.725260    0.845022    0.275130
C      1.314546   -0.022030   -0.704213
C      0.432642   -0.936943   -0.442969
N     -0.654294   -1.612547   -0.244712
N     -1.876864   -0.951172   -0.414462
N     -2.040846    0.262638   -0.077774
H     -2.960383    0.730029   -0.215062
H      1.724550    0.061441   -1.681078
H      2.335389    1.623563    0.139481
