16

C      1.442732   -0.974316    0.533839
C      0.310689   -0.287018    0.179447
C     -0.744114    0.277515    1.083607
H     -1.346687   -0.444553    1.651961
H     -0.364711    1.156000    1.628269
C     -1.209716    0.605001   -0.307128
H     -2.025777    1.115289   -0.576412
C     -0.824166   -0.794894   -0.675307
H     -1.432110   -1.609267   -0.235627
H     -0.601156   -0.960378   -1.735701
C      0.204256    0.958150   -0.589173
N      0.825435    1.878789   -1.188509
H      0.285250    2.652947   -1.645361
H      1.699467   -0.913766    1.622084
H      2.373358   -0.595060    0.015473
H      1.407252   -2.064439    0.238538
