13

C      1.895663   -0.703522    0.059134
C      0.769050    0.025838    0.750085
H      0.842760   -0.097208    1.851405
C      0.652446    1.424261    0.363199
O     -0.473699    1.582507   -0.152902
C     -1.187398    0.393833   -0.168978
N     -2.515464    0.232271   -0.693600
H     -3.187667   -0.458353   -0.312222
H     -2.819204    0.827652   -1.485454
N     -0.487457   -0.547256    0.355126
H      1.811945   -1.773787    0.357584
H      2.878587   -0.309709    0.382648
H      1.820437   -0.596525   -1.021540
