15

C     -1.677202   -0.703729    0.670024
C     -0.606974   -0.009009   -0.117159
O     -0.858397    0.211573   -1.480525
H     -0.935453    1.181555   -1.675563
C      0.339536    0.945081    0.484854
H      0.197188    1.386690    1.477599
C      0.783202   -0.427681    0.227480
H      1.002979   -1.173429    0.996242
C      1.850993    0.130763   -0.667456
H      1.616393   -0.124885   -1.725725
H      2.887872   -0.058216   -0.360326
O      1.349580    1.404582   -0.355686
H     -2.322425   -0.037173    1.255986
H     -1.280784   -1.509719    1.336699
H     -2.346509   -1.216405   -0.066443
