12

C      1.245479   -0.381595    0.105371
C     -0.158315    0.167833    0.093646
C     -0.880375   -0.287021    1.354464
H     -1.979874   -0.216965    1.216762
O     -0.109833    1.566380    0.160213
H      0.197716    1.811796    1.075930
C     -0.861170   -0.255872   -1.127180
O     -1.011186   -1.432274   -1.373437
H     -1.252405    0.495606   -1.819757
H      1.859675    0.227915   -0.587664
H      1.252689   -1.449149   -0.210788
H      1.697598   -0.246654    1.112441
