10

O     -0.697961    1.529832   -0.395301
C     -0.376052    0.176492   -0.250567
C      0.813191   -0.124621    0.556222
N      1.940647   -0.019175    0.003117
N      3.035580   -0.116114   -0.532472
H      0.770563   -0.431164    1.597148
C     -1.463093   -0.811869   -0.179198
H     -2.270946   -1.438460    0.120539
N     -0.716991   -0.635093   -1.374629
H     -1.034938    1.870171    0.455141
