9

O      2.992250   -0.261135    0.060432
C      2.055095    0.568310   -0.165220
C      0.713684    0.030843   -0.281538
C      0.317394   -1.226684   -0.184195
N     -0.918917   -1.333007   -0.337968
C     -1.514960   -0.243564   -0.548836
H     -2.571645   -0.061642   -0.712958
N     -0.492061    0.751561   -0.530341
H     -0.580840    1.775318   -0.665034
