14

C     -0.768825   -0.025022    1.193503
H     -0.424079   -1.016451    1.489630
H     -1.412257    0.466123    1.959352
C     -0.061372    0.804192    0.183617
C      1.344061    0.419573   -0.130860
C      1.493183   -0.965055   -0.670766
H      2.589721   -1.135971   -0.836316
H      1.934740    0.518951    0.827540
H      1.826250    1.151403   -0.825891
H     -0.191426    1.914343    0.342229
C     -1.235057    0.074906   -0.274964
O     -1.190006   -1.081179   -1.022791
H     -1.707868   -0.957834   -1.840625
H     -2.197064    0.641892   -0.393660
