13

C      0.482422   -0.761581   -0.384472
H      0.397801   -0.776076   -1.476503
H      1.038358   -1.656604   -0.062723
C      1.320487    0.443617    0.114490
H      2.297114    0.462828   -0.357279
H      1.391142    0.337863    1.213716
O      0.650466    1.619051   -0.227156
C     -0.561985    1.720406   -0.311286
N     -1.460641    0.634664   -0.065653
H     -2.474202    0.785016   -0.156454
C     -0.870548   -0.668324    0.315377
H     -0.708549   -0.626624    1.391771
H     -1.501865   -1.514237    0.006173
