12

C      0.932100    0.862571   -0.325830
H      0.765543    1.702434    0.425613
H      1.689199    1.035476   -1.042710
C      1.086574   -0.509613    0.435775
H      1.776170   -1.265153   -0.096863
H      1.230539   -0.546322    1.530254
C     -0.115102   -0.123222   -0.311301
C     -0.648772   -1.026105   -1.346550
O     -1.759935   -0.863259   -0.806437
C     -1.437448    0.015524    0.234911
H     -1.648688   -0.379678    1.201661
H     -1.870181    1.097347    0.101479
