15

O      3.230465    0.497889   -0.179592
C      1.883152    0.694740    0.111149
C      1.014111   -0.351363   -0.576301
O     -0.274171   -0.080237   -0.236345
C     -1.075898   -0.934530    0.111785
C     -2.456786   -0.495038    0.456298
O     -2.760063    0.720165   -0.136545
H     -3.027853    1.411805    0.526927
H     -2.628857   -0.476770    1.557929
H     -3.142240   -1.292259    0.051287
H      1.092260   -0.231315   -1.675125
H      1.341551   -1.370407   -0.316129
H      1.769477    0.640018    1.212584
H      1.561244    1.710820   -0.194694
H      3.473608   -0.443517   -0.260129
