10

O      2.130387   -0.765019   -0.240383
C      0.806650   -0.371222   -0.117973
C      0.428767    0.876978    0.110292
H      1.169969    1.653761    0.211500
N     -0.978587    1.077357    0.203257
N     -1.893737    0.037143    0.064496
H     -2.924089    0.143901    0.125748
C     -1.439403   -1.115826   -0.150727
N     -0.214323   -1.348335   -0.241566
H      2.914365   -0.188737    0.035355
