8

O     -1.640200   -0.501618    1.270839
C     -1.384832   -0.200171    0.096230
C     -0.215755    0.597596   -0.207477
C      0.992102    0.326252    0.204816
N      2.143997   -0.206119    0.397531
H      2.468830   -0.954214   -0.264544
H     -0.322352    1.477662   -0.813758
H     -2.041790   -0.539387   -0.683638
