13

C     -0.394532    1.508960   -0.194219
C     -0.134650    0.034848   -0.160812
C     -1.160782   -0.869642    0.446391
H     -0.930476   -1.907097    0.129034
H     -2.194313   -0.575488    0.139804
H     -1.053801   -0.829279    1.543977
C      1.234347   -0.495239   -0.130569
N      2.345257   -0.844230    0.392801
H      3.088350   -1.234201   -0.219171
O      0.549067   -0.425918   -1.350535
H     -1.066567    1.814237   -1.009514
H     -0.857816    1.794673    0.770236
H      0.575915    2.028379   -0.357422
