8

O     -2.082469   -0.054220   -0.393244
C     -0.795157   -0.352656    0.076929
N      0.179386    0.366841   -0.359352
C      1.522599    0.172263    0.033353
O      2.249808   -0.651643   -0.557433
H      1.902090    0.750194    0.851938
H     -0.607324   -1.155685    0.781943
H     -2.368932    0.924906   -0.434134
