15

C     -1.038802    1.340730   -0.441125
C     -0.320332    0.052370   -0.118802
C     -1.256510   -0.923720    0.597945
H     -2.125568   -0.374868    1.022843
H     -1.562770   -1.664979   -0.151793
H     -0.732416   -1.450339    1.400073
C      0.974174    0.223276    0.512742
H      1.364548    0.656756    1.423631
C      1.567275   -0.374752   -0.473638
O      2.934403   -0.694960   -0.751107
H      3.438792   -1.155439   -0.002140
O      0.378129   -0.560422   -1.107874
H     -0.289407    2.112084   -0.653301
H     -1.741815    1.177865   -1.273972
H     -1.589702    1.636399    0.469617
