13

C     -1.388272   -0.772524   -0.356189
C     -0.456376    0.375106   -0.024079
O     -0.940513    1.096184    1.052768
H     -0.429316    1.950319    1.079582
C      0.892748   -0.229012    0.377173
H      0.767699   -1.078527    1.079384
C      2.030390   -0.056030   -0.471817
H      2.821550   -0.019330   -1.178304
N      1.879364    0.709985    0.736372
H     -0.333426    1.082122   -0.866246
H     -0.812842   -1.679860   -0.598357
H     -2.105461   -0.889814    0.462643
H     -1.925546   -0.488621   -1.292929
