12

O      0.248524    1.427432   -1.751124
C      0.335272    0.644702   -0.842663
C      1.341784    0.387502    0.206026
H      1.496741    1.211535    0.943508
H      2.273808   -0.010391   -0.253965
N      0.547720   -0.687784    0.753533
H      1.016059   -1.607031    0.744170
C     -0.456995   -0.464293   -0.257529
C     -1.728139   -0.002478    0.320133
O     -1.937113    0.178610    1.504778
H     -2.566173    0.199783   -0.357931
H     -0.571489   -1.277588   -1.008934
