14

C      2.687972    0.186673    0.500053
N      1.427069   -0.351105    0.168207
C      0.678825   -1.506705    0.010517
H      0.734828   -2.570907    0.076295
C      0.077466   -0.164293   -0.222734
C     -0.974841    0.183253    0.740526
O     -0.814219    0.034223    1.928760
C     -2.263034    0.728732    0.250001
H     -3.136480    0.288547    0.771985
H     -2.422207    0.514578   -0.836036
H     -2.239102    1.838611    0.341700
H     -0.159252    0.006832   -1.298776
H      3.551647    0.141650   -0.174320
H      2.851327    0.669910    1.445134
