18

C     -0.149338    1.560810    0.134429
C     -0.010248    0.321013   -0.686562
C     -1.325250    0.035504   -1.373605
H     -2.138111    0.178396   -0.635467
H     -1.448194    0.752260   -2.230830
H     -1.298061   -1.005775   -1.763626
C      0.331868   -0.890535    0.156715
C      1.628156   -0.725147    0.900304
H      1.897502   -1.698079    1.341527
H      1.506862    0.027577    1.716200
H      2.468735   -0.401353    0.272730
N     -0.677120   -1.147696    1.108261
C     -1.487236   -1.340874    1.887863
H      0.419274   -1.789366   -0.485131
H      0.794284    0.443480   -1.432332
H     -0.089810    1.354912    1.229747
H     -1.101013    2.054487   -0.059526
H      0.677702    2.270385   -0.080697
