16

C     -1.612568   -1.191563   -0.036608
C     -0.765037    0.025405   -0.086641
C     -1.040929    1.189549   -0.715834
H     -1.984227    1.294395   -1.246684
N     -0.119073    2.148054   -0.333605
C      0.732281    1.660465    0.486226
H      1.607999    2.181854    0.957535
C      0.549002    0.189890    0.597109
C      1.739273   -0.552581   -0.210266
H      2.415636   -1.020354    0.567598
H      1.327134   -1.346594   -0.907731
H      2.340930    0.151890   -0.784010
H      0.527069   -0.282853    1.515345
H     -2.342221   -1.315354   -0.896383
H     -1.085175   -2.108822    0.204330
H     -2.290096   -1.023381    0.889620
