11

C     -1.124196   -0.245090    0.302439
H     -1.672645   -0.622261    1.179052
C     -1.425273    0.660826   -0.580197
H     -2.272594    1.348526   -0.782675
O     -0.244916    0.463627   -1.230456
C      0.153644   -0.503179   -0.346832
C      1.372148   -0.003604    0.441140
H      1.739624   -0.798858    1.103340
H      1.039539    0.908318    0.968185
H      2.132778    0.326153   -0.308124
H      0.301892   -1.534458   -0.745872
