16

C      2.125055   -0.406371    0.118365
O      0.887271   -0.265478    0.747503
C     -0.030928    0.141246   -0.204940
C     -1.087705   -0.954615   -0.377462
O     -1.739228   -1.184667    0.810687
H     -2.252462   -0.415701    1.147418
H     -0.559893   -1.888494   -0.659547
H     -1.779271   -0.670864   -1.193114
C     -0.705573    1.445367    0.172691
H     -0.960568    1.451805    1.250860
H     -1.661662    1.496901   -0.416387
H     -0.026022    2.282732   -0.105429
H      0.439394    0.251280   -1.210874
H      2.403411    0.591062   -0.310633
H      2.096152   -1.177725   -0.692988
H      2.852028   -0.696477    0.923853
