14

C     -1.941864   -0.643585    0.241332
C     -0.623889    0.136854    0.214135
C     -0.447046    1.460499    0.206750
H     -1.252310    2.210144    0.193208
O      0.930637    1.762224    0.170730
C      1.692968    0.625085   -0.023739
N      3.015841    0.303743   -0.094149
H      3.020653   -0.875302   -0.224892
C      0.671167   -0.462622   -0.116534
H      0.509515   -0.143553   -1.373896
H      0.844470   -1.489520   -0.216185
H     -2.254695   -0.913798   -0.715577
H     -1.557543   -1.657268    0.711765
H     -2.607907   -0.312900    1.027051
