16

C      3.621412    0.191567   -0.333599
C      2.175506   -0.063584   -0.533565
C      1.001163   -0.287441   -0.683596
C     -0.417163   -0.582403   -0.857298
C     -1.183928   -0.175159    0.359971
C     -2.667035   -0.436005    0.288546
H     -3.091082   -0.853447   -0.654283
H     -3.240808   -0.673633    1.194978
N     -2.180665    0.906485    0.164016
H     -2.341465    1.540727    1.003262
H     -2.204689    1.387070   -0.738129
H     -0.597631   -1.666484   -1.034066
H     -0.764447    0.000292   -1.725860
H      4.108296   -0.170917   -1.275632
H      3.981074   -0.389519    0.538535
H      3.801460    1.272449   -0.170402
