15

C      1.290528   -0.891194    0.356683
H      1.643226   -1.736363   -0.223795
H      1.183845   -1.104599    1.421939
C      1.790600    0.500053   -0.026733
H      2.515283    0.609391   -0.874924
H      1.993599    1.165291    0.817360
C      0.401631    0.121456   -0.249815
C     -0.781491    0.658411    0.454203
H     -0.774589    0.483411    1.576154
H     -0.967517    1.753332    0.097169
C     -1.908280   -0.057736   -0.235145
H     -1.927699   -1.145055    0.265635
H     -2.871778    0.378998   -0.355573
O     -1.405948   -0.408924   -1.477894
C     -0.181409   -0.326473   -1.545265
