17

C     -1.224484    1.055568    0.315140
C     -0.775104   -0.363315    0.218690
C     -1.830023   -1.384707   -0.045836
H     -2.708045   -0.923590   -0.572683
H     -2.229665   -1.736377    0.927787
H     -1.468618   -2.204627   -0.693857
C      0.491828   -0.651852    0.365438
C      1.494695    0.407236    0.626815
C      2.537778    0.458305   -0.437499
O      3.412961    1.297510   -0.317600
H      2.568194   -0.188407   -1.292980
H      1.936282    0.293125    1.639568
H      0.975648    1.386225    0.599069
H      0.801598   -1.701981    0.290825
H     -0.718928    1.583444   -0.547925
H     -0.940594    1.509833    1.286645
H     -2.323523    1.163610    0.235144
