17

C      1.161619   -0.150445    1.409617
C      0.712449    1.062500    0.609712
H      1.144144    2.039086    0.855061
C      0.768486    0.702655   -0.911112
H      1.277211    1.437197   -1.487048
C      0.250151   -0.615391   -1.248929
H      0.712421   -1.471340   -0.639584
H      0.195817   -0.820428   -2.320057
C     -1.095952   -0.268704   -0.624666
C     -2.119107   -1.031201   -0.528552
H     -3.032148   -0.525794   -0.018887
H     -2.226354   -2.041122   -0.808199
C     -0.532601    1.034781   -0.209453
H     -1.040581    2.024588   -0.427383
H      1.949114   -0.763219    0.912016
H      0.249677   -0.810420    1.573548
H      1.625654    0.197257    2.376187
