14

C      0.534185   -0.902411    0.287307
H      0.358848   -1.086057    1.392235
H      0.900799   -1.835157   -0.200570
C      1.508655    0.220727    0.177531
H      2.301225    0.201005    0.958983
H      1.963009    0.143655   -0.847930
O      0.776630    1.377329    0.195386
C     -0.544595    1.141784    0.070826
H     -0.977797    1.784042   -0.721795
H     -1.127074    1.325938    1.012327
C     -0.699349   -0.324516   -0.331158
O     -1.875972   -0.882287    0.099256
H     -2.532232   -0.769750   -0.642507
H     -0.586334   -0.394303   -1.449891
