13

O     -1.228923    1.441074    0.859678
C     -1.354809    0.140478    0.330219
C     -0.104862   -0.434994   -0.082310
C      0.005771   -1.732449   -0.642756
O      0.469481   -2.744428   -0.031372
H     -0.315236   -1.937846   -1.671915
C      1.018869    0.210104    0.037141
C      2.071555    0.873840    0.400399
H      2.434296    1.551341   -0.304289
H      2.539669    0.755758    1.328305
H     -2.016913    0.246582   -0.580392
H     -1.963841   -0.496443    1.026794
H     -1.555056    2.126985    0.229508
