15

C     -1.820254    0.657331    0.213903
C     -0.700973   -0.031369   -0.502017
H     -1.017910   -0.560680   -1.425901
O      0.345817    0.833423   -0.821062
C      1.289522    0.144971   -0.053999
C      1.892525    0.938559    1.078909
H      2.487782    1.774586    0.680118
H      2.089486   -0.235966   -0.715880
C      0.234874   -0.838465    0.348007
O      0.477182   -2.112677   -0.130623
H      1.135650   -2.120832   -0.849655
H     -0.016295   -0.876841    1.428386
H     -1.613395    1.695663    0.496652
H     -2.728465    0.659467   -0.429101
H     -2.055547    0.072830    1.135362
