9

C      1.463140   -0.276661   -0.068450
O      1.066768   -1.442470   -0.353076
N      0.451297    0.695140    0.169617
C     -0.938051    0.349846    0.086049
N     -1.277183   -0.866415   -0.211057
H     -2.306416   -1.123680   -0.273313
H     -1.708869    1.098952    0.269636
H      0.738345    1.661514    0.405594
H      2.510969   -0.096226   -0.025000
