15

C      2.112129    0.571023    0.505113
C      0.671047    0.318746    0.097998
C     -0.324083    1.165431    0.263587
C     -1.704077    0.689379   -0.183089
H     -2.439328    1.249389    0.433752
H     -1.809545    0.678887   -1.285130
C     -1.741252   -0.779458    0.335329
H     -2.561569   -1.055242    0.843128
O     -0.759328   -1.513236    0.101009
C      0.302419   -0.875930   -0.622297
H     -0.216543   -0.742957   -1.677954
H      1.093313   -1.661355   -0.764838
H      2.442782   -0.313667    1.028579
H      2.780417    0.871045   -0.343379
H      2.153619    1.397945    1.268192
