13

C      2.241320    0.295212    0.101966
N      0.824228    0.017898    0.116048
C      0.208594   -1.022294    0.865324
H      0.683416   -1.740685    1.516195
C     -1.094434   -0.955768    0.618431
C     -1.443625    0.102969   -0.288838
C     -2.669563    0.372589   -0.688430
H     -3.533036   -0.188018   -0.363434
H     -2.866494    1.187003   -1.375680
N     -0.193287    0.708380   -0.592705
H      2.444900    1.151607    0.796072
H      2.798673   -0.563142    0.481048
H      2.599311    0.634247   -0.901510
