9

O      1.701406    1.073461    0.785460
C      1.389828    0.510808   -0.313096
N      1.360685   -0.910941   -0.333735
N      0.230016   -1.465939   -0.478137
C     -0.936532   -0.665859   -0.610622
N     -1.187289    0.340097    0.141855
H     -2.059176    0.898238    0.005522
H     -1.659835   -0.904781   -1.381033
H      1.160897    1.124917   -1.181872
