14

C     -1.839354    0.606930    0.018065
C     -0.449085    0.229635   -0.104824
H      0.028891    0.525330    0.988772
C     -0.031277   -1.169491   -0.224388
H     -0.277428   -1.876059    0.546724
H     -0.595628   -1.535959   -1.201175
O      1.332152   -1.072878   -0.549225
C      1.607386    0.200022   -0.925776
N      2.744839    0.721258   -1.274441
H      3.639273    0.164557   -1.241953
O      0.436281    1.031019   -0.869609
H     -2.333871   -0.035482    0.770461
H     -1.934048    1.648843    0.375804
H     -2.328131    0.562277   -0.992077
