12

C      1.591691   -0.858358    0.164994
C      0.627001   -0.301256    1.186377
C     -0.095942    0.865249    0.530979
N     -1.226336    0.438080   -0.238582
C     -2.353579   -0.096360    0.393744
N     -3.292556   -0.562369    0.918217
H     -1.160251    0.547311   -1.290555
H      0.661637    1.391214   -0.085268
H     -0.353717    1.558495    1.361067
H      2.326782   -1.498074    0.701598
H      2.190945   -0.070887   -0.337625
H      1.084325   -1.413046   -0.657178
