16

C      1.860367   -0.174901    0.285011
C      0.668573    0.684842    0.020455
C     -0.507352   -0.045394   -0.546520
C     -1.023111   -1.138863    0.339014
H     -0.282564   -1.936016    0.494599
H     -1.394495   -0.677621    1.275126
H     -1.905318   -1.588902   -0.156130
N     -1.580943    0.919948   -0.734209
H     -2.239056    0.903162    0.069672
H     -1.177010    1.867718   -0.891506
H     -0.194817   -0.449760   -1.541060
H      0.916815    1.519031   -0.659482
H      0.332079    1.160594    0.980964
H      1.582497   -1.142833    0.727511
H      2.419263   -0.290046   -0.665248
H      2.525072    0.389041    1.001802
