14

C      1.735253    0.292272    0.602038
C      0.721741   -0.662078    0.073341
C     -0.374794   -0.149593   -0.438549
O     -0.595478    1.213312   -0.492558
N     -0.855306    1.931826    0.609068
C     -1.066034    2.546015    1.571136
C     -1.413706   -1.048538   -0.977393
H     -1.975486   -1.526146   -0.135679
H     -2.132230   -0.555763   -1.639346
H     -0.911725   -1.877599   -1.513960
H      0.910640   -1.742665    0.122904
H      1.304943    0.879495    1.441834
H      2.589857   -0.276603    1.009286
H      2.062325    0.976064   -0.232122
