17

O      3.782389    0.351631    1.125886
C      2.724659   -0.208964    0.853609
C      1.837366    0.522382   -0.107316
C      0.567804   -0.245708   -0.375952
C     -0.240896   -0.480328    0.879456
C     -1.682644   -0.731046    0.423996
C     -2.403885    0.565278    0.170900
H     -2.983534    0.846672    1.089871
H     -3.172368    0.414709   -0.621021
H     -1.728102    1.397531   -0.107492
H     -1.667484   -1.291176   -0.546928
H     -2.196738   -1.273982    1.224694
H     -0.055584    0.388102   -1.040404
H      0.745146   -1.185910   -0.895937
H      2.384252    0.588155   -1.067402
H      1.627906    1.504640    0.308844
H      2.461714   -1.161986    1.281936
