10

O      1.788247   -0.638088    0.106328
C      0.493164   -0.158389    0.074999
C      0.218659    1.140775    0.066562
H      1.019588    1.870543    0.084396
N     -1.159092    1.494645    0.033464
N     -2.141843    0.499950    0.011729
C     -1.814156   -0.701159    0.021281
N     -0.583449   -1.087177    0.050947
H     -0.352463   -2.099983    0.057930
H      2.531346   -0.321118   -0.507636
