13

O      0.272648    0.601273   -0.423063
C      1.643153    0.354230   -0.507927
C      2.397282    0.166156    0.553503
H      3.448184   -0.023188    0.486360
H      1.926259    0.207017    1.518528
H      2.125342    0.311333   -1.473467
C     -0.544320   -0.503656   -0.089322
C     -1.977967   -0.147888   -0.022447
N     -2.434492    1.039361    0.082560
H     -3.461988    1.208797    0.123825
H     -2.694214   -0.957003   -0.065949
H     -0.260316   -0.910532    0.908685
H     -0.439571   -1.345901   -0.806801
