11

O     -1.431147   -1.126061   -0.255488
C     -0.524306   -0.282069    0.378543
H     -0.592693   -0.484396    1.468587
C     -0.724636    1.129268    0.048895
H     -1.630541    1.737390    0.209619
C      0.384074    1.553664   -0.482022
C      1.333616    0.667425   -0.579376
H      2.344981    0.791584   -0.988517
N      0.827794   -0.545417   -0.045664
H      1.385603   -1.439431    0.003960
H     -1.372746   -2.001957    0.241462
