14

O      2.142992    0.790033    0.024883
C      1.333791   -0.318715   -0.144893
C     -0.064722    0.064928   -0.602469
H     -0.087479    0.397870   -1.677130
C     -0.837328    0.932619    0.270775
H     -0.348995    1.186323    1.256023
H     -1.324819    1.836708   -0.189403
C     -1.725869   -0.192378    0.451090
H     -2.669707   -0.416451    1.019479
C     -1.051200   -0.954425   -0.313162
H     -1.234456   -2.019187   -0.599203
H      1.282569   -0.978639    0.736300
H      1.779932   -0.921438   -0.978603
H      2.805291    0.592751    0.746311
