8

C     -1.403264    0.037758   -0.156827
C     -0.347785   -0.635189    0.252645
C      0.937113    0.011953    0.365737
C      2.012512    0.569587    0.469031
H      2.956928    1.041791    0.557351
H     -0.487725   -1.680146    0.496445
H     -1.289997    1.074069   -0.404229
H     -2.377783   -0.419823   -0.251318
