12

C      0.834312   -0.521447   -0.463502
H      1.482262    0.235319   -0.912932
H      1.075939   -1.573313   -0.613227
C      0.375882   -0.140662    0.940660
H      1.064596    0.070815    1.686280
C     -0.747105   -1.083419    1.108216
O     -1.326779   -1.013463    0.007974
C     -0.629832   -0.152105   -0.755648
H     -0.895945    0.082841   -1.742011
C     -0.353505    1.001417    0.221441
H     -1.231204    1.384224    0.739376
H      0.351378    1.709793   -0.216627
