11

O      2.519631    0.766971    0.571824
C      1.465591   -0.120941    0.437674
C      0.299228    0.261227   -0.034405
N     -0.780067   -0.639069   -0.173882
C     -2.131040   -0.209736   -0.149102
H     -2.626518    0.096092    0.779890
H     -2.738791   -0.166075   -1.064728
H     -0.607041   -1.652894   -0.299893
O      0.116904    1.596581   -0.410704
H      1.631986   -1.142356    0.734319
H      2.850117    1.210200   -0.295164
