14

N      3.108300   -0.660101    0.431745
H      3.902983   -1.324382    0.283804
C      1.751561   -0.269445    0.530299
O      0.414401   -0.551350    0.489272
C     -0.554100    0.148902   -0.244568
C     -1.867354   -0.499598    0.004481
C     -2.897503    0.140835    0.541708
H     -2.791207    1.179672    0.814987
H     -3.833496   -0.375293    0.703191
H     -1.949739   -1.549883   -0.280265
H     -0.334149    0.125591   -1.332279
H     -0.634720    1.196701    0.109905
C      2.756695    0.704948    0.719101
H      2.928329    1.733402    0.929931
