12

N      0.303472    1.435014    0.543005
C     -0.914576    1.084178    0.161843
H     -1.702260    1.812815    0.456117
C     -0.970859   -0.223002   -0.382783
H     -1.414732   -0.325232   -1.459302
C      0.414883   -0.876965   -0.407564
H      0.769735   -1.401918   -1.177201
C      1.246100    0.384198    0.127013
H      1.930465    0.730725   -0.634877
H      1.773538    0.036407    1.076224
N     -0.666394   -1.354529    0.339737
H     -0.769370   -1.301691    1.357788
