12

O      2.683980   -1.185945   -0.409574
C      1.701236   -0.255289   -0.084094
C      2.114237    0.915290    0.324802
H      2.171413    1.931448    0.679847
C      0.263165   -0.610227   -0.207685
O     -0.476815    0.499447    0.180177
C     -1.846653    0.267324    0.099494
H     -2.192874   -0.558880    0.731201
H     -2.339601    1.209212    0.451174
H     -2.159986    0.140842   -0.957480
H     -0.008774   -0.859977   -1.254960
H      0.090671   -1.493244    0.447098
