12

C      2.335896   -0.039354    0.285009
N      1.014027   -0.608171    0.545779
C     -0.042636    0.025135    0.203904
C     -1.385944   -0.506647    0.445501
N     -2.526553    0.232393    0.048414
H     -2.475788    0.958109   -0.713762
H     -3.471876    0.110317    0.474482
O     -1.548847   -1.613339    1.001969
H      0.092244    0.983312   -0.278005
H      2.985353   -0.096596    1.180756
H      2.199077    1.046469    0.035585
H      2.825047   -0.491628   -0.581862
