16

C     -0.654863   -1.013206   -0.860310
C     -0.190543    0.091046    0.085746
C     -1.247398    0.355895    1.150948
H     -1.290696   -0.537075    1.804274
H     -2.243128    0.543157    0.717420
H     -0.863085    1.182611    1.773548
C      0.013551    1.341193   -0.674542
O      1.102113    1.850233   -0.680231
H     -0.784284    1.815866   -1.227782
N      0.970534   -0.370627    0.740069
C      2.134829   -0.427749    0.276159
H      2.933105   -0.806996    0.896636
H      2.373149   -0.111208   -0.724613
H      0.210257   -1.636809   -1.162240
H     -1.363775   -1.665537   -0.337408
H     -1.099765   -0.610796   -1.777673
