12

N     -1.679644    0.287289   -0.219056
C     -0.184610    0.080527   -0.259877
C      0.358604   -0.395453    0.917644
N     -0.336043   -0.577830    2.073529
H     -1.325622   -0.290945    1.909856
H      1.427789   -0.658315    1.002734
C      0.329071    0.455789   -1.344113
N      1.937297    0.020550   -0.905332
C      3.106243   -0.313883   -0.583540
H      0.649246    0.784205   -2.216344
H     -2.031347    1.184477   -0.450022
H     -2.250984   -0.576411    0.074521
