13

O     -1.296735   -1.166446    1.830158
C     -1.620403   -0.355497    0.756745
C     -0.723832   -0.103091   -0.207580
C      0.659387   -0.370265   -0.660880
C      1.691793    0.392775    0.103739
C      2.529441    1.011060    0.699566
H      3.282291    1.551330    1.232839
H      0.973790   -1.354473   -1.010842
C     -0.250569    0.498775   -1.435461
H     -0.032325    1.585924   -1.521146
H     -0.656839    0.082506   -2.373903
H     -2.621796    0.090545    0.685907
H     -1.934203   -1.863142    2.185346
