10

O      0.754532   -1.134756    1.855636
C      0.627752   -0.263320    0.805948
C     -0.702110   -0.910015   -0.036263
C     -0.926070   -0.052334   -0.576280
C     -1.243650    1.258810   -1.382482
H     -1.480343    2.158061   -1.943863
H     -0.973763   -1.769768    0.547518
H      0.194832   -1.539978   -0.847199
N      1.486084    0.691214    0.788178
C      2.262736    1.562085    0.788808
