14

C      1.978074   -0.115815   -0.095182
O      0.758639    0.065725   -0.784257
C     -0.281669    0.136839    0.132588
C     -1.258392   -1.002091   -0.088481
H     -0.727596   -1.807886   -0.627237
H     -2.153156   -0.642761   -0.662983
H     -1.608487   -1.419174    0.868257
C     -1.014520    1.402859   -0.049470
O     -1.969127    1.697390    0.635758
H     -0.697371    2.089715   -0.811464
H      0.101272    0.033998    1.171756
H      2.809079   -0.173176   -0.817931
H      2.135760    0.751300    0.594300
H      1.927494   -1.016921    0.534346
