14

C      2.197798   -0.417125    0.029211
C      0.757323   -0.258999   -0.201321
C      0.091857    0.843123    0.147272
C     -1.349123    0.884754   -0.134885
H     -1.648338    1.498171   -0.992602
C     -2.064072   -0.433655    0.121327
H     -2.723267   -0.734040   -0.691817
H     -1.522150   -1.231419    0.648212
O     -2.281098    0.701334    0.870237
H      0.601947    1.672818    0.620599
H      0.223603   -1.092458   -0.681199
H      2.567109    0.302164    0.787963
H      2.432282   -1.440610    0.415908
H      2.716129   -0.294059   -0.938905
