16

C      3.005526   -0.155438   -0.560548
C      1.547044   -0.466042   -0.340223
N      0.706089    0.700691   -0.511037
C     -0.683838    0.565241   -0.336493
O     -1.158747   -0.573023   -0.035120
C     -2.555099   -0.697396    0.137645
O     -3.224135    0.514843   -0.006772
H     -2.973072    1.137958    0.720255
H     -2.922521   -1.367716   -0.685992
H     -2.838700   -1.112226    1.115193
H     -1.334792    1.430362   -0.460302
H      1.136727    1.606262   -0.756296
H      1.194337   -1.339842   -0.878097
H      3.211725   -0.274569   -1.642904
H      3.214738    0.873273   -0.189582
H      3.674719   -0.842378   -0.026848
