14

O      2.986593    0.614016   -0.874104
C      1.828897   -0.144011   -0.701092
C      1.282544    0.207765    0.639402
C      0.022284   -0.040182    0.936502
C     -0.847900   -0.685248   -0.108518
C     -2.003591    0.211041   -0.434940
H     -1.990448    0.557407   -1.485922
H     -1.999364    1.141911    0.203431
H     -2.995506   -0.267970   -0.259277
H     -1.285822   -1.639107    0.298606
H     -0.252142   -0.937261   -1.004548
H     -0.422344    0.196690    1.897093
H      1.898036    0.672945    1.402168
H      3.778764    0.112005   -0.508799
