12

C      1.771624    0.138304   -0.228586
C      0.430454   -0.479265   -0.159921
C     -0.727845    0.251703    0.017342
N     -0.860628    1.678738    0.162963
H     -1.187083    2.112190    1.047137
N     -1.755452   -0.617379    0.033015
H     -2.756070   -0.347127    0.152462
N     -1.234825   -1.841246   -0.130194
O      0.066515   -1.736524   -0.242956
H      1.810864    0.934026    0.527428
H      1.914243    0.527493   -1.244592
H      2.528202   -0.620912    0.065901
