11

C     -1.219651   -0.299743   -0.051369
C     -0.026053    0.474092    0.420816
O      0.962823   -0.403953    0.774922
C      1.536389   -1.086359   -0.056496
H      2.299705   -1.754877    0.272214
C      0.454510    1.384370   -0.620573
N      0.821226    2.117963   -1.437614
H     -0.307211    1.063532    1.299255
H     -1.181160   -0.434062   -1.170400
H     -1.209511   -1.311697    0.412607
H     -2.131067    0.250733    0.252465
