13

O      1.801387   -0.869909   -0.901525
C      0.685764   -0.565399   -0.181409
C      1.866739   -0.000435    0.316739
H      2.157093    1.051713    0.011003
H      2.547978   -0.398859    1.081013
O     -0.186829   -1.444174    0.352176
C     -1.301463   -0.659897    0.078714
H     -2.209742   -1.113640   -0.348282
C     -1.328477    0.775790    0.442648
H     -0.807115    1.032338    1.390104
H     -2.194995    1.345992    0.099197
C     -0.444497    0.278439   -0.653797
H     -0.585843    0.568041   -1.686581
