12

C      1.259699   -0.526623    1.068366
C      0.034510    0.328651    0.979090
C     -0.588035    0.159909   -0.351585
C     -0.011021   -0.664174   -1.206901
H     -0.408662   -0.835603   -2.192459
C     -1.801064    0.873280   -0.724159
O     -2.732711    1.433094   -1.029293
H      0.291679    1.423288    1.089207
H     -0.690440    0.112917    1.788308
H      1.638882   -0.638580    2.105787
H      2.035384   -0.114281    0.383683
H      0.971779   -1.551879    0.737726
