13

C     -1.807612   -0.158536    0.403698
C     -0.427180   -0.486432   -0.073638
C      0.562005    0.642973    0.165138
C      1.875413    0.177507   -0.354209
N      3.157053   -0.110503   -0.134397
O      2.733241   -0.276031   -1.347143
H      0.635375    0.909397    1.245792
H      0.297786    1.547209   -0.416894
H     -0.019610   -1.408099    0.392311
H     -0.455217   -0.626750   -1.185630
H     -1.797699    0.646776    1.168449
H     -2.283385   -1.064833    0.841995
H     -2.470171    0.207323   -0.420986
