12

N      2.509968    0.359975   -0.190138
C      1.235244    0.170063   -0.117395
N      0.155981    1.046736   -0.340741
C     -0.972509    0.497220   -0.171584
O     -2.195225    1.187744   -0.341480
H     -2.307672    2.127475    0.045136
C     -0.775120   -0.904327    0.210164
H     -1.187225   -1.135113    1.218802
H     -1.177384   -1.610619   -0.562088
N      0.654254   -1.074996    0.233945
H      1.184850   -1.964476    0.469672
H      2.874836    1.300318   -0.454294
