12

O      2.655650    1.443888    0.033528
C      1.991651    0.229818    0.149325
C      0.681526    0.247881    0.026309
C     -0.211459   -0.931231    0.115963
H      0.019689   -1.672611   -0.660437
H     -0.048857   -1.388910    1.105840
N     -1.514023   -0.388290   -0.082809
H     -2.416950   -0.905051   -0.090476
C     -1.350353    1.009276   -0.271303
H     -2.160925    1.722151   -0.449616
O     -0.145661    1.331874   -0.207571
H      2.499710   -0.698796    0.331247
