11

C     -1.007269   -1.040679   -0.554893
C     -0.859814   -0.139948    0.618194
C      0.060749    0.818452    0.558991
O      0.882216    1.014888   -0.536492
N      2.207449    0.966243   -0.295437
C      3.347890    0.916556   -0.083936
H      0.129570    1.452045    1.443926
H     -1.488728   -0.276263    1.479131
H     -0.094424   -1.099804   -1.172119
H     -1.796689   -0.561481   -1.202776
H     -1.380951   -2.050010   -0.254589
