15

C      1.861581   -0.198141   -0.754603
O      0.564084   -0.559975   -0.665118
C     -0.249760    0.046861    0.213626
O      0.253387   -0.151097    1.511322
H      0.103148   -1.106933    1.743748
C     -0.556971    1.453764    0.038978
O     -0.417621    2.343398    0.851370
H     -0.959996    1.768372   -0.924880
C     -1.587934   -0.712533    0.194264
H     -1.793259   -0.901653   -0.900159
H     -2.399471   -0.052361    0.538089
H     -1.534993   -1.638433    0.778950
H      1.911071    0.893495   -1.034054
H      2.288147   -0.720656   -1.660744
H      2.518585   -0.464107    0.069211
