11

C     -0.922485   -1.008467   -0.157432
H     -1.823324   -1.572327   -0.314214
C     -0.834698    0.453180   -0.147893
H     -1.119804    0.821904   -1.185611
H     -1.505874    0.930160    0.600058
C      0.610896    0.709871    0.106391
H      0.716734    1.212085    1.103198
H      1.087337    1.333652   -0.689866
C      1.188932   -0.625474    0.213888
H      2.275078   -0.752349    0.406206
O      0.327209   -1.502236    0.065276
