13

C      1.066078   -1.000009   -0.178832
C      0.528598    0.294513    0.351007
O      1.464110    1.325821    0.206347
H      1.072389    2.170562    0.534767
C     -0.749605    0.654366   -0.274132
C     -0.839602    1.789846   -0.945263
C     -1.898062   -0.222288   -0.157942
O     -1.804179   -1.303659    0.483869
H     -2.839020    0.056462   -0.625928
H      0.406767    0.163698    1.460820
H      0.464508   -1.826306    0.240763
H      2.105521   -1.146723    0.191871
H      1.022496   -0.956285   -1.287346
