9

C     -1.781316    0.202249   -0.520722
C     -0.442305   -0.352303   -0.229514
C      0.778566   -0.713323   -0.016075
C      2.064048   -1.001686   -0.059884
O      3.021595   -0.044267   -0.393449
H      2.721199    0.930659   -0.272126
H     -2.367452   -0.541597   -1.114100
H     -2.289986    0.419931    0.427406
H     -1.704349    1.100337   -1.187195
