12

O      1.849388   -0.976692    0.430527
C      0.821837   -0.142288    0.793796
N     -0.464364   -0.872974    0.823418
H     -0.940026   -0.423271    1.631751
C     -1.137770   -0.374311   -0.450456
H     -2.216822   -0.503644   -0.210911
H     -0.874913   -0.688430   -1.335387
C     -0.952108    1.046566   -0.187657
O      0.013072    2.126759    0.053281
C      0.609619    1.005429   -0.053377
H      1.302158    1.038119   -1.004294
H      1.989929   -1.235262   -0.490692
