16

C     -1.646496    0.582952   -0.939241
C     -0.644063   -0.406103   -0.387856
O      0.026398   -0.970717   -1.488838
H     -0.599254   -1.098013   -2.246784
C      0.432636    0.301625    0.437875
C      1.476827   -0.757571    0.755742
H      1.007070   -1.673059    1.112811
H      2.167965   -0.347329    1.505402
H      1.990810   -0.976140   -0.204154
N      1.058696    1.287631   -0.316022
C      1.573174    2.113991   -0.950608
H      0.029279    0.739594    1.357928
H     -1.121581   -1.196123    0.206584
H     -1.269437    1.067349   -1.869493
H     -1.943619    1.340424   -0.190208
H     -2.538405   -0.008512   -1.240262
