11

C     -1.449042    0.009589    0.025105
C      0.032453   -0.006236   -0.007248
N      0.808394   -1.089910    0.030502
H      0.513533   -2.080882    0.087452
N      2.056665   -0.675619   -0.018451
N      2.114415    0.636723   -0.086460
C      0.854778    1.080912   -0.080891
H      0.566900    2.118085   -0.127186
H     -1.745049   -0.499845    0.986369
H     -1.905912   -0.521042   -0.837661
H     -1.847135    1.028224    0.028470
