10

N      2.835412   -0.028648   -1.015031
C      1.919875   -0.037749   -0.301215
C      0.754642   -0.040265    0.581668
H      1.106451   -0.055667    1.615131
N     -0.038960    1.121673    0.244005
C     -1.189603    0.749611   -0.197616
H     -1.951061    1.438479   -0.511676
C     -1.231065   -0.700379   -0.180013
H     -2.086394   -1.305011   -0.500622
N     -0.119297   -1.142045    0.265368
