12

C      1.490109   -0.370725    0.194265
O      1.608015   -1.132950    1.135245
C      0.205482   -0.065634   -0.496258
H      0.276043   -0.105759   -1.610930
C     -0.994148   -0.749073    0.015901
H     -0.777963   -1.433176    0.904479
H     -1.603206   -1.313930   -0.735909
O     -1.526294    0.404256    0.479856
C     -0.469760    1.135183    0.050023
H     -0.699250    1.944466   -0.692694
H      0.108739    1.563702    0.926369
H      2.382233    0.123641   -0.170348
