13

C     -1.211586   -1.185933    0.886723
O      0.159628   -0.874561    0.936396
C      0.447254    0.155203    0.089935
C      1.521391    0.091409   -0.856092
N      2.052847   -1.007335   -1.287095
H      2.839013   -0.947225   -1.983529
H      1.929597    1.033028   -1.248561
N     -0.348205    1.278027    0.181383
C     -1.038451    2.230546    0.275887
H     -1.664952    3.071546    0.372069
H     -1.557328   -1.363114    1.923521
H     -1.375102   -2.120378    0.322386
H     -1.754106   -0.361214    0.386978
