15

C     -1.892090   -0.403692   -0.095718
C     -0.461373   -0.256698   -0.099715
C      0.255014    0.843059   -0.916085
H      0.247818    0.923666   -1.918843
C      1.556424    0.817530   -0.017315
H      2.266352    1.537138   -0.101855
C      1.668337   -0.573013    0.452152
H      2.570411   -0.940233    0.907962
C      0.552090   -1.263097    0.243802
H      0.393912   -2.298387    0.298820
C      0.075652    1.125014    0.392632
H     -0.232021    1.742939    1.130692
H     -2.347408   -0.743374   -1.061080
H     -2.230131   -1.081796    0.671895
H     -2.422988    0.570943    0.112656
