12

C     -1.025414   -1.054520    0.036124
C     -0.039839    0.018080    0.150478
C     -0.269404    1.432801   -0.225799
H     -1.228677    1.802337    0.238015
H      0.524269    2.074037    0.172216
H     -0.300861    1.528588   -1.334059
N      1.105997   -0.298528    0.609304
C      2.324972   -0.640043    0.621450
H      2.860041   -0.899070   -0.304881
H     -1.495779   -1.257007    1.024823
H     -0.613136   -2.005814   -0.359454
H     -1.842169   -0.700862   -0.628217
