13

C      1.283373    0.132965   -0.303882
H      2.013074    0.085113    0.557447
H      1.762119    0.482924   -1.214372
O      0.767004   -1.167744   -0.403165
C     -0.499900   -1.111733    0.210216
H     -1.114174   -1.962995    0.047910
C     -1.027563    0.169523   -0.472742
H     -1.995793    0.445126   -0.060130
H     -0.950147    0.115718   -1.552666
C      0.121348    0.976999    0.158494
H      0.126073    2.003435   -0.022345
C     -0.133766    0.517179    1.569812
O     -0.351648   -0.686511    1.485425
