15

C      0.738327   -0.973066    0.532458
H      1.489155   -1.740958    0.320767
H      0.299142   -0.927890    1.525737
C      1.177980    0.361578   -0.062108
H      2.237023    0.586822    0.005181
C      0.206418    1.465798    0.256244
H      0.100926    2.071477   -0.691367
H      0.570932    2.129716    1.046865
O     -1.036549    0.982614    0.559916
C     -1.439415   -0.118418   -0.133678
H     -2.155811    0.091207   -0.964396
H     -2.030336   -0.762025    0.583238
C     -0.295339   -0.986952   -0.604095
H     -0.579068   -1.966996   -0.962555
C      0.716616   -0.212907   -1.412205
