12

C     -1.807600    0.411987    0.209808
C     -0.345316    0.735170    0.173670
C      0.513079   -0.467284    0.252678
O      0.072230   -1.635817    0.340750
O      1.883510   -0.295228    0.228149
C      2.683980   -1.284491    0.292312
H      3.754507   -1.143841    0.272701
H     -0.031072    1.406904    1.009278
H     -0.094372    1.268996   -0.786288
H     -2.215898    0.512298    1.257987
H     -2.376829    1.106524   -0.450909
H     -2.036220   -0.615217   -0.152365
