17

C     -0.106467    1.555631    0.297275
C     -0.200493    0.057464    0.132500
C      1.067381   -0.670624    0.414942
C      2.059830   -0.682673   -0.433161
H      2.976967   -1.212363   -0.223101
H      1.957267   -0.146667   -1.370405
H      1.148388   -1.194059    1.347033
C     -0.815123   -0.417804   -1.138329
H     -0.217040   -1.162973   -1.714573
H     -1.116276    0.471020   -1.748613
C     -1.959713   -0.966841   -0.373002
C     -1.355795   -0.498154    0.886735
H     -1.973982    0.317630    1.330354
H     -1.069793   -1.283410    1.632078
H     -0.648296    1.892040    1.228561
H     -0.671886    2.008376   -0.543056
H      0.925031    1.933407    0.274759
