14

C      2.623463   -0.012468    0.059253
O      1.543220    0.263833   -0.435683
C      0.462474    0.241913    0.411290
H      0.731815    0.369097    1.486037
C     -0.710409    1.043216   -0.006155
H     -0.573930    1.555076   -0.987175
H     -1.144740    1.725912    0.761794
C     -1.509665   -0.205507   -0.172215
H     -2.337007   -0.278053    0.601946
H     -1.884967   -0.403015   -1.203748
C     -0.325716   -1.011249    0.248697
H      0.025489   -1.633552   -0.631095
H     -0.456961   -1.621780    1.169782
H      3.556937   -0.033423   -0.492857
