11

C      2.015917   -0.221317    0.199478
N      0.813711   -0.626852    0.105650
C     -0.239423    0.339009    0.036739
C     -1.586618   -0.248748   -0.177622
H     -1.592042   -1.336725   -0.370220
H     -2.233855   -0.073788    0.712653
H     -2.132893    0.232581   -1.038871
H     -0.209023    0.968851    0.959344
H      0.033975    1.027328   -0.816113
H      2.868108   -0.897404    0.256308
H      2.262144    0.837065    0.228484
