12

C     -2.026427   -0.094174   -0.007686
C     -0.628316    0.282522    0.432549
O      0.224767   -0.837559    0.406211
C      1.459705   -0.617620    0.291224
C      2.652959   -0.123507    0.161856
O      3.347825    0.332508    1.251067
H      3.076658   -0.081771   -0.812754
H     -0.710845    0.612241    1.489602
H     -0.253847    1.142425   -0.148622
H     -2.639132   -0.505159    0.826212
H     -2.491674    0.790373   -0.457833
H     -2.011674   -0.900279   -0.784058
