14

C      0.522446   -1.465811   -0.368335
C      0.507289   -0.024600   -0.024833
C      1.719496    0.763955   -0.043280
O      1.677187    1.973110    0.249923
H      2.671608    0.336454   -0.305422
C     -0.621048    0.541865    0.299984
O     -0.638035    1.877202    0.618745
H     -0.892232    2.547460   -0.078874
N     -1.827582   -0.174656    0.334523
H     -2.233417   -0.621460    1.189350
H     -2.371283   -0.271882   -0.574541
H     -0.265782   -1.684623   -1.143014
H      0.234472   -2.033773    0.552776
H      1.516882   -1.763241   -0.707000
