15

C      2.293184   -0.629470   -0.283471
C      0.812990   -0.322284   -0.271801
C     -0.305533   -0.977507   -0.543394
H     -0.494129   -1.961151   -0.836116
C     -1.114386    0.262817   -0.366564
N     -2.457532    0.147045   -0.002220
H     -2.893429   -0.544148   -0.732181
H     -3.124064    0.923119    0.252151
C      0.097225    0.828774    0.009359
H      0.321516    1.513764    0.951615
N     -0.690390    1.518108   -1.011774
H     -0.351918    1.269796   -2.053532
H      2.630673   -0.493502    0.769722
H      2.754911    0.071922   -0.999346
H      2.520881   -1.607281   -0.684307
