11

C      4.131571   -0.219207   -0.058588
C      2.949768   -0.056481   -0.287248
C      1.592493    0.150774   -0.554388
C      0.302565    0.331931   -0.660998
C     -0.608142    0.328310    0.488543
H     -0.567739    1.176852    1.211535
C     -1.912473   -0.397068    0.307702
H     -2.781728    0.111367    0.718237
H     -2.054940   -0.941661   -0.648562
O     -0.902409   -0.886613    1.134610
H     -0.148965    0.497625   -1.650843
