16

C     -1.157885    0.273404   -1.123618
C     -0.714311   -0.049919    0.255264
C     -1.574412    0.068637    1.249543
H     -2.582716    0.397288    1.046692
H     -1.270803   -0.164842    2.281285
C      0.684379   -0.506155    0.539140
O      0.892224   -1.633826   -0.289544
H      1.204836   -1.292848   -1.177845
C      1.697478    0.517811    0.127199
H      1.572227    1.491848    0.636855
H      2.700563    0.075605    0.282285
H      1.590145    0.709168   -0.963504
H      0.803801   -0.858941    1.564415
H     -2.127974   -0.271042   -1.307916
H     -0.415167   -0.128469   -1.861664
H     -1.302383    1.372281   -1.258587
