9

O     -1.941068   -0.550680   -0.420595
C     -0.612416   -0.209213   -0.200374
C     -0.113853    1.040421    0.134712
H     -0.672446    1.962634    0.282022
N      1.227494    0.942683    0.257455
N      1.572569   -0.310500    0.012598
H      2.549132   -0.727834    0.024072
N      0.475032   -1.002649   -0.261636
H     -2.484444   -1.144863    0.171746
