15

C     -0.924231   -0.875329    1.106730
C     -0.555222   -0.154027   -0.183112
C     -1.216641    1.162337   -0.401134
H     -2.118670    1.290446    0.255868
H     -1.525925    1.326565   -1.465242
H     -0.507786    1.964386   -0.056062
N     -0.002873   -0.918246   -1.248128
H     -0.171004   -1.599662   -2.020487
C      0.906009   -0.129057   -0.545265
C      2.100484    0.349800   -0.291323
N      3.338125    0.534186   -0.092461
H      3.755377    0.143333    0.800202
H     -1.839852   -1.471518    0.871097
H     -0.063191   -1.507805    1.393381
H     -1.174600   -0.115408    1.875937
