13

C     -1.354546   -0.700509    0.464257
N     -0.592734    0.144529   -0.447970
H     -0.866107    0.102738   -1.449423
C      0.834496    0.197395   -0.232839
C      1.987067   -0.436065   -0.344252
O      2.089074   -1.714333   -0.869531
H      2.887077    0.063033   -0.012170
C     -0.036506    1.318787    0.122412
H     -0.165375    1.485360    1.211518
H     -0.080800    2.228197   -0.536056
H     -0.745949   -1.532064    0.842242
H     -2.268331   -1.051001   -0.066264
H     -1.687367   -0.106068    1.318076
