15

C     -2.184148   -0.607337    0.856747
N     -1.177246   -0.496512   -0.178131
H     -1.443792   -1.077672   -1.023620
C     -0.982301    0.822431   -0.628736
H     -1.728662    1.506277   -1.025110
C      0.295632    1.143456   -0.502108
H      0.710953    2.103590   -0.777624
C      0.981795   -0.016653    0.058937
C      2.444972   -0.099019    0.370433
H      2.647768    0.242885    1.406982
H      2.997091    0.549059   -0.368367
H      2.826179   -1.139631    0.192332
N      0.075048   -0.904733    0.213411
H     -2.307122   -1.714321    1.040039
H     -3.156167   -0.311819    0.364817
