12

C     -2.111752    0.348413    0.008038
C     -0.845960   -0.389370    0.266659
O     -0.303648   -1.554513    0.156728
C      0.485541   -0.584258    0.689806
C      1.651628   -0.105520   -0.108819
O      2.777137    0.091569    0.680553
H      3.447414    0.538144    0.117786
H      1.440323    0.722274   -0.778441
H      0.692353   -0.707556    1.773286
H     -2.713026    0.307669    0.917485
H     -1.846138    1.398580   -0.217864
H     -2.673872   -0.065433   -0.857446
