18

C      2.838836   -0.202472   -0.220562
C      1.669212    0.284914   -0.617059
C      0.463455   -0.501042   -0.373355
C     -0.556774    0.196586    0.488829
C     -1.050397    1.482027   -0.084382
H     -0.557676    1.753530   -1.031868
H     -2.144327    1.456207   -0.287899
H     -0.902088    2.333900    0.626963
C     -1.716481   -0.727848    0.677396
N     -1.881614   -1.714663   -0.107866
H     -2.669551   -2.352490    0.011007
H     -2.444139   -0.587073    1.480226
H     -0.141288    0.388931    1.485247
H      0.021675   -0.758812   -1.373394
H      0.703813   -1.459890    0.121930
H      1.653058    1.239428   -1.102493
H      3.780464    0.333856   -0.371655
H      2.933820   -1.165089    0.279048
