13

N     -1.172998   -1.332795   -0.613080
C     -0.243579   -0.652053    0.267561
H     -0.545470   -0.778269    1.331796
C     -0.158488    0.791503   -0.016183
O     -1.208004    1.725651   -0.029364
H     -1.767494    1.745822    0.814604
C      1.099528    1.084655   -0.265247
H      1.514110    2.074556   -0.514786
C      1.858079   -0.147262   -0.151360
H      2.948032   -0.228498   -0.304331
N      1.091709   -1.126772    0.150512
H     -2.111432   -0.852347   -0.470850
H     -1.303993   -2.304192   -0.199272
