12

N      1.678926   -0.486305    0.259118
C      2.355272    0.555317    0.023374
O      2.946187    1.654989    0.033173
C      0.395887   -0.756319   -0.315266
C     -0.647476   -0.530209    0.761710
H     -0.328484   -0.697070    1.806843
C     -1.633365    0.592126    0.520494
H     -1.943031    1.157595    1.407351
H     -1.425672    1.222635   -0.361221
O     -1.952048   -0.748134    0.373502
H      0.198220   -0.139377   -1.208352
H      0.355584   -1.825249   -0.652955
