12

C     -1.794898    0.478100   -0.150982
C     -1.070595    0.247445    1.115638
C      0.082189   -0.400041    1.116066
C      0.596758   -0.867256   -0.164630
C      1.843995   -0.600309   -0.495877
C      3.098268   -0.377691   -0.664558
H      4.148897   -0.155821   -0.737996
H      0.576577   -0.545974    2.063577
H     -1.512809    0.623449    2.032941
H     -2.887039    0.445114    0.071442
H     -1.501660    1.462262   -0.619260
H     -1.579681   -0.309278   -0.918592
