13

C     -1.829306    0.132319   -0.646123
O     -0.480893    0.518109   -0.483302
C      0.351539    0.018387    0.486587
N      1.696903    0.438500    0.498943
C      2.275986    0.599768   -0.643388
H      1.780778    0.428961   -1.596170
H      3.315629    0.924528   -0.626576
C     -0.073829   -0.829117    1.387935
H      0.588001   -1.221236    2.152483
H     -1.104623   -1.180349    1.415641
H     -2.305165    0.658982   -1.484459
H     -2.368690    0.481809    0.279606
H     -1.846328   -0.970661   -0.741177
