15

C     -1.259172   -1.508898   -0.759956
C     -0.774528   -0.525167    0.290610
H     -1.283331   -0.700932    1.273502
C      0.728468   -0.697984    0.444324
O      1.264985   -1.576570   -0.456624
H      1.951370   -1.130648   -1.016572
H      0.936256   -1.052619    1.474628
C      1.305148    0.661419    0.278399
H      2.356759    0.868435    0.327383
C      0.374635    1.530714   -0.079484
H      0.608493    2.569549   -0.331227
C     -0.928767    0.888630   -0.199176
H     -1.384278    0.925942   -1.206582
H     -1.562673    1.426776    0.542253
H     -2.333367   -1.678648   -0.581477
