15

C     -0.777066   -1.271321   -0.047609
H     -1.545615   -1.955310    0.331443
H     -0.093808   -1.732044   -0.795690
C     -1.169732    0.137952   -0.202792
H     -2.187526    0.472639    0.038268
C     -0.343701    1.136524   -0.963172
H     -0.524287    2.127736   -0.502276
H     -0.539953    1.104933   -2.044794
O      0.997355    0.784229   -0.759818
C      1.103763    0.344674    0.546705
C      2.190738   -0.711862    0.687553
H      2.443373   -1.152425   -0.295212
H      1.293644    1.207217    1.203184
C     -0.218278   -0.282626    0.894535
H     -0.628908   -0.210314    1.909674
