18

C      1.016258    1.124564   -0.088228
C      0.422827   -0.099253    0.419373
C      1.165322   -1.300753   -0.130558
H      1.927669   -1.653179    0.588443
H      1.672018   -1.045635   -1.102138
H      0.431397   -2.091419   -0.386422
N     -1.045311   -0.246704    0.153600
C     -1.591108    0.856265    0.852366
H     -0.921523    1.588344    1.273977
H     -2.187400    0.446104    1.722438
C     -1.408660   -0.345407   -1.171708
O     -0.658313    0.455060   -1.587309
H     -2.026808   -0.799300   -1.911587
H     -1.106180   -1.156779    0.511257
H      0.496297   -0.155004    1.535417
H      1.853825    1.436217    0.608183
H      1.555961    0.974564   -1.070751
H      0.403731    2.012314   -0.216354
