15

C      0.841689   -0.827260   -0.580280
H      0.674994   -1.167639   -1.604332
O      1.738078   -1.501125    0.259692
C      1.802133   -0.132440    0.082609
H      2.803153    0.248353   -0.142847
C      0.767294    0.773142    0.727705
H      0.754583    1.746426    0.175261
H      0.838633    0.878111    1.817210
C     -0.283714   -0.207939    0.228719
C     -1.409463    0.382491   -0.548287
O     -2.622163   -0.023496    0.031145
H     -2.474312   -0.880195    0.518085
H     -1.371647    1.490249   -0.411428
H     -1.448857    0.090553   -1.606469
H     -0.610400   -0.869230    1.053219
