14

C      1.823358   -0.069937    0.149146
C      2.057443   -0.686025   -0.990641
C      0.499138   -0.150868    0.839542
H      0.611146   -0.428525    1.932622
C     -0.455829   -1.014541    0.099799
H     -0.034468   -1.343475   -0.886642
H     -0.893866   -1.862703    0.682647
C     -1.343219    0.158271   -0.110917
H     -2.339258    0.102838    0.417107
H     -1.481826    0.481126   -1.173382
C     -0.390824    1.021068    0.626849
H     -0.779918    1.512483    1.550094
H      0.133355    1.767522   -0.046501
H      2.594768    0.512764    0.611589
