11

N      1.878445    0.642015   -0.748235
C      1.142433    0.053399    0.077002
O      1.400035   -0.642154    1.243930
C      0.220043   -0.976386    1.564070
C     -0.246799   -0.272185    0.374307
C     -1.431891    0.421204    0.115177
H     -1.361817    1.264673   -0.635110
H     -2.254343    0.562167    0.798852
N     -1.203016   -0.898904   -0.469578
H     -1.050579   -0.925964   -1.516957
H      2.907490    0.772135   -0.803457
