11

C     -1.099285   -0.844982    0.195353
C     -0.326854    0.252946   -0.455773
O      0.998506    0.086005   -0.834597
C      1.890324   -0.010188    0.044905
H      2.925361   -0.140118   -0.219626
H      1.625815    0.036937    1.091051
C     -0.924530    1.409240   -0.674168
N     -1.261870    2.609186   -0.341250
H     -0.388988   -1.679645    0.392346
H     -1.953636   -1.179934   -0.391599
H     -1.484844   -0.539448    1.193356
