20

C      1.799766   -0.436255    0.900828
C      0.952639   -0.438297   -0.355903
H      1.316012   -1.240455   -1.066711
N     -0.475007   -0.389889   -0.261411
C     -1.110001   -0.204810    1.017257
H     -2.083034    0.315311    0.872696
H     -1.329346   -1.233737    1.412845
H     -0.536907    0.370687    1.738103
C     -1.272177   -1.189553   -1.192480
H     -1.251284   -0.774739   -2.218482
H     -2.310281   -1.242430   -0.877048
H     -0.765217   -2.185167   -1.245584
C      0.255730    0.663873   -0.889646
C      0.215045    2.062838   -0.408662
H     -0.861774    2.313547   -0.179485
H      0.463172    2.731708   -1.285041
H      0.842656    2.279613    0.469319
H      1.499120    0.293471    1.640414
H      1.801790   -1.473340    1.314146
H      2.849098   -0.222378    0.614848
