13

C      1.927633    0.375849   -0.243427
C      0.497365    0.394255    0.223981
H      0.327510    0.972013    1.142734
O     -0.355651    0.849957   -0.911321
C     -0.535810   -0.446954   -0.294335
C     -1.843135   -0.536161    0.416631
H     -2.691107   -0.427598   -0.298883
H     -1.898001    0.322807    1.145575
H     -1.974158   -1.477844    0.952258
H     -0.301197   -1.314997   -0.937635
H      2.255499    1.457017   -0.280077
H      2.589789   -0.208558    0.397956
H      2.001263    0.040216   -1.313454
