12

O      2.046171   -0.019138    1.242561
C      1.898746    0.020093   -0.132346
C      0.732477    0.015720   -0.730942
N     -0.509969   -0.028894   -0.063584
C     -1.316511   -0.987863   -0.271572
H     -1.049706   -1.769867   -0.960644
H     -2.276008   -1.064069    0.215019
C     -0.856180    0.984793    0.829778
O     -1.954445    0.949057    1.422220
H     -0.189781    1.795833    1.014485
H      0.681438    0.048387   -1.830695
H      2.793767    0.055947   -0.734280
