14

C      2.422005    0.744232    0.504964
C      1.918634   -0.445102    0.719829
O      0.577616   -0.603048    1.001379
C     -0.328222   -0.388667   -0.086004
C     -1.730274   -0.577269    0.300119
C     -2.575331    0.435103    0.173589
H     -2.256552    1.391618   -0.205691
H     -3.633096    0.329154    0.453288
H     -2.057220   -1.537050    0.682353
H     -0.002716   -1.116450   -0.874126
H     -0.127500    0.610386   -0.482636
H      2.541752   -1.313604    0.680006
H      1.775498    1.632927    0.547482
H      3.475406    0.837768    0.286761
