15

C     -1.406476    0.500352    0.077170
H     -2.332692    0.369719   -0.497932
H     -1.511003    1.252730    0.917172
C     -0.220911    0.721058   -0.819799
H     -0.453577    0.776030   -1.903161
O      0.603984    1.667330   -0.342079
C      1.557564    1.289581    0.260635
C      1.601753   -0.181154    0.339531
H      1.605871   -0.467685    1.414577
H      2.521311   -0.548311   -0.164085
C      0.345131   -0.606009   -0.369219
H      0.481015   -1.344868   -1.166398
C     -0.851051   -0.824782    0.527998
H     -1.426306   -1.694348    0.164641
H     -0.514614   -0.909644    1.560947
