15

C      2.323302   -0.490088    0.206668
N      0.936393   -0.028434    0.124703
C      0.505320    1.160152    0.363907
H      1.108929    2.017020    0.667476
N     -0.895450    1.251610    0.186197
H     -1.490479    2.092606    0.313862
C     -1.360951   -0.033299   -0.205973
C     -2.604149   -0.396320   -0.476181
H     -3.389888    0.338667   -0.402709
H     -2.895380   -1.390795   -0.769809
C     -0.163349   -0.874013   -0.247154
H     -0.147978   -1.914829   -0.508544
H      2.407293   -1.404693    0.832214
H      2.756087   -0.631455   -0.814076
H      2.910302    0.303870    0.729420
