15

C      2.018832   -0.711373    0.028668
N      1.005595    0.005654    0.803644
C     -0.052697    0.451422   -0.036493
N     -0.077815    1.750751   -0.606425
H      0.663732    2.344654   -0.160488
H     -1.003935    2.192611   -0.616968
C     -1.139298   -0.473418   -0.309036
O     -0.931236   -1.562480   -1.132290
C     -2.323459   -0.279785    0.224698
H     -3.104699   -0.987034   -0.000502
H     -2.487364    0.568780    0.866712
H      0.615446   -0.674337    1.508111
H      1.825727   -0.587561   -1.070511
H      2.994675   -0.239069    0.259536
H      1.996495   -1.798815    0.241345
