14

C     -1.706490    0.785535    0.732829
C     -1.335360   -0.064786   -0.468358
C     -0.472762   -1.199277   -0.081086
C      0.591734   -0.969728    0.646261
N      1.763665   -0.814406    1.164641
N      2.720532   -0.287025    0.261836
N      3.469832    0.635753    0.754518
H      4.206231    1.074697    0.137566
H     -0.661531   -2.215265   -0.363081
H     -2.280967   -0.502014   -0.905931
H     -0.889901    0.538962   -1.281458
H     -2.739801    1.183313    0.614532
H     -0.998708    1.658992    0.825323
H     -1.666474    0.175248    1.663720
