15

O      0.815619    1.707420   -1.834806
C      0.515946    0.704036   -1.239345
C      0.973383   -0.597424   -0.580187
C      1.867263   -0.329675    0.606875
H      2.912357   -0.276019    0.237317
H      1.809527   -1.164000    1.309844
H      1.620526    0.647544    1.094628
H      1.342992   -1.365200   -1.269671
C     -0.440917   -0.248123   -0.584327
C     -1.148244    0.232875    0.619038
C     -2.481570    0.294985    0.639996
H     -3.037223    0.640227    1.498553
H     -3.041690   -0.005850   -0.221207
H     -0.627023    0.545039    1.506154
H     -1.080947   -0.785835   -1.329764
