16

C     -0.663025   -1.316107    0.535310
C     -0.553955    0.155457    0.320390
C      0.602304    0.439099   -0.605875
N      1.847809    0.002658   -0.137223
C      2.876568    0.704531   -0.371796
H      3.883382    0.503011   -0.081481
H      1.934969   -0.867787    0.387043
O      0.405522    1.028485   -1.708475
C     -1.777914    0.782157   -0.252115
H     -2.595546    0.877523    0.504834
H     -1.513348    1.847419   -0.511331
H     -2.125814    0.329985   -1.190992
H     -0.333211    0.654855    1.287160
H     -1.701350   -1.705565    0.345033
H      0.071903   -1.855436   -0.108499
H     -0.358295   -1.580287    1.588018
