14

C      1.904337    0.979137    0.316241
H      2.138631    1.695327   -0.540249
H      2.733373    1.043928    1.046595
C      0.590718    0.618394    0.332537
N      1.561669   -0.351051   -0.112216
C      0.473137   -1.141718   -0.260118
H      0.540218   -2.031697    0.493946
H      0.302592   -1.551427   -1.224161
C     -0.526644   -0.157270    0.231175
C     -1.821323   -0.396915    0.845597
H     -2.244049    0.305568    1.584397
C     -1.727995    0.195490   -0.605758
H     -2.007554   -0.462917   -1.424327
H     -1.917111    1.255151   -0.683659
