10

N     -1.608437    0.183158    0.512019
H     -2.234836    0.154881    1.347795
C     -1.411380    0.701427   -0.805737
O     -1.696916    1.368637   -1.833114
C     -0.378905   -0.203254   -0.213385
O      0.770102    0.432857    0.319228
C      1.979748   -0.229593    0.410885
O      2.005455   -1.420372   -0.001488
H      2.877656    0.250445    0.821088
H     -0.302488   -1.238187   -0.557292
