15

O      2.022250    0.237965    0.709239
C      0.917953    0.045761    0.004314
C      0.117527   -1.229436    0.024927
H      0.281349   -1.733351    1.038319
H      0.362474   -1.833698   -0.825791
C     -1.166297   -0.494609    0.013553
O     -2.063775   -0.592197    1.014609
H     -2.816002   -0.042933    0.788508
H     -1.700121   -0.602928   -1.031054
C     -0.361662    0.811382   -0.011033
H     -0.569766    1.623115    0.740081
C      0.590001    1.078720   -1.084764
H      0.431230    0.664457   -2.104578
H      1.164127    1.967011   -1.055498
H      2.790711    0.100740    0.079097
