17

C      2.332456    0.620021    0.671711
C      1.283226    0.888491   -0.076852
C      0.249743   -0.091726   -0.492388
H      0.234161   -0.252040   -1.598544
C      0.201927   -1.392571    0.214993
H      0.185526   -2.292275   -0.473564
H      0.930715   -1.539317    1.059669
C     -1.186944   -1.059524    0.655404
H     -1.970855   -1.711778    0.198489
H     -1.333638   -0.960980    1.754526
C     -1.121736    0.229458   -0.052359
C     -1.945069    1.245455   -0.221699
H     -1.650489    2.105775   -0.805598
H     -2.923911    1.232782    0.219747
H      1.121739    1.905591   -0.444342
H      2.564361   -0.352291    1.073052
H      3.028789    1.424927    0.914495
