12

O     -0.401000    2.313952    0.224897
C     -0.106770    1.071395    0.186515
N      1.224125    0.585954    0.239018
H      2.087920    1.165940    0.312508
C      1.241929   -0.846893    0.176909
H      1.841414   -1.213802   -0.689573
H      1.714693   -1.260348    1.089782
C     -0.176484   -1.301258    0.078166
C     -1.019834   -0.072496    0.085458
O     -1.984039   -0.064711    1.089479
H     -2.850878   -0.351531    0.742282
H     -1.571075   -0.026203   -0.887672
