9

C     -1.049652   -0.623313   -0.090993
C     -0.357933    0.670838   -0.145253
N      1.033882    0.584641   -0.406114
C      1.753345   -0.090092    0.423530
O      2.780689   -0.763915    0.584874
H     -0.819766    1.248333   -0.999883
H     -0.612876    1.270497    0.759459
O     -2.238828   -0.761640    0.119873
H     -0.488861   -1.535347   -0.245493
