9

C     -1.347440   -0.054298    0.085261
C      0.131191   -0.078820    0.008369
C      1.265326    0.736087   -0.044327
H      1.638079    1.734437   -0.056144
N      1.415608   -0.669665   -0.062721
H      2.038714   -1.498830   -0.101304
H     -1.708330    0.737870   -0.598769
H     -1.693213   -1.034302   -0.319688
H     -1.739934    0.127522    1.089324
