17

C     -2.069689   -0.144243    0.145074
C     -0.736182    0.155642    0.668629
H     -0.759894    0.304252    1.770570
C      0.296494   -0.932011    0.357194
H     -0.256103   -1.816761   -0.078235
H      0.806259   -1.284332    1.294060
C      1.306400   -0.311720   -0.596503
O      2.638770   -0.444944   -0.097939
H      3.191603   -0.845499   -0.789312
H      1.143722   -0.770597   -1.550085
C      0.956326    1.151347   -0.581683
H      1.579621    1.877704   -1.131230
C     -0.141655    1.421632    0.099812
H     -0.558144    2.371162    0.209511
H     -2.673147    0.809178    0.028381
H     -2.645822   -0.740507    0.995009
H     -2.078557   -0.800304   -0.743251
