14

O      0.218685   -0.827048   -0.359871
C      0.530726    0.391698   -0.460939
N      1.863892    0.843092   -0.180399
C      2.838310   -0.152708    0.223220
H      3.841059    0.299286    0.110846
H      2.658441   -0.497882    1.257213
H      2.079264    1.858246   -0.276206
H     -0.202273    1.130856   -0.763078
C     -1.055983   -1.227252   -0.632815
C     -2.005918   -0.590353   -0.005594
C     -2.923989    0.105318    0.647327
H     -3.181978   -0.305999    1.587891
H     -3.267753    0.966146    0.143941
H     -1.392484   -1.993399   -1.291536
