12

O     -1.617371    1.173265   -0.610185
C     -0.849309    0.540543    0.386463
H     -1.137719    0.900889    1.411134
C     -0.819712   -0.909894    0.183374
H     -1.389424   -1.300790   -0.706268
H     -1.150775   -1.481746    1.089357
C      0.599582   -0.783766   -0.020186
C      0.576416    0.505961    0.159910
C      1.874504   -0.033118   -0.115831
H      2.307906    0.193678   -1.115840
H      2.610691   -0.321941    0.661622
H     -1.004789    1.516918   -1.323550
