12

O     -2.940806    0.459554    0.065157
C     -1.728375   -0.154614    0.411499
N     -0.994369   -0.336412   -0.842890
C      0.277731   -0.487581   -0.720921
C      1.515327   -0.682097   -0.364121
C      2.344566    0.446915   -0.022385
O      2.950815    0.446880    1.087975
H      2.440074    1.275932   -0.711700
H      1.855223   -1.697130   -0.341053
H     -1.858608   -1.085874    0.963497
H     -1.185800    0.608826    1.036594
H     -2.675778    1.205601   -0.561652
