9

N     -1.972371   -0.578008   -0.148823
H     -2.625681   -1.386008   -0.042626
C     -1.771670    0.879976   -0.148995
O     -2.260434    2.033023   -0.022413
C     -0.662804   -0.042982   -0.390766
C      0.590403   -0.299551   -0.642904
C      1.868704   -0.512016   -0.656474
N      3.135983   -0.491028   -0.651872
H      3.697869    0.396596   -0.660785
