17

C      2.840850    0.110029    0.390698
O      1.886683   -0.874668    0.247008
C      0.757346   -0.296113   -0.349565
H      0.785438    0.782567   -0.602059
C     -0.500554   -0.951621   -0.181735
C     -1.823721   -0.301580   -0.442158
C     -2.052197    0.914502    0.424607
H     -2.629126    1.690847   -0.133739
H     -2.668607    0.621350    1.309030
H     -1.086321    1.337005    0.737600
H     -2.648586   -1.028242   -0.271218
H     -1.936973    0.034938   -1.506833
H     -0.550447   -1.870448    0.442427
O      0.256158   -1.168604   -1.383629
H      3.134254    0.552101   -0.579127
H      2.466440    0.843067    1.120597
H      3.769364   -0.395128    0.778096
