15

C     -1.794159   -0.745623    0.327741
C     -1.144997    0.270197   -0.592044
O     -1.523449    1.552927   -0.278751
H     -0.866969    2.066339    0.245473
C      0.341673    0.189981   -0.528049
N      0.923862   -0.099552    0.556683
C      2.356230   -0.161814    0.556600
H      2.688783   -0.630470   -0.389982
H      2.733961    0.857769    0.617625
H      2.773076   -0.753074    1.376103
H      0.923076    0.382762   -1.423130
H     -1.485213    0.053872   -1.623054
H     -1.106104   -1.590150    0.544495
H     -2.700533   -1.166983   -0.165626
H     -2.119237   -0.226181    1.229017
