16

C      1.370266   -0.582145    1.418721
N      0.519847    0.113968    0.653986
C      0.629005    1.366057   -0.127744
H      1.510893    1.946860    0.189807
C     -0.288822    1.453998   -1.018607
H     -0.362465    2.303895   -1.748082
C     -1.309578    0.402375   -0.892719
H     -2.333064    0.665350   -1.061049
C     -0.855128   -0.969809   -1.048753
H      0.216788   -1.271040   -1.410571
H     -1.596450   -1.828225   -1.204971
C     -0.860143   -0.327399    0.258530
H     -1.580337   -0.647457    1.069781
H      2.390452   -0.245486    1.445287
H      1.542774   -1.644462    1.030243
H      1.005960   -0.736479    2.446140
