10

N      2.025661   -0.355772    0.612398
C      1.458413    0.583062   -0.076792
O      0.353102    0.221224   -0.832737
C     -0.554997   -0.693589   -0.367339
C     -1.618710   -0.313677    0.317620
N     -2.527367    0.255449    1.000653
H     -3.319874    0.561968    0.408043
H     -0.531347   -1.748085   -0.483421
H      1.855084    1.585705   -0.039302
H      2.860034   -0.096287    1.186697
