16

C     -2.120881   -0.538819    0.070096
C     -0.704977   -0.341415    0.592326
C      0.155392    0.379238   -0.443197
O     -0.448062    1.603872   -0.674090
H      0.097577    2.377846   -0.409451
C      1.511999    0.476234    0.099231
C      2.406448   -0.470569   -0.143298
H      2.140395   -1.346725   -0.758633
H      3.417948   -0.431153    0.241617
H      1.820753    1.312047    0.705867
H      0.153352   -0.171312   -1.400386
H     -0.264300   -1.335536    0.762337
H     -0.794210    0.278321    1.500163
H     -2.066364   -0.456014   -1.030991
H     -2.477975   -1.540684    0.386988
H     -2.827094    0.204671    0.501422
