13

C      2.221730    0.473421    0.336190
C      0.858026   -0.140501    0.210960
O      0.487586   -1.252043    0.958094
H     -0.365255   -1.727371    0.765572
N     -0.033049    0.336005   -0.596517
C     -1.320849   -0.222422   -0.732402
C     -2.376140    0.414703   -0.286361
H     -2.289571    1.387939    0.199185
H     -3.385039    0.031302   -0.365267
H     -1.425987   -1.174688   -1.205148
H      2.180421    1.402717    0.971894
H      2.925250   -0.258629    0.747769
H      2.522877    0.729567   -0.719483
