10

O      0.129120    1.839637    0.321653
C     -0.114119    0.560711    0.497239
C      0.320627   -0.212595   -0.619723
N      0.869293    0.078344   -1.770742
N      1.975580   -0.400047   -2.280107
H      0.304389   -1.332766   -0.305055
N     -0.640662   -0.251704    1.347169
C     -1.180759   -1.048343    2.206694
H     -1.592175   -1.625901    2.845130
H     -0.071293    2.392665   -0.516439
