9

N     -1.151374   -0.039270    0.019753
H     -1.752966   -0.017403   -0.830237
H     -1.689264   -0.110920    0.910682
C     -0.375451    1.122617    0.058074
C      0.876866    0.765062    0.015483
H      1.726130    1.426273    0.028876
C      0.895981   -0.695120   -0.053216
H      1.781640   -1.317206   -0.100612
N     -0.311564   -1.134032   -0.048803
