12

C     -1.623622   -0.318315   -0.215867
C     -0.375141    0.503622    0.052154
O     -0.299254    0.756909    1.407975
H     -0.243945    1.704991    1.638691
C      0.830429   -0.229712   -0.483379
H      0.583031   -0.904979   -1.333923
C      2.129488    0.306888   -0.370225
H      3.122879    0.633961   -0.204159
O      1.637294   -0.815318    0.464658
H     -2.313431    0.264445   -0.864772
H     -1.352082   -1.233749   -0.802679
H     -2.095646   -0.668744    0.711526
