11

C     -1.534784    0.250620    0.072924
C     -0.343319   -0.492723    0.511989
N      0.820078   -0.702196   -0.243087
C      1.687797    0.453921   -0.213568
H      2.180310    0.564811    0.753954
H      2.449853    0.425686   -1.020328
H      0.656468   -0.994493   -1.229325
H     -0.367223   -0.922706    1.523111
H     -1.410128    0.583509   -0.966423
H     -1.694825    1.183224    0.677083
H     -2.444225   -0.349653    0.133669
