10

N     -1.794189    0.913044   -0.615231
C     -0.933870   -0.162892   -0.305436
N     -0.830912   -1.416472    0.116252
C      0.382774   -0.827124   -0.167237
N      1.155394   -0.320884    0.949891
N      2.345957   -0.058449    0.878627
H      2.932877    0.304077    1.650932
H      0.937681   -1.049732   -1.101881
H     -1.908116    1.653881    0.132138
H     -2.287597    0.964552   -1.538055
