16

C     -0.734663    1.290592    0.413638
C     -0.104694   -0.042274    0.038007
C     -1.091880   -0.855081   -0.762413
H     -1.729678   -1.396632   -0.032240
H     -1.785233   -0.224359   -1.358206
H     -0.634681   -1.596487   -1.410532
C      0.471951   -0.808502    1.144118
H      0.174004   -1.884915    1.137720
H      0.361009   -0.346955    2.171956
N      1.714528   -0.602234    0.514608
C      1.241897    0.057183   -0.442981
O      1.936959    0.634584   -1.544789
H      2.857014    1.018342   -1.372849
H     -1.441632    1.097300    1.244865
H     -1.287347    1.656858   -0.467718
H      0.052447    2.002579    0.726817
