13

C      0.047939   -1.303144    1.035341
C     -0.025357   -0.171196    0.104583
C      1.040721    0.830785    0.091650
H      0.892841    1.635234    0.860545
H      2.025525    0.366496    0.284929
H      1.037950    1.387639   -0.888110
C     -1.035398   -0.064363   -0.702602
C     -1.114387    1.041149   -1.616931
N     -1.188914    1.929676   -2.357626
H     -1.831894   -0.802856   -0.700890
H     -0.660428   -2.126424    0.735144
H      1.089846   -1.697677    1.081568
H     -0.278444   -1.025317    2.072399
