12

O     -2.377806    0.678695    0.393781
C     -1.030916    0.379337    0.220269
C      0.042352    0.901220   -0.322693
H      0.174651    1.845836   -0.858114
C      0.992867   -0.165502    0.010143
O      1.933205    0.142497    0.989035
H      2.814323    0.359923    0.629083
H      1.383278   -0.726978   -0.861716
C     -0.225605   -0.795357    0.646443
H     -0.156519   -0.932515    1.744806
H     -0.518214   -1.757689    0.148843
H     -3.031614    0.070533   -0.092109
