11

N     -1.909985    0.876517   -0.055281
C     -0.854418   -0.061126    0.101476
C     -0.504504   -1.375855   -0.017895
H     -0.808765   -2.387782   -0.281914
C      0.525348   -0.475721    0.444810
N      1.542368   -0.049954   -0.501651
N      2.523744    0.599655   -0.136980
H      3.271767    0.927536   -0.754304
H      0.817479   -0.519206    1.527883
H     -2.912607    0.603234    0.028276
H     -1.690427    1.862703   -0.258591
