15

C      0.975112   -0.525552    0.305273
C      2.201518   -0.390008   -0.155785
H      3.004476   -0.968573    0.255580
H      2.434740    0.296698   -0.949872
C     -0.140046    0.250328   -0.236497
C     -0.792182    1.035545    0.899949
H     -1.105302    2.001222    0.503573
H     -1.661609    0.475041    1.294418
H     -0.046521    1.159219    1.696550
C     -1.236409   -0.619654   -0.822453
H     -2.055679   -0.782180   -0.079005
H     -0.886110   -1.593302   -1.151188
H     -1.694945   -0.048829   -1.654070
H      0.238246    0.937579   -1.016260
H      0.764713   -1.227534    1.109786
