17

C     -2.253705    0.013279   -0.094852
C     -0.855493   -0.438752   -0.401893
C      0.163607    0.376444    0.399828
O     -0.079969    0.205295    1.769071
H     -1.007516   -0.056040    1.947494
C      1.522848   -0.045874    0.036732
C      2.371320    0.816407   -0.474678
H      3.368112    0.504462   -0.740396
H      2.075350    1.842934   -0.631943
O      1.931811   -1.355255    0.226518
H      2.014187   -1.987505   -0.582812
H     -0.040966    1.426518    0.172225
H     -0.649766   -0.272200   -1.477180
H     -0.715452   -1.515889   -0.151996
H     -2.842934   -0.764704    0.417598
H     -2.216220    0.894170    0.593824
H     -2.785212    0.356709   -1.007538
