11

O      1.891241    0.846292   -0.232625
C      0.606091    0.295644   -0.129552
C     -0.512774    0.971548    0.060827
O     -0.604459    2.340298    0.190834
C     -1.655316    0.072878    0.116831
H     -2.708986    0.240809    0.255317
C     -1.164946   -1.122515   -0.044937
C      0.299384   -1.156015   -0.219966
H      0.749096   -1.713634    0.645433
H      0.556830   -1.595681   -1.192487
H      2.543839    0.820376    0.550325
