16

C     -1.245056   -0.550940   -0.729823
H     -1.541592    0.222397   -1.528501
H     -1.871378   -1.482330   -0.994051
C     -1.748385    0.040566    0.553094
C     -0.611189    0.853637    1.117097
H     -0.795678    0.996269    2.240759
H     -0.757816    1.901126    0.669977
C      0.759189    0.405835    0.964068
H      1.021498   -0.486973    1.564792
H      1.463449    1.202517    1.281611
C      1.177966    0.162051   -0.528744
H      2.144745   -0.277371   -0.506362
H      1.062381    1.043881   -1.097569
C      0.142964   -0.962641   -0.844596
H      0.363310   -1.213592   -1.904250
H      0.435592   -1.854430   -0.257501
