12

O      1.714214   -0.408408   -0.847461
C      0.572378   -0.230004   -0.058924
H      0.669779   -0.057061    1.011054
C     -0.745557   -0.878156   -0.577208
H     -0.865038   -1.753440   -1.080595
C     -1.826582   -0.010266    0.152090
H     -1.708559    0.105860    1.237615
H     -2.798207   -0.144280   -0.326106
C     -0.662061    0.503062   -0.748443
H     -0.657880    1.228095   -1.455492
N      2.712165    0.443607   -0.790814
C      3.595349    1.200991   -0.721610
