10

O     -1.004109    0.162713   -0.921863
C     -0.256937    0.872169    0.030990
H     -0.317551    1.913631    0.086055
C      1.059505    0.149117   -0.038158
H      1.689134    0.420026   -0.878933
H      1.527600    0.194026    0.952203
O      0.546929   -1.172383   -0.149623
C     -0.798970   -0.914052   -0.024208
H     -1.511616   -1.701956   -0.034691
O     -0.933985    0.076708    0.978227
