17

O      3.247408    0.681183    0.020869
C      2.375259   -0.362568    0.410331
C      1.178257   -0.245121   -0.537594
C      0.152936   -1.287409   -0.255810
C     -1.145567   -0.741727    0.264292
O     -1.545874    0.418789   -0.405164
C     -2.754304    0.795800    0.188186
H     -3.175804    1.712654   -0.261549
H     -3.500956   -0.017029    0.082926
H     -2.568661    1.037719    1.272910
H     -1.947055   -1.491535    0.088460
H     -1.076341   -0.486152    1.349332
H      0.808798    0.779841   -0.600793
H      1.608641   -0.477910   -1.556937
H      2.862243   -1.345421    0.311555
H      2.053824   -0.246802    1.442740
H      3.427196    1.275686    0.782987
