13

O      2.265298    0.438092    0.064924
C      0.934599    0.730567   -0.262301
H      0.850475    1.713558   -0.809214
C      0.155613   -0.300668   -0.914650
H      0.721646   -1.279867   -0.988453
H     -0.318848   -0.049069   -1.909619
N     -0.661059   -0.303276    0.203835
C     -1.841375   -1.079159    0.529995
H     -1.784542   -2.152756    0.583226
H     -2.802004   -0.634299    0.728694
C     -0.032387    0.569078    0.797335
H     -0.201225    1.034648    1.807540
H      2.713810    1.313149    0.168687
