13

C     -1.958579    0.486859    0.214893
C     -0.943370   -0.360786   -0.511269
C      0.398402   -0.094308    0.064971
N      1.490544   -0.556727   -0.449133
C      2.747822   -0.280595    0.129077
O      3.690323    0.137520   -0.572567
H      2.902679   -0.428072    1.176084
H      0.511863    0.509855    0.955469
H     -0.972199   -0.066706   -1.593604
H     -1.188101   -1.455276   -0.430391
H     -1.497718    1.040500    1.081721
H     -2.739128   -0.163276    0.676542
H     -2.442538    1.231014   -0.457307
