14

C     -1.579662   -0.526328   -0.181765
C     -0.413684    0.034994    0.609690
H     -0.486308   -0.307681    1.660853
C      0.907516   -0.139329   -0.013649
C      1.730935   -1.127174   -0.313267
H      2.680320   -0.959275   -0.790816
H      1.441104   -2.145237   -0.069757
N      0.981201    1.265283   -0.191374
H      1.687932    1.927961   -0.601225
C     -0.293238    1.485441    0.404652
O     -1.009457    2.509656    0.648591
H     -2.523868    0.012701    0.057866
H     -1.381791   -0.442710   -1.268280
H     -1.740999   -1.588303    0.048482
