15

C      1.742341   -0.626487    0.297859
C      0.460951    0.089714   -0.009295
C      0.456691    1.509271   -0.389725
O      0.066357    1.963289   -1.440538
H      0.816909    2.222461    0.351435
C     -0.794747   -0.405400    0.785470
H     -0.855642   -0.740747    1.747094
C     -1.938164    0.084128   -0.164134
H     -2.869242   -0.494985   -0.094066
H     -1.916060    1.129156   -0.479139
C     -0.707457   -0.804758   -0.541006
H     -0.665419   -1.619582   -1.153556
H      1.703204   -1.687004    0.007980
H      2.535658   -0.139511   -0.288424
H      1.964620   -0.479546    1.370045
