19

C     -3.277062    0.134886   -0.285768
O     -2.240261   -0.764337   -0.525426
C     -1.023497   -0.198579   -0.109281
C      0.079103   -1.214409   -0.389758
C      1.399096   -0.630869    0.048486
C      1.708733    0.658658   -0.705496
C      2.898076    1.268172    0.008306
H      3.336613    2.118254   -0.544651
H      3.634403    0.471951    0.249643
H      2.497899    1.647295    0.987957
H      2.242404   -1.299780   -0.099539
H      1.306669   -0.391897    1.124793
H      0.065595   -1.532783   -1.444915
H     -0.106716   -2.102397    0.248384
H     -0.802071    0.742834   -0.611446
H     -1.109621   -0.026974    0.970685
H     -3.057473    1.071020   -0.873353
H     -4.228882   -0.324693   -0.565865
H     -3.323009    0.373649    0.813355
