12

C      1.944240    0.296092   -0.316125
C      1.020788   -0.282223    0.677908
O      1.279149   -0.179846    2.029242
C     -0.051745   -0.894484    0.228618
O     -1.240712   -1.058662   -0.154707
C     -2.159221   -0.007009   -0.145783
H     -2.871344   -0.182172   -1.000306
H     -1.743426    0.988195   -0.267490
H     -2.822993   -0.009115    0.763226
H      2.607932   -0.481817   -0.774897
H      1.404041    0.765977   -1.175147
H      2.633290    1.045063    0.135460
