11

C     -1.273646   -0.157288   -0.083789
C     -0.070039   -0.090259    0.824886
C      1.046646    0.533508    0.074991
C      1.585802    1.653749    0.524431
C      1.561743   -0.045673   -1.129747
N      1.991988   -0.503469   -2.126428
H     -0.263531    0.365574    1.787104
H      0.246181   -1.160267    1.000807
H     -1.009588   -0.216019   -1.139215
H     -1.946828    0.702599    0.112941
H     -1.868728   -1.082454    0.154019
