16

C     -2.385561    0.220461   -0.295083
C     -1.222783   -0.385621   -0.996437
C      0.040694   -0.413438   -0.172622
C      0.448381    0.967990    0.210609
O      1.627136    1.237645    0.317029
C      2.617197    0.306669    0.095149
H      2.791290    0.160744   -0.984397
H      3.560173    0.609614    0.577386
H      2.312379   -0.652853    0.571550
H     -0.015179   -1.099577    0.691422
H      0.842384   -0.811726   -0.834036
H     -1.416497   -1.430833   -1.327948
H     -0.976019    0.247228   -1.901235
H     -2.832930    1.052450   -0.903371
H     -2.193303    0.547036    0.732375
H     -3.197363   -0.555788   -0.237515
