13

N     -1.068521   -1.746859    1.769371
C     -1.102272   -0.959834    0.929567
C     -1.144093    0.049614   -0.154822
H     -1.952789   -0.025024   -0.902096
C     -0.697518    1.442814    0.195513
H     -1.157033    2.309580   -0.333184
H     -0.534494    1.642920    1.266444
C      0.198382    0.563259   -0.580808
N      1.375092    0.108278    0.057360
C      1.816125   -1.066243   -0.135661
H      2.728786   -1.378946    0.376605
H      1.273645   -1.721069   -0.802060
H      0.264691    0.781510   -1.686231
