13

C      1.913367    0.510046    0.319858
C      0.627605    0.230646    0.125268
C     -0.676304    0.901723    0.036316
H     -0.929215    1.373639    1.009924
H     -0.776049    1.675083   -0.757237
C     -1.385013   -0.387426   -0.199855
H     -2.113416   -0.692729    0.599622
H     -1.844846   -0.527209   -1.197449
C     -0.065272   -1.070698   -0.110283
H      0.326357   -1.508946   -1.056599
H      0.056372   -1.808917    0.711181
H      2.690365   -0.242878    0.332783
H      2.176050    1.547665    0.470958
