13

N      2.570759   -0.003801   -0.034339
C      1.722319    0.517275    0.795550
O      0.385448    0.467747    0.448977
C     -0.087303   -0.596916   -0.320458
C     -1.538990   -0.476795   -0.589550
C     -2.190977    0.558855   -0.104001
H     -3.254653    0.728010   -0.251047
H     -1.676516    1.299906    0.475449
H     -2.065887   -1.216359   -1.170959
H      0.498009   -0.766045   -1.246433
H      0.024284   -1.540315    0.292230
H      2.040702    0.979777    1.734484
H      3.572804    0.048662    0.254582
