16

C      2.000330    0.677669   -0.666597
C      0.993787   -0.349755   -0.165063
H      1.548746   -1.300548    0.064379
O      0.194752    0.049597    0.845720
C     -0.923039   -0.160104    0.119922
O     -1.680966   -1.192406    0.739435
H     -1.603622   -1.043189    1.714955
N     -1.757546    1.017946   -0.129390
H     -2.358254    0.752739   -0.955944
H     -2.414257    1.078513    0.680793
C     -0.147180   -0.617028   -1.054343
H     -0.283924    0.093949   -1.909402
H     -0.326344   -1.681656   -1.342321
H      2.557391    1.072321    0.192854
H      1.526550    1.488766   -1.233539
H      2.673575    0.113186   -1.358582
