14

C      1.094182    0.839283   -0.246656
H      1.273981    0.977835   -1.319919
H      1.819674    1.392491    0.386669
C      1.057709   -0.637221    0.094954
H      1.154828   -1.309544   -0.766739
H      1.720152   -0.947543    0.918289
C     -0.354668   -0.493373    0.572357
H     -0.579055   -0.780903    1.590223
C     -0.308921    0.961906    0.232147
H     -0.506404    1.645583    1.073715
O     -1.304521    0.815451   -0.700742
C     -1.423217   -0.547461   -0.456095
H     -2.423234   -0.752840   -0.025906
H     -1.220507   -1.163665   -1.352297
