10

O      2.598106   -0.208925   -0.282620
C      1.231543   -0.261427    0.082364
C      0.458211   -1.042466    0.700350
C     -0.679662   -0.236183    0.538781
O     -1.697758   -0.768644   -0.292433
H     -1.261937   -0.853597   -1.185234
H     -1.141305    0.123814    1.499652
C      0.171642    0.700044   -0.183377
H     -0.047727    0.905143   -1.256298
H      0.368885    1.642240    0.378816
