13

O      0.475693   -1.222608   -0.174068
C      1.119708   -0.009528   -0.150728
N      2.503953   -0.041428   -0.230403
H      2.907673   -1.035358   -0.357685
C      0.242885    1.132753   -0.030006
H     -0.116240    1.415699   -1.145476
H      0.492635    2.058529    0.442689
C     -1.033079    0.422828    0.377886
H     -0.831135    0.182420    1.562052
H     -2.021162    0.919327    0.320097
C     -0.934767   -0.976869   -0.114120
H     -1.325754   -1.764307    0.588283
H     -1.480409   -1.081458   -1.088519
