10

O      1.840649   -1.080040   -0.072407
C      1.466933    0.263987    0.036962
C      0.176778    0.514977    0.081731
O     -0.756663   -0.510077    0.022623
C     -2.116266   -0.297104    0.065901
O     -2.535571    0.885194    0.163925
H     -2.856883   -1.085467    0.020895
H     -0.162720    1.511376    0.164060
H      2.229636    1.047448    0.081157
H      2.714107   -1.250295   -0.564847
