15

C      2.118672   -0.783765   -0.102220
C      0.807020   -0.102208   -0.119717
C     -0.315235   -0.640099    0.330033
H     -0.457520   -1.634416    0.770975
C     -1.422764    0.290227    0.168145
N     -2.799176    0.099460    0.525335
H     -2.993247   -0.479441    1.349685
H     -3.591403    0.515842   -0.006854
C     -0.892829    1.368306   -0.385853
N      0.475268    1.197091   -0.591307
H      0.642492    1.182221   -1.637460
H      1.029095    1.944586   -0.127592
H      2.280157   -1.438200   -0.979876
H      2.962729   -0.075384    0.010255
H      2.156740   -1.444221    0.796451
