11

N      0.868735   -1.070182   -0.748616
C      1.078718   -0.000980   -0.080807
O      2.333462    0.250760    0.508758
H      3.058127   -0.447654    0.384855
N      0.009954    0.928521    0.052236
C     -1.315207    0.439643    0.125013
N     -1.548316   -0.783035    0.437504
H     -2.534419   -1.111242    0.482094
H     -2.151189    1.079890   -0.077809
H      0.246878    1.964217    0.095237
H     -0.046743   -1.249938   -1.178465
