9

O      2.623188   -0.592854   -0.256148
C      1.715245    0.225788    0.028748
C      0.310606   -0.184897   -0.067034
N     -0.309603   -1.251215   -0.392466
C     -1.558176   -0.625740   -0.160692
H     -2.564034   -0.958196   -0.241576
N     -0.926013    0.450875    0.167733
O     -1.288110    1.728555    0.585721
H      1.996896    1.207683    0.335714
