10

C     -1.350148   -0.380014    0.417591
O     -0.661581    0.812730    0.707700
C      0.570345    1.145879    0.238284
N      1.329314    0.177433   -0.098342
C      2.001271   -0.758130   -0.592936
H      1.757546   -1.032914   -1.626939
H      0.993319    2.112410    0.111469
H     -2.338380   -0.430522    0.913358
H     -0.758407   -1.287860    0.624909
H     -1.543279   -0.359012   -0.695093
