11

C     -1.748442    0.437377    0.079057
C     -0.654734   -0.581343    0.078112
O     -0.942103   -1.804328    0.058562
N      0.673645   -0.084681    0.099998
C      1.589377   -0.826017   -0.416859
O      2.916666   -0.524185   -0.490407
H      3.212313    0.419691   -0.217735
H      0.965487    0.828959    0.499683
H     -1.637561    1.159144   -0.748708
H     -2.751756   -0.032794    0.114634
H     -1.622893    1.008178    1.039491
