14

O      0.423323    1.441347    0.315366
C      1.055762    0.251511   -0.059724
C      2.363719    0.259746   -0.213132
H      2.858162   -0.646877   -0.500425
H      2.972253    1.139229   -0.063811
N      0.334578   -0.947403   -0.276221
H      0.859801   -1.827172   -0.560239
C     -1.081303   -0.978264   -0.115802
H     -1.396795   -1.739241    0.633806
H     -1.512064   -1.346496   -1.093927
C     -1.674256    0.301995    0.277401
H     -2.765280    0.385077    0.427999
C     -0.953206    1.394830    0.467212
H     -1.484693    2.311717    0.761496
