14

C     -1.347260   -0.954385    0.750406
C     -0.957067    0.336263    0.065866
H     -1.726940    0.682667   -0.663040
C     -0.037180    1.292685    0.685680
H     -0.176214    2.366414    0.384578
H      0.344413    1.150795    1.709656
C      0.486770    0.400540   -0.396814
O      1.343638   -0.576712   -0.004245
C      2.531164   -0.425000   -0.212365
H      3.185917   -1.233900    0.118650
H      0.691595    0.818147   -1.396568
H     -0.641442   -1.215527    1.554389
H     -1.318113   -1.751010   -0.021839
H     -2.379282   -0.890978    1.126960
