16

C      1.960023    0.095332    0.928819
C      0.852665   -0.187551   -0.044437
H      1.075699   -1.241565   -0.536537
C     -0.525440   -0.332029    0.469960
H     -0.736503   -0.231097    1.571488
C     -1.606286   -0.886036   -0.359073
H     -1.328721   -1.535969   -1.229064
H     -2.507101   -1.290156    0.167243
C     -1.391311    0.545222   -0.456649
H     -2.100912    1.211431    0.039823
C     -0.407746    1.175925   -1.279617
H     -0.789547    1.998564   -1.979163
N      0.752576    0.785155   -1.119769
H      2.748947   -0.752595    0.748756
H      1.564094   -0.329749    1.945859
H      2.439563    0.975117    1.132361
