12

C     -0.797687    0.197521   -0.214738
C      0.327961   -0.691355    0.143003
C      1.572699    0.171539    0.350738
H      1.396989    1.188839   -0.063672
H      2.437966   -0.238852   -0.226548
H      1.777695    0.175903    1.439127
H      0.078135   -1.258687    1.063970
H      0.559404   -1.390209   -0.710350
C     -1.908357    0.323135    0.458605
H     -2.714039    0.983646    0.169365
H     -2.050928   -0.257859    1.360590
H     -0.679838    0.796380   -1.122321
