11

N      1.967904    0.572090    0.092794
C      1.273070   -0.645312    0.108410
O      1.793976   -1.638054    0.631420
N     -0.003574   -0.741467   -0.463620
C     -0.958307   -0.052240    0.082305
N     -2.284489   -0.046351   -0.376609
H     -2.545139    0.512517   -1.204290
H     -3.014684   -0.596264    0.102197
H     -0.745215    0.575778    0.960670
H      2.994873    0.559924   -0.107164
H      1.521584    1.499379    0.269717
