15

C      2.477780    1.042243    0.213410
N      1.226566    0.433773   -0.120209
C      0.941718   -0.751376    0.275081
C     -0.366856   -1.350793   -0.090467
H     -0.398321   -2.273092   -0.700037
C     -1.577555   -0.542538   -0.022452
C     -2.561814    0.446515   -0.467655
H     -2.030997    1.208998   -1.075116
H     -3.334381   -0.069095   -1.057299
H     -3.056383    0.991964    0.367289
N     -1.336249   -1.387515    0.995060
H      1.623597   -1.338723    0.870648
H      2.349097    1.926333    0.878826
H      2.926445    1.376515   -0.764519
H      3.117352    0.286792    0.697439
