20

C      0.511457   -1.678916    0.680464
C      0.627288   -0.170037    0.743122
N      1.904895    0.182334    0.276396
C      2.083077    1.109280   -0.566618
H      3.099009    1.339669   -0.893622
H      1.302057    1.697904   -0.993854
C     -0.486774    0.535023    0.058492
C     -0.609234    0.221260   -1.402876
H     -0.818063    1.147307   -2.010041
H      0.266037   -0.337551   -1.791995
H     -1.495759   -0.431278   -1.541663
C     -1.832557    0.265911    0.749903
H     -2.563618    0.920207    0.233953
H     -2.097668   -0.804507    0.601971
H     -1.764583    0.489875    1.823011
H     -0.339261    1.627566    0.169040
H      0.531755    0.079069    1.842422
H      0.427503   -2.034397   -0.370130
H      1.505491   -2.072458    1.039783
H     -0.251052   -2.086262    1.352240
