12

O      1.646603   -0.807167    2.032338
C      0.654394   -0.596248    1.359740
C      0.799423    0.019630    0.040635
H      1.838517    0.260550   -0.267160
C     -0.054581   -0.647765   -1.036375
H      0.427989   -0.846237   -1.989947
H     -0.855254   -1.346564   -0.716605
C     -0.290286    0.783525   -0.606618
N     -1.458525    1.110437    0.081699
C     -2.431850    1.397058    0.640290
H      0.015286    1.563964   -1.343625
H     -0.291716   -0.891183    1.805627
