10

O      2.376736    0.508021    0.047744
C      1.128882   -0.125452    0.228170
N      0.136303    0.804722   -0.268898
C     -1.093997    0.542396   -0.150811
C     -2.255721    0.066216    0.251451
H     -2.687011    0.335646    1.178291
H     -2.752510   -0.615601   -0.403562
H      0.957542   -0.295408    1.304993
H      1.110083   -1.093532   -0.303656
H      3.079693   -0.127008   -0.157902
