12

N     -1.539318   -0.612417    0.244578
H     -1.280345   -1.114384    1.132796
C     -0.398552   -0.148666   -0.559804
C      0.946381   -0.676006   -0.171911
H      0.953265   -1.760555    0.097484
C      2.081426   -0.160840   -1.039072
N      1.962810    0.158383    0.365541
H      1.815820    1.126429    0.660079
H     -0.617683   -0.285303   -1.658789
C     -1.174678    0.800246    0.167001
H     -0.833214    1.244629    1.120699
H     -1.915912    1.428485   -0.358600
