10

O     -0.368995    1.933341   -0.586022
C     -0.131494    0.802918   -0.096898
C     -0.177541    0.605968    1.363542
O      0.118894   -0.718798    1.675141
H     -0.273042   -1.303656    0.950971
H      0.616286    1.235931    1.838855
H     -1.137023    0.904536    1.793746
C      0.186577   -0.293552   -0.999321
C      0.462830   -1.199135   -1.769125
H      0.703507   -1.967553   -2.445068
