14

C     -2.276235   -0.353367    0.204521
C     -0.961556   -0.049815   -0.463799
O     -0.004748    0.124757    0.588325
C      1.316350    0.418052    0.293828
O      1.583173    1.672578   -0.231398
H      2.050681    1.705884   -1.130752
C      2.301031   -0.441740    0.494526
H      2.107776   -1.423634    0.903487
H      3.326846   -0.196889    0.259167
H     -1.002639    0.853014   -1.108912
H     -0.629701   -0.944364   -1.034195
H     -3.137008   -0.279907   -0.460774
H     -2.209701   -1.386787    0.602889
H     -2.464269    0.302219    1.083087
