11

C      0.197018    0.311575    0.980603
H      0.038786    0.183916    1.974537
C     -0.912625    0.502568   -0.086283
H     -1.631039    1.205827   -0.021059
C     -0.947098   -0.843337   -0.674688
H     -1.863805   -1.338629   -0.961373
N      0.235466   -1.273646   -0.767423
C      1.108169   -0.551624    0.042154
H      2.085598   -0.766223    0.295399
C      0.591882    0.906007   -0.148927
H      1.097648    1.663568   -0.632941
