14

C     -1.509773   -0.904374    0.319174
C     -0.128130   -0.446450    0.116534
C      0.238478    0.920188   -0.252661
C     -0.577690    1.944938   -0.461120
H     -0.216346    2.922774   -0.731486
H     -1.643855    1.820899   -0.362893
C      1.694368    0.911699   -0.341772
C      2.189717   -0.280932   -0.070696
H      3.245783   -0.585363   -0.059767
N      1.100925   -1.146639    0.216863
H      1.204520   -2.152820    0.465253
H     -1.510336   -2.008070    0.462444
H     -1.918253   -0.394245    1.223621
H     -2.169410   -0.601607   -0.523493
