9

N     -1.827871    0.992206   -1.442321
C     -1.095370    0.101203   -0.895610
O     -1.108097   -0.889425    0.134873
C      0.086118   -0.748600   -0.620909
C      1.234481   -0.153391    0.065154
C      2.186338    0.339546    0.655889
H      2.999595    0.779983    1.171163
H      0.323597   -1.573981   -1.322051
H     -2.798791    1.152459   -1.111847
