9

C     -1.081292   -0.022583   -0.485782
N      0.246854   -0.564005   -0.339084
C      1.358380    0.317118   -0.232406
O      1.131672    1.540167   -0.271063
H      2.367668   -0.102699   -0.120839
H      0.392662   -1.590885   -0.311305
H     -1.364629    0.659625    0.353284
H     -1.848507   -0.821348   -0.547030
H     -1.202808    0.584610   -1.411431
