9

C     -0.643716   -0.363689   -0.562722
C     -1.591339    0.019295    0.424139
O     -1.945289    1.205869    0.586538
H     -2.023303   -0.732477    1.057037
C      0.619121   -0.106003   -0.310269
C      1.839464    0.203130    0.022475
H      2.365000   -0.553774    0.566465
H      2.174530    1.167888   -0.281010
H     -0.794468   -0.840239   -1.502653
