9

C     -1.235877   -0.051526    0.157704
C      0.090793    0.069963    0.800719
C      1.261306    0.056255   -0.109608
H      1.841358   -0.883392    0.078522
H      1.947399    0.893761    0.183316
H      1.040810    0.157890   -1.175178
H     -2.019193    0.322216    0.876749
H     -1.550458   -1.111242   -0.052531
H     -1.376138    0.546074   -0.759693
