11

N      2.223828    0.156873    0.313161
C      0.821221    0.214249    0.124883
C      0.175280   -0.908716    0.006222
N     -1.081345   -0.957470   -0.165261
H     -1.504703   -1.905593   -0.248945
C     -1.915009    0.191487   -0.246179
H     -2.985444    0.155073   -0.392092
N     -1.298131    1.339914   -0.130741
N      0.090348    1.415087    0.059321
H      2.770504   -0.688385    0.044383
H      2.703452    0.987480    0.731077
