16

C     -2.266945   -0.498809    0.294551
C     -0.841084   -0.774625    0.666611
C      0.168072   -0.130242    0.120209
C     -0.073769    0.915548   -0.906377
H     -1.131782    0.900069   -1.247339
H      0.604292    0.784632   -1.794989
H      0.164179    1.896790   -0.398440
C      1.558933   -0.402041    0.485795
C      2.572985    0.235545   -0.053675
H      2.376497    0.986147   -0.792187
H      3.566050   -0.012574    0.259497
H      1.723220   -1.181331    1.249576
H     -0.584883   -1.528728    1.412952
H     -2.902970   -1.148865    0.921178
H     -2.501442    0.560821    0.564390
H     -2.431353   -0.602337   -0.781753
