12

C     -1.124290   -0.594303    0.415268
H     -2.247726   -0.487595    0.480352
H     -0.741052   -1.264075    1.198091
C     -0.453455    0.679968    0.066804
H     -0.975061    1.629480   -0.025727
C     -0.544773   -0.443338   -0.891545
H     -1.217958   -0.397742   -1.794879
O      0.802469   -0.758439   -1.128218
C      1.571678   -0.125754   -0.179287
H      2.639756   -0.307629   -0.012995
C      0.939790    0.727217    0.553393
H      1.350622    1.342209    1.318745
