11

O     -0.520205   -1.514470    1.294636
C     -1.394900   -0.914201    0.675684
C     -1.242178    0.154191   -0.253118
C     -0.093931    0.669965   -0.592893
C      1.157907    0.207964   -0.058044
N      2.294234    0.760309   -0.431342
H      3.185030    0.429742   -0.049158
H      1.295960   -0.582341    0.654366
H     -0.083374    1.479935   -1.307673
H     -2.175528    0.574716   -0.719121
H     -2.423016   -1.265810    0.882493
