19

C      1.901678   -0.261955    0.284323
C      1.277846    0.863043   -0.487725
C     -0.218284    0.864752   -0.455871
H     -0.563214    1.752629   -1.048564
C     -0.848135   -0.359524   -1.039778
H     -0.184394   -0.916967   -1.712222
H     -1.750529   -0.087593   -1.695915
C     -1.367658   -1.200274    0.079605
H     -2.422570   -1.546018   -0.099489
H     -0.735678   -2.040624    0.364517
C     -1.419895   -0.246913    1.221588
H     -1.915988   -0.437792    2.165647
C     -0.783053    0.899196    0.927032
H     -0.681052    1.711136    1.612861
H      1.612633    1.798248   -0.033337
H      1.629205    0.794484   -1.530666
H      1.869594   -1.248394   -0.239616
H      1.591670   -0.325671    1.343364
H      3.007823   -0.011763    0.344244
