12

C      0.652191   -0.750342    0.522548
H      0.632401   -1.801347    0.223728
H      1.161037   -0.581635    1.501282
C      0.989282    0.191064   -0.630277
H      1.787661    0.897863   -0.400665
H      1.003062   -0.217806   -1.659075
C     -0.336279    0.233165    0.059644
O     -0.567830    1.376522    0.804553
H      0.116102    1.565270    1.471531
N     -1.487247   -0.178112   -0.740241
H     -2.305110    0.438745   -0.612705
H     -1.645270   -1.173386   -0.540324
