14

C     -1.529959   -1.138270   -0.030673
C     -0.720705   -0.015584   -0.626966
H     -0.715334    0.026895   -1.729614
C     -0.357197    1.160109    0.095364
N     -0.570048    2.458063    0.644238
O     -0.207485    3.494427    0.050300
C      0.590207    0.195888    0.007069
C      1.937144   -0.351012    0.284657
H      2.457604    0.258575    1.049441
H      1.873420   -1.397495    0.600759
H      2.516733   -0.295399   -0.642013
H     -0.899283   -2.029258    0.226946
H     -2.104882   -0.848409    0.856698
H     -2.270216   -1.518531   -0.786205
