11

O      2.442989    0.948087    0.283929
C      1.321150    0.422800    0.116329
N      0.143392    1.085529   -0.040876
H      0.041295    2.125595   -0.039341
C     -0.847559    0.180115   -0.195735
O     -2.186670    0.507540   -0.381052
H     -2.831038    0.344261    0.383059
C     -0.239256   -1.042605   -0.128135
H     -0.735683   -1.988035   -0.213307
N      1.087919   -0.909125    0.062606
H      1.803462   -1.674163    0.152523
