12

C     -1.277060   -0.472463   -0.547796
C      0.084377   -0.130250    0.018752
O      1.090926   -0.302320   -0.867456
C      2.218566   -0.615040   -0.543635
H      2.440395   -0.767895    0.522684
C      0.039753    1.251555    0.524589
O     -0.788892    1.582457    1.318411
H      0.765440    1.964835    0.169951
H      0.261570   -0.797378    0.890662
H     -1.417061   -0.136573   -1.572543
H     -2.031960    0.008077    0.121082
H     -1.386054   -1.585005   -0.448290
