16

C      2.587336    0.008681   -0.975310
C      1.218146    0.422517   -0.608922
C      0.301996   -0.452500   -0.270939
N     -1.012786   -0.040125    0.079670
C     -1.162287    0.943287    0.896200
H     -0.305101    1.475104    1.331620
H     -2.125489    1.311037    1.207484
C     -2.213193   -0.669363   -0.434295
H     -2.700721   -0.069506   -1.231662
H     -2.959289   -0.677349    0.413050
H     -2.038517   -1.710693   -0.767792
O      0.643928   -1.816464   -0.260827
H      0.960677    1.485079   -0.619399
H      3.118736   -0.350688   -0.073292
H      2.520812   -0.729923   -1.783837
H      3.165752    0.870906   -1.358870
