17

C      1.156892   -1.047418   -0.974906
C      0.914255    0.077048   -0.010783
H      1.839595    0.540589    0.324292
C     -0.193777    1.022326   -0.441883
H      0.004540    1.825110   -1.078537
C     -0.357290    1.278447    1.063224
H      0.436005    1.905725    1.475129
H     -1.387455    1.458696    1.384670
C     -0.055159   -0.229279    1.110842
H      0.285906   -0.640952    2.011643
C     -1.208422   -0.763797    0.378387
H     -1.820442   -1.621533    0.618930
C     -1.317515    0.084028   -0.675669
H     -2.060574    0.039536   -1.462893
H      1.742014   -0.624148   -1.826205
H      0.235602   -1.486531   -1.381829
H      1.785824   -1.817846   -0.514414
