12

C     -0.243801   -1.841755   -0.080874
C     -0.047489   -0.552090   -0.165620
N      1.212487   -0.067425   -0.599598
N      2.174179    0.145678    0.223723
H      3.099972    0.505971   -0.125883
N     -1.103656    0.324162    0.180080
C     -0.919140    1.731120    0.097676
O      0.208459    2.138577   -0.290359
H     -1.721449    2.439910    0.359680
H     -2.021275   -0.052434    0.496488
H     -1.185195   -2.251715    0.244045
H      0.546908   -2.520001   -0.339357
