12

N     -1.874827   -0.213581    0.078830
C     -0.464255   -0.140217    0.049856
C      0.367092   -1.189575    0.354283
N      1.645083   -0.756726    0.220217
H      2.462258   -1.400470    0.405388
C      1.643925    0.531897   -0.158978
H      2.542832    1.099606   -0.330758
C      0.327992    0.928865   -0.268888
H      0.030238    1.935750   -0.563590
H     -2.320929    0.697634    0.329088
H     -2.185551   -0.549433   -0.879259
H     -2.173859   -0.943751    0.763810
