11

C     -1.069359    1.033326   -0.757895
C     -1.583422   -0.103086    0.054802
H     -2.132785   -0.804340   -0.623754
H     -2.174600    0.198941    0.945993
C     -0.171914   -0.478405    0.332249
H      0.139387   -0.466779    1.405604
H      0.081547   -1.467039   -0.166391
C      0.306812    0.646197   -0.472221
N      1.484266    1.123480   -0.808119
O      2.575124    0.450294   -0.318741
H      2.544945   -0.132589    0.504301
