12

C      1.967492    0.097972    0.139067
C      0.645785    0.133439    0.078657
N     -0.229286    1.206371    0.411822
H      0.025596    2.056629    0.974735
O     -1.423982    0.968214   -0.104096
C     -1.616483   -0.347155   -0.299915
H     -2.203567   -0.648002   -1.187569
H     -2.043733   -0.770092    0.646448
N     -0.245422   -0.890037   -0.336478
H      0.039777   -1.859573   -0.615256
H      2.610703    0.881555    0.454707
H      2.473120   -0.829322   -0.162123
