13

N      1.978921   -0.750941    0.135923
C      1.049050    0.323568    0.212488
O      1.431184    1.611668    0.532608
H      0.822610    2.294228    0.925037
C     -0.206257    0.048002   -0.035019
C     -1.667515    0.497011   -0.166658
H     -1.801659    1.260503   -0.946543
H     -2.049139    0.805112    0.823773
C     -1.332690   -0.879893   -0.395457
H     -1.203138   -1.303379   -1.409482
H     -1.601252   -1.632816    0.361260
H      1.752598   -1.603249    0.706132
H      2.827286   -0.669812   -0.459575
