11

C      1.262080   -0.149577    0.346564
C     -0.158831    0.029424   -0.066159
C     -0.448746    1.071725   -0.818257
H      0.328251    1.760283   -1.114801
H     -1.483188    1.197654   -1.115861
C     -1.200970   -0.907097    0.340235
O     -0.907673   -1.897873    1.058769
H     -2.210466   -0.728336    0.012821
H      1.447904    0.594506    1.161160
H      1.483472   -1.154110    0.700392
H      1.888167    0.183401   -0.504862
