13

C     -2.168700    0.462709   -0.203462
C     -0.758729    0.132772    0.118172
C      0.196024    0.120622   -0.828631
H      0.105238    0.327972   -1.875240
C      1.460140   -0.242123   -0.171283
N      2.630459   -0.377348   -0.668509
H      3.472781   -0.641018   -0.109404
C      1.092426   -0.426906    1.237760
H      1.828147   -0.705559    1.992626
N     -0.158558   -0.204396    1.339501
H     -2.446477    1.487239    0.068129
H     -2.856779   -0.215993    0.374313
H     -2.395971    0.282029   -1.273974
