13

O      2.498660    0.381600    0.520966
C      1.806370   -0.750297   -0.088752
C      0.550305   -0.621093   -0.368599
O     -0.445345   -1.410221   -0.898763
C     -1.373640   -0.418774   -0.843669
H     -1.917321   -0.126558   -1.775220
C     -1.747810    0.244198    0.468084
H     -1.666858   -0.195993    1.450214
H     -2.290334    1.244999    0.499096
C     -0.386513    0.542901   -0.163115
H     -0.084415    1.531253   -0.390743
H      2.379481   -1.627994   -0.277654
H      2.677420    1.205979   -0.031347
