10

N     -1.665381    0.251717    0.569650
H     -1.472414   -0.443961    1.316750
C     -0.844723    1.424835    0.417315
C     -0.593728    0.335967   -0.491356
C      0.632352   -0.525404   -0.221747
H      0.548970   -1.592374   -0.544998
N      1.395415   -0.292520    0.969307
H      1.126871    0.525920    1.554748
C      1.903881    0.106041   -0.351151
H     -1.031245    0.209778   -1.492698
