9

O     -2.251976   -0.290817    0.418178
C     -1.009633    0.306984    0.520361
C      0.062105   -0.709926    0.530271
C      1.309898   -0.461414    0.291048
C      2.542329   -0.131744    0.080487
H      3.408869    0.379578   -0.281820
H     -1.003383    0.865722    1.491860
H     -0.867116    1.076524   -0.278073
H     -2.191093   -1.034907   -0.223231
