15

C      2.243593    0.486735    0.169419
C      0.816134    0.058715    0.074011
C      0.233814   -0.664009   -0.867055
H      0.723672   -1.074520   -1.751721
C     -1.187096   -0.839714   -0.550019
H     -1.792112   -0.366951   -1.347559
H     -1.500383   -1.902072   -0.511825
C     -1.386576   -0.109920    0.736232
C     -2.358585    1.057768    0.575369
H     -1.798087    1.988896    0.283891
H     -1.698307   -0.777345    1.567291
O     -0.116375    0.411316    1.052231
H      2.331064    1.593888    0.203422
H      2.698392    0.014048    1.076017
H      2.790853    0.123165   -0.709704
