16

C     -1.696087   -1.120831   -0.578852
C     -1.324903    0.320587   -0.662692
C      0.165175    0.553283   -0.560340
C      0.736142    0.052983    0.733908
C      2.203813   -0.260711    0.511282
H      2.778096    0.691912    0.424374
H      2.256228   -0.853035   -0.438756
H      2.647092   -0.823590    1.336840
O      0.452747    1.908131   -0.658954
H      0.021314    2.430357    0.063121
H      0.719618    0.044213   -1.381470
H     -1.823937    0.919416    0.107512
H     -1.644798    0.728448   -1.656091
H     -2.120948   -1.477183   -1.557681
H     -0.872540   -1.798508   -0.328232
H     -2.497013   -1.315472    0.188908
