12

C     -2.202385    0.292562   -0.061169
C     -0.735863    0.188162    0.209101
C      0.234857   -0.588730   -0.239000
H      0.210379   -1.410146   -0.972709
C      1.245934    0.056736    0.582874
C      2.555617   -0.083413    0.782660
H      3.063043   -0.840121    0.237837
H      3.106204    0.537168    1.468619
O      0.198263    0.829032    1.007879
H     -2.701712   -0.303387    0.727382
H     -2.545494    1.363898   -0.010720
H     -2.428844   -0.041760   -1.084985
