19

C     -2.615311   -0.286751   -0.307833
C     -1.191468   -0.321061    0.161210
C     -0.361361    0.628846   -0.682880
C      1.059706    0.571037   -0.187547
O      1.520447   -0.745980   -0.323458
C      2.846271   -0.744838    0.151291
H      2.817670   -0.416278    1.222974
H      3.262432   -1.766261    0.042083
H      3.492144   -0.061244   -0.445554
H      1.041238    0.832808    0.892261
H      1.710720    1.272739   -0.752933
H     -0.728830    1.667829   -0.560035
H     -0.456783    0.387145   -1.755669
C     -1.128747    0.121844    1.590608
H     -1.522035   -0.642891    2.281815
H     -0.815950   -1.356653    0.000637
H     -3.118243    0.644378    0.077421
H     -3.156957   -1.205939    0.015713
H     -2.654943   -0.282620   -1.420105
