12

C      1.544454    0.264702    0.147686
H      2.336459    0.796451   -0.262007
H      1.721580   -0.103119    1.290208
C      0.484124   -0.375852   -0.513464
H      0.623376   -0.403613   -1.614678
C     -0.707250   -1.082104    0.016724
H     -0.657474   -1.238358    1.096111
H     -1.009726   -1.972814   -0.549934
O     -1.729660   -0.084193   -0.208651
C     -1.095719    1.111322    0.129642
H     -1.675901    2.098031    0.218018
C      0.165736    0.989547    0.250344
