14

O      2.033998   -0.654846   -0.664727
C      0.860718   -0.476802    0.093009
H      0.571973   -1.357256    0.693397
N     -0.249317   -0.022122   -0.739715
C     -1.507202   -0.694747   -0.441244
H     -2.309077   -0.074267   -0.902031
H     -1.523609   -1.739623   -0.745664
H     -1.600535   -0.660903    0.679660
C     -0.239509    1.270254   -0.052731
H      0.063638    2.116892   -0.700580
H     -1.136505    1.504049    0.525540
C      0.878943    0.823656    0.792355
O      1.557184    1.284303    1.688293
H      2.599301   -1.318586   -0.225561
