15

C      2.202346    0.476116    0.397937
C      1.236759   -0.340538   -0.369314
N     -0.182921   -0.189191   -0.231166
C     -0.904306    0.818189   -0.579037
H     -0.478222    1.700333   -1.037263
C     -2.303247    0.580642   -0.269125
H     -3.155312    1.218621   -0.432017
N     -2.367589   -0.584409    0.263699
C     -1.064934   -1.180706    0.342431
H     -0.756816   -1.444661    1.373044
H     -1.085405   -2.111636   -0.293478
H      1.615835   -1.076220   -1.057280
H      2.462925   -0.039446    1.346732
H      3.097899    0.751296   -0.170448
H      1.682986    1.421612    0.715285
