11

N     -1.691850   -0.066023   -0.106338
C     -0.291664   -0.299071    0.004458
C      0.396742   -1.482703    0.124997
O      1.672696   -1.205082    0.195693
C      1.863378    0.088295    0.128894
O      2.965044    0.728639    0.165166
N      0.654595    0.658937    0.010404
H      0.505550    1.708377   -0.064734
H     -2.069304   -0.870324   -0.674997
H     -2.152724   -0.076796    0.835274
H     -1.852463    0.815751   -0.618816
