12

C      2.742155    0.245184   -0.014215
C      1.533357   -0.218638   -0.054978
C      0.292607   -0.616798   -0.059168
C     -1.005879   -0.705202    0.495414
C     -1.857908    0.570481    0.425603
H     -1.248336    1.434392    0.089330
H     -2.723448    0.403287   -0.251871
H     -2.243095    0.780148    1.432961
H     -1.286183   -1.421088    1.298268
O     -0.666671   -1.315803   -0.728448
H      2.966240    1.197929   -0.409721
H      3.497163   -0.353892    0.424595
