15

C      1.813353   -0.201930    0.346914
C      0.653332   -0.027893   -0.672458
H      0.991881    0.406594   -1.605774
O      0.072621   -1.323073   -0.806631
C     -1.116043   -1.400798   -0.103800
H     -1.655246   -2.365706   -0.079023
C     -1.410959   -0.298298    0.400646
H     -2.273187    0.104850    1.054248
C     -0.402636    0.735789    0.043308
O     -1.018008    1.631690   -0.887040
H     -1.612651    2.248167   -0.384868
H     -0.046639    1.305093    0.930925
H      1.269031   -0.457869    1.315230
H      2.314409    0.740011    0.390218
H      2.420741   -1.096627    0.058105
