13

C      1.735438    0.614434    0.028685
C      1.070858   -0.690804    0.102429
C     -0.147490   -0.948346   -0.336452
N     -0.858792    0.135913   -0.924615
C     -1.959392    0.596366   -0.424069
O     -2.425531   -0.020642    0.728962
H     -1.844062   -0.558217    1.355169
H     -2.473950    1.423380   -0.898993
H     -0.576906   -1.940673   -0.248778
H      1.616028   -1.517908    0.552126
H      1.043728    1.473099   -0.063518
H      2.461895    0.618401   -0.819472
H      2.358177    0.814998    0.948527
