14

C     -1.694597    0.425294    0.603885
C     -0.452076    0.373076   -0.166452
H     -0.399881    1.260597   -0.923360
C     -0.201071   -0.858300   -0.953640
H     -0.800672   -1.695559   -0.626418
H     -0.236926   -0.679989   -2.067436
O      1.156308   -0.919249   -0.830853
C      1.743111   -0.216790    0.122109
N      2.989484   -0.238213    0.454911
H      3.224914    0.624525    1.256437
O      0.710462    0.589475    0.661949
H     -2.495089   -0.101100    0.067031
H     -1.972337    1.490992    0.802649
H     -1.571632   -0.054760    1.599187
