8

C     -0.381900   -0.870206   -0.088651
C     -0.234524    0.589409    0.119319
O     -1.280107    1.242736    0.372737
N      1.016883    1.156223    0.027833
C      2.078849    1.649307   -0.033154
H      0.415317   -1.221348   -0.796219
H     -0.236896   -1.405359    0.893673
H     -1.377622   -1.140761   -0.495537
