9

N     -1.374972   -0.206305   -0.262298
C     -0.196811    0.442130   -0.669760
O     -0.285960    1.483325   -1.345745
C      1.131428   -0.086341   -0.312582
H      1.940373    0.660440   -0.420118
H      1.077222   -0.396365    0.760104
H      1.374293   -0.980888   -0.906683
H     -2.281157   -0.054369   -0.757689
H     -1.384415   -0.861627    0.549113
