15

C     -2.153786    0.850836   -0.115665
C     -1.024008   -0.122019    0.049799
C      0.057842   -0.206101   -0.956232
N      0.986945   -1.213615   -0.535068
C      2.107489   -0.964827    0.053190
C      3.079943   -0.266746    0.569033
H      3.910470    0.024319   -0.047302
H      3.082210    0.035285    1.597887
H      0.494737    0.798251   -1.073866
H     -0.411014   -0.451684   -1.953409
N     -1.028042   -0.867298    1.077992
H     -1.748990   -0.858986    1.813973
H     -2.074790    1.701566    0.589593
H     -2.168581    1.212674   -1.146187
H     -3.110426    0.328347    0.076264
