10

C     -0.448838   -0.531195   -0.626185
H     -0.708685   -1.110842   -1.384602
C     -1.196374    0.670911    0.075724
H     -0.881684    1.661463   -0.114782
H     -2.292580    0.432086    0.198824
C     -0.248084   -0.409715    0.720935
H     -0.310332   -0.776421    1.639787
C      1.010670   -0.188261   -0.135767
N      2.160287    0.030238   -0.492460
H      2.915619    0.221737    0.118525
