9

C     -0.109564   -1.297070    0.233326
C     -1.014616   -0.101998    0.319216
H     -1.308656    0.073937    1.369375
H     -1.884372   -0.101623   -0.352078
C      0.076794    0.796172   -0.145325
O      0.093606    1.998280   -0.335826
C      0.977500   -0.379884   -0.232857
H      1.887021   -0.330682    0.414531
H      1.282287   -0.657132   -1.270362
