16

C      1.908114   -0.093191    0.305317
C      0.678844    0.718198    0.093913
C     -0.471799   -0.039225   -0.500084
C     -0.920722   -1.193580    0.338825
H     -0.144251   -1.946488    0.496203
H     -1.278777   -0.812507    1.320473
H     -1.760177   -1.689355   -0.200662
C     -1.617729    0.908102   -0.620419
C     -2.752187    0.773453    0.046014
H     -1.513997    1.742753   -1.283705
H     -0.158997   -0.408493   -1.509746
H      0.931552    1.536303   -0.633666
H      0.371038    1.248516    1.023180
H      1.699700   -1.096540    0.695705
H      2.494755   -0.095996   -0.643789
H      2.534632    0.448050    1.072441
