12

O      2.211452    1.754303    0.231246
C      1.466697    0.848851   -0.055685
C      1.209512   -0.636620    0.184502
H      0.920657   -0.834235    1.218873
H      1.949304   -1.331171   -0.303668
C      0.328836    0.116080   -0.682273
C     -1.026271    0.484455   -0.173818
C     -1.829913   -0.391055    0.394001
H     -1.494715   -1.410595    0.494214
H     -2.796834   -0.083165    0.745862
H     -1.348010    1.503068   -0.279746
H      0.409286   -0.019917   -1.773507
