14

C      1.676697   -0.420312    0.239275
C      0.598397    0.252370   -0.563119
N     -0.723451    0.165469   -0.036546
C     -1.761268    0.974348   -0.556283
H     -2.020937    1.934285   -0.117321
H     -2.298970    0.572554   -1.425713
C     -0.962311   -0.678992    0.903143
H     -0.201087   -1.326769    1.305607
H     -1.953520   -0.815425    1.374857
H      0.948098    1.285565   -0.799685
H      0.626532   -0.299587   -1.580713
H      2.618563   -0.314581   -0.373639
H      1.579526   -1.474489    0.434139
H      1.873731    0.145565    1.195998
