12

N     -0.908594   -1.607410    0.155898
C     -0.405700   -0.316829   -0.012687
C     -1.098368    0.916644   -0.023606
N     -0.526349    2.033984   -0.187039
H     -0.966250    2.968388   -0.206168
H     -2.188633    0.920946    0.115591
C      0.900924   -0.291795   -0.181983
C      2.198081   -0.172948   -0.358581
H      2.494740   -0.211468   -1.369571
H      2.739884   -0.057549    0.538054
H     -0.573725   -2.429219   -0.384012
H     -1.666010   -1.752745    0.867261
