11

N     -0.885782   -0.685366    0.804789
C     -0.601848    0.638686    0.301150
C      0.680823    0.586014   -0.450603
C      1.378363   -0.519453   -0.587575
H      1.016786   -1.423509   -0.143684
H      2.295797   -0.505136   -1.138388
H      1.030489    1.511337   -0.892741
H     -1.382368    0.939433   -0.446697
H     -0.615109    1.371164    1.101832
H     -1.193351   -1.318446    0.020976
H     -1.723800   -0.594722    1.430941
