11

N      2.454109    0.810132    0.551118
C      1.460903   -0.158300    0.457308
N      1.194544   -1.463600    0.727800
N      0.201081   -0.706439    0.145963
N     -1.067488   -0.475019   -0.389083
C     -2.133120   -0.337184    0.306734
O     -3.354001   -0.109734   -0.303922
H     -3.347072    0.495171   -1.127440
H     -1.144350   -0.411503   -1.423599
H      3.413834    0.590297    0.158598
H      2.321560    1.766179    0.992353
