11

N     -1.826936    0.943905    0.518235
C     -0.668897    0.156297    0.171110
C     -0.812390   -1.073352   -0.282266
H     -1.740664   -1.632869   -0.449392
O      0.459521   -1.565841   -0.524188
C      1.398736   -0.604294   -0.207207
O      2.659459   -0.715734   -0.306111
N      0.691546    0.528521    0.248562
H      0.892344    1.385157   -0.350445
H      0.914281    0.774081    1.241605
H     -1.967001    1.804130   -0.059903
