10

O     -1.161200    1.916652    0.094590
C     -0.507695    0.834640    0.038051
C     -1.058965   -0.528868    0.059207
H     -1.581231   -0.638481    1.038697
H     -1.752064   -0.734285   -0.784226
O      0.068858   -1.346055   -0.026129
C      1.219530   -0.616280   -0.094960
H      2.190577   -1.057033   -0.165370
C      0.938630    0.665125   -0.061137
H      1.643560    1.504583   -0.098723
