18

C      0.544374    1.694138   -0.449572
C      0.388518    0.316646    0.126983
N     -0.767890   -0.385852   -0.342376
C     -2.088103    0.101218   -0.148299
H     -2.323237    0.951415    0.500990
H     -2.806454   -0.061921   -0.995229
C     -1.586643   -1.141554    0.569878
H     -1.448280   -1.077073    1.652616
H     -1.874592   -2.133375    0.204535
C      1.611600   -0.499840   -0.304775
O      1.566878   -1.778915    0.248631
H      2.374698   -1.932931    0.801906
H      1.633219   -0.627464   -1.413063
H      2.549749    0.017871   -0.028395
H      0.449180    0.397438    1.233824
H      0.864864    1.656897   -1.494435
H     -0.396517    2.271321   -0.326994
H      1.308637    2.231980    0.163776
