11

C     -1.092609   -0.591071   -0.272625
C      0.033429    0.217620    0.375343
C      1.346107   -0.461812    0.173001
O      2.240383    0.178602   -0.364054
H      1.497134   -1.481665    0.490449
N      0.058175    1.524413   -0.106026
C      0.085385    2.612046   -0.486853
H     -0.186820    0.238882    1.456706
H     -2.048386   -0.307107    0.216243
H     -0.828139   -1.653411   -0.142163
H     -1.104660   -0.276497   -1.340019
