14

C      1.296209   -0.292868    0.546008
H      1.195812   -0.429130    1.633619
H      2.324342   -0.084905    0.200785
C      0.349143   -0.801303   -0.466395
H      0.740656   -1.160485   -1.415378
C     -1.106664   -0.957942   -0.202432
H     -1.725454   -0.885347   -1.162252
H     -1.461084   -1.802112    0.368490
C     -1.133296    0.397611    0.431028
H     -1.817913    1.138381    0.032444
H     -1.137082    0.259212    1.547644
C      0.260180    0.597292   -0.042982
N      0.619538    1.693200   -0.878897
O      1.595614    2.328396   -0.591681
