13

C     -0.903109    0.891929   -1.253439
C     -0.534250   -0.528848   -0.948489
H     -0.985525   -1.367367   -1.496272
C      0.924181   -0.776627   -0.433196
H      1.686144   -1.279562   -0.885408
C      0.997675    0.277257    0.724529
H      1.707453    0.045748    1.531549
H      0.722011    1.301353    0.456236
C     -0.079842   -0.838590    0.519466
H     -0.529473   -1.434734    1.213871
H     -1.134185    1.503423   -0.370472
H     -0.080746    1.341178   -1.851294
H     -1.790334    0.864841   -1.909899
