9

O      2.332639    0.464904   -0.704229
N      1.689322   -0.000468    0.423889
C      0.686817   -0.768852    0.211594
N     -0.426001   -1.367654   -0.031039
N     -1.507981   -0.637540   -0.529753
C     -1.904862    0.651513    0.033331
H     -1.788748    1.417308   -0.764969
H     -2.060102   -1.003885   -1.323999
H      2.978916    1.244672   -0.680482
