15

O     -1.265533   -0.835389   -1.206001
C     -1.181529   -0.157816    0.002650
C      0.119361    0.543495    0.203520
C      1.294762   -0.404921    0.288496
O      1.501384   -1.104876   -0.894507
H      2.217237   -0.684045   -1.465066
H      1.119736   -1.103556    1.113836
H      2.235114    0.132663    0.500123
C      0.347658    1.633638   -0.821559
H     -0.674046    2.007179   -1.109179
O      0.038334    1.172885    1.463969
H     -0.604904    0.673782    2.058491
H     -1.985158    0.611951    0.040195
H     -1.351994   -0.838553    0.864042
H     -1.810422   -1.646436   -1.039009
