10

O     -2.324439    0.578349   -0.367719
C     -1.633832    0.091458    0.700150
C     -0.467505   -0.442073    0.419341
C      0.719413   -0.894384    0.078957
C      1.762734    0.043970    0.070218
C      2.688514    0.848924    0.056682
H      3.485095    1.545942    0.026961
H      0.736576   -1.920406   -0.148673
H     -1.876569    0.068617    1.726766
H     -3.089988    0.079604   -0.836863
