10

O      2.345702    0.043871   -0.422038
C      1.300439   -0.423929    0.368857
C      0.018671    0.233460   -0.108510
H      0.099538    1.131328   -0.772054
C     -1.188328   -0.643857   -0.179555
H     -1.047801   -1.717410    0.070796
H     -1.947539   -0.418611   -0.949164
N     -1.033718    0.332038    0.869878
H     -1.627654    1.179567    0.893661
H      3.080691    0.283543    0.228131
