13

C      1.532342   -0.736925   -0.158734
N      0.512061    0.239826   -0.356285
H      0.311399    0.474685   -1.344460
C      0.255056    1.274841    0.583004
H      0.011811    2.304674    0.260896
C     -0.610756    0.151852    0.599496
C     -1.916719    0.059440   -0.097413
O     -2.717180   -0.771487    0.282847
H     -2.184850    0.707859   -0.936439
H     -0.496339   -0.579985    1.432215
H      1.164177   -1.713832   -0.566215
H      2.483114   -0.513994   -0.647886
H      1.655884   -0.896955    0.948973
