12

C     -1.503193    0.013960   -0.246944
C     -0.264163   -0.503775    0.453679
H     -0.403386   -1.109026    1.370362
C      0.934019   -0.904246   -0.375050
H      1.598899   -1.700764    0.016581
H      0.764435   -0.927853   -1.466423
C      0.910078    0.379615    0.312000
C      1.559313    1.498770    0.565170
O      1.843650    2.714195    0.595326
H     -1.427786    1.122372   -0.418472
H     -1.649590   -0.434683   -1.245230
H     -2.362278   -0.148565    0.439001
