14

C      2.341960   -0.076661    0.269915
O      1.036980    0.266073    0.588018
C      0.129357   -0.172154   -0.365573
C     -1.217517    0.247233    0.076729
N     -1.478378    1.628974    0.253234
O     -2.127020    2.196475   -0.671716
C     -2.163183   -0.640545    0.304734
H     -2.010466   -1.703000    0.183724
H     -3.145188   -0.325883    0.627823
H      0.374468    0.212198   -1.393867
H      0.197548   -1.282256   -0.459207
H      2.460789   -1.169570    0.189529
H      2.609668    0.454243   -0.665861
H      2.990980    0.364873    1.062518
