12

C      1.391618   -0.417736   -0.154607
C      0.316887    0.351667    0.594894
H      0.560291    0.601767    1.648227
C     -0.509296    1.331685   -0.102031
O     -0.714298    2.405299   -0.613187
C     -1.079484   -0.048278    0.254511
O     -1.295509   -0.799109   -0.896785
H     -1.729507   -1.657803   -0.723757
H     -1.895159    0.037124    0.977326
H      1.804290    0.264944   -0.928519
H      0.974809   -1.318442   -0.616384
H      2.175359   -0.751119    0.560312
