21

C     -1.706287    0.301705   -1.101786
C     -0.810166   -0.437583   -0.142908
C      0.596732    0.069743   -0.129231
C      0.866943    1.509697    0.248069
H     -0.081748    1.925068    0.637152
H      1.623642    1.580170    1.078543
H      1.234393    2.106769   -0.611587
C      1.588385   -0.926215    0.493013
H      2.383475   -0.523637    1.141691
H      1.244771   -1.932353    0.735617
C      1.651431   -0.624393   -0.979680
H      1.210334   -1.336401   -1.706284
H      2.477750    0.024789   -1.345436
C     -1.338321   -0.372415    1.274491
H     -1.701779   -1.380246    1.570516
H     -0.514693   -0.140675    2.011119
H     -2.083881    0.420339    1.377690
H     -0.779109   -1.496995   -0.483415
H     -1.302055    0.133346   -2.123435
H     -2.690155   -0.248740   -1.090467
H     -1.869662    1.348029   -0.853673
