8

C     -0.788115   -0.424257   -0.032327
O     -1.453117    0.619543    0.612629
H     -0.879985    1.402872    0.733921
C      0.634812   -0.138615   -0.180871
C      1.811934    0.087076   -0.285211
H      2.845035    0.298305   -0.370018
H     -1.234500   -0.509973   -1.036572
H     -0.936064   -1.334951    0.558449
