9

N      3.011985    0.062602   -0.190563
C      1.840053   -0.473411   -0.250717
C      0.609604   -0.843914   -0.323978
N     -0.651745   -1.064922   -0.475423
C     -1.622743    0.000584   -0.286172
H     -1.229672    0.799507    0.408982
O     -2.174326    0.594663   -1.443220
O     -2.903818   -0.185396   -0.472543
H      3.120662    1.110285   -0.332025
