10

C     -1.618134    0.348381   -0.266145
N     -0.630998   -0.706883   -0.216478
C      0.682590   -0.457611    0.235922
N      1.763368   -0.265892    0.623642
N      3.020761   -0.041367    1.097066
H      3.275860    0.890431    1.540441
H     -0.901151   -1.665878   -0.521605
H     -2.045613    0.551787    0.755099
H     -1.113034    1.291245   -0.561854
H     -2.433648    0.055786   -0.960266
