13

C      1.576306    0.653661   -0.194782
C      0.197120    0.222620   -0.680946
O     -0.814254    1.145105   -0.822861
C     -1.754131    0.232731   -0.267089
H     -2.414141   -0.167378   -1.085229
H     -2.201328    0.518683    0.652217
C     -0.621103   -0.826356   -0.148007
H     -0.516450   -1.419504    0.698862
N      0.102548   -1.104757   -1.382237
H      0.936810   -1.663756   -1.269105
H      1.601748    0.403323    0.893340
H      2.317532    0.211546   -0.828925
H      1.589341    1.794080   -0.268054
