13

O      2.836895   -0.325899   -0.260235
C      1.749577   -0.844174   -0.143694
C      0.675622   -0.299313    0.749256
C      0.034160    0.873426    0.104116
O      0.527735    1.974471    0.077978
C     -1.275279    0.641561   -0.543609
O     -1.709558   -0.656529   -0.482533
H     -2.315922   -0.848477    0.253676
H     -1.992532    1.381321   -0.117497
H     -1.100042    0.891728   -1.637881
H     -0.062370   -1.070630    0.983414
H      1.094947    0.031007    1.728801
H      1.536767   -1.748490   -0.711791
