10

C      1.678161   -0.467833   -0.151551
C      0.382326   -0.294483   -0.134023
C     -0.175802    1.094152    0.091664
H      0.398902    2.002011    0.166219
N     -1.448787    1.000252    0.194571
N     -1.805373   -0.365665    0.110331
H     -2.774206   -0.662241    0.327138
O     -0.720673   -1.075704   -0.285659
H      2.402388    0.260643   -0.008059
H      2.063064   -1.491131   -0.310631
