17

C     -1.456683    1.138196    0.919329
C     -0.758847   -0.022487    0.310516
C      0.467917   -0.171073   -0.094704
C      1.640577    0.741918   -0.111181
O      2.031317    0.882368   -1.439213
H      2.410303    1.808687   -1.521294
H      2.494722    0.226059    0.407504
H      1.488498    1.685975    0.408713
C      0.202544   -1.538876   -0.499243
H      0.342797   -1.785842   -1.572184
H      0.834107   -2.247855    0.084973
C     -1.182412   -1.367633   -0.040532
H     -1.986352   -1.438938   -0.833070
H     -1.417761   -2.040223    0.821247
H     -2.033516    0.728770    1.791741
H     -2.260100    1.430451    0.180738
H     -0.817111    1.970504    1.186661
