9

N      1.884348    0.025963    0.192955
C      0.683425    0.452313   -0.432305
N      0.110107    1.409120   -1.177618
N     -0.693624    0.315312   -0.778010
C     -1.897717   -0.414151   -0.718643
O     -1.935980   -1.487120   -0.094081
H     -2.768248   -0.041030   -1.209851
H      2.798114    0.130356   -0.271543
H      1.819574   -0.390762    1.123438
