11

O      2.526297    0.839208    0.247953
C      1.223196    0.356895    0.127239
N      0.963585   -0.874548   -0.111443
C     -0.454515   -1.085413   -0.183446
H     -0.821326   -1.766489    0.632953
H     -0.711321   -1.489420   -1.182776
C     -1.011983    0.264054    0.059026
O     -2.375083    0.624302    0.096230
H     -2.598870    1.540247    0.486417
N     -0.008387    1.054799    0.231254
H      3.268407    0.536365   -0.403406
