9

C     -0.140311    0.624184    0.361444
O      0.121499    1.716917    0.949556
C     -1.243518   -0.234134    0.006208
H     -1.727782   -0.714945    0.898552
H     -2.000147    0.168117   -0.702456
O     -0.364640   -1.114567   -0.597217
C      0.719975   -0.334108   -0.283902
N      2.026346   -0.443788   -0.501388
H      2.608578    0.332325   -0.130797
