9

C     -0.765678    0.779511    0.586922
H     -0.969426    1.720736    1.119161
O     -1.534177   -0.134038    0.004096
C     -0.613284   -0.838489   -0.341580
H     -0.661546   -1.799367   -0.902497
C      0.390996    0.010144    0.219735
O      1.229468    0.629256   -0.722054
H      1.930623    0.017741   -1.038061
H      0.993024   -0.385493    1.074278
