12

C     -1.708090    0.779982    0.202142
C     -1.145608   -0.414411    0.094763
C      0.264522   -0.504585   -0.350088
H      0.437080   -1.282718   -1.119991
C      1.212720   -0.670564    0.757710
H      1.382349   -1.449249    1.482770
C      1.732061    0.502592    0.475257
H      2.523007    1.094964    0.885241
O      0.864169    0.734003   -0.594648
H     -1.661861   -1.331191    0.315064
H     -1.173372    1.691867   -0.023758
H     -2.726977    0.849310    0.523309
