14

C      1.894559   -0.703105   -0.294799
C      1.120703    0.581911   -0.554050
C     -0.111847    0.559543    0.322351
O     -0.479972    1.807204    0.777055
H     -0.045019    2.539446    0.298783
C     -1.284451   -0.047821   -0.412637
O     -2.342466   -0.141147    0.483506
H     -2.378120   -1.039239    0.901059
H     -1.606767    0.667962   -1.218070
H     -1.005992   -1.039417   -0.834696
H      0.108426   -0.061947    1.226425
H      2.713060   -0.834319   -1.023725
H      1.174318   -1.544455   -0.426694
H      2.243568   -0.744615    0.755491
