14

C      1.914755   -0.581346    0.104190
C      0.847947    0.340994    0.557607
O      1.232089    1.492656    1.220889
H      1.009350    2.373164    0.775695
C     -0.403916    0.017395    0.306495
C     -1.861403    0.457630    0.469245
H     -2.041366    1.414685   -0.031388
H     -2.252529    0.427260    1.512018
C     -1.555796   -0.779533   -0.202657
H     -1.697474   -1.728876    0.371692
H     -1.644461   -0.932022   -1.304653
H      1.738238   -1.555081    0.632122
H      1.786619   -0.756436   -0.999615
H      2.927948   -0.190490    0.289673
