11

O      1.581021   -1.573138    0.056586
C      1.470360   -0.199561    0.090994
C      0.645466    0.980561    0.080439
C     -0.667126    0.858552    0.004695
C     -1.302270   -0.480256   -0.069677
H     -0.732274   -1.174257    0.596041
H     -1.137304   -0.851296   -1.120808
H     -2.360733   -0.467966    0.186121
H     -1.246162    1.757136   -0.000657
H      1.129690    1.946575    0.135536
N      2.619331   -0.796352    0.136558
