13

C     -1.683529    0.478370    0.119087
C     -0.245940    0.133591    0.015930
C      0.769969    0.944224    0.019523
H      0.699809    2.021515    0.101501
C      1.970515    0.128310   -0.104906
H      2.989147    0.497995   -0.133426
N      1.689744   -1.122316   -0.180405
C      0.271024   -1.268076   -0.113915
H     -0.091025   -1.811086    0.776198
H     -0.185214   -1.678890   -1.036500
H     -1.963752    1.294531   -0.596099
H     -1.896187    0.790037    1.184278
H     -2.324560   -0.408204   -0.051265
