9

C      1.059793    0.075113    0.134280
H      2.179039    0.158679    0.258460
C      0.195865   -0.796779    0.532088
H      0.343444   -1.724592    1.122494
C     -0.909232   -0.092415   -0.071647
H     -1.345330   -0.718876   -0.918840
H     -1.712728    0.280577    0.608250
C      0.070533    0.871436   -0.507536
O      0.118614    1.946858   -1.157549
