12

C      1.996981   -0.070647    0.300165
O      0.749269   -0.139792    0.966504
C     -0.389272    0.192293    0.241176
N     -0.307416    1.009490   -0.757214
H     -1.204545    1.227640   -1.274369
C     -1.721983   -0.396617    0.613239
H     -2.143885   -0.974319   -0.227302
H     -1.592470   -1.007946    1.519695
H     -2.356421    0.469956    0.904982
H      2.828008   -0.358599    0.981314
H      1.977614   -0.880443   -0.482780
H      2.164117    0.928984   -0.137639
