9

O     -0.630758    2.089121   -0.180870
C     -0.733661    0.747893   -0.017547
N      0.309180    0.107521    0.745745
C      1.288678   -0.320022   -0.188509
H      2.284157    0.114908   -0.103425
H      1.109294   -1.042702   -0.970509
H     -0.068378   -0.671691    1.322895
N     -1.769600   -0.047153   -0.532657
H     -1.788912   -0.977875   -0.075123
