14

O      1.572895   -0.225370   -1.115317
C      0.738676    0.107358   -0.042756
C      1.565623    0.663964    1.085341
H      0.958416    0.930831    1.971602
C     -0.415884    0.933388   -0.494240
H     -0.581305    1.838047    0.126372
H     -0.425364    1.140806   -1.591406
C     -1.383344   -0.176595   -0.153844
H     -2.043700    0.039026    0.727018
H     -1.921210   -0.577562   -1.035445
C     -0.195688   -0.999991    0.300089
H     -0.238460   -1.318242    1.356302
H     -0.092366   -1.889621   -0.377068
H      2.461710   -0.466039   -0.756649
