15

C     -2.096165   -0.360091   -0.547290
C     -1.276486    0.292380    0.500432
N      0.126105    0.373199    0.269935
C      0.818983    1.403893   -0.030861
H      0.389064    2.398618   -0.152553
N      2.184858    1.077278   -0.178842
C      2.348607   -0.171365    0.031617
H      3.310159   -0.733081   -0.009962
C      1.023563   -0.739042    0.342069
H      0.728832   -1.456502   -0.472786
H      1.002164   -1.251401    1.329628
H     -1.717297    0.699552    1.417932
H     -2.205908    0.384450   -1.371148
H     -1.546093   -1.239268   -0.936318
H     -3.090385   -0.678619   -0.191853
