14

C      1.667232   -0.752601    0.680559
C      0.786932    0.213737    0.209019
C      0.111967    1.373879    0.313392
H     -0.501284    1.697190    1.186822
H      0.293725    2.259884   -0.366942
N     -0.449437    0.177633   -0.430438
C     -1.637583   -0.397662    0.169712
H     -1.428986   -0.583113    1.236890
H     -2.458499    0.343246    0.031730
H     -1.826211   -1.347337   -0.324744
H     -0.438054    0.260379   -1.464012
H      2.386739   -1.120986   -0.110869
H      1.172768   -1.695475    1.051885
H      2.320693   -0.428774    1.518308
