12

C     -0.918759   -0.758392    0.375049
N     -0.100936    0.259527   -0.221338
C     -0.666834    1.228247   -1.095630
H     -0.797064    1.028969   -2.150596
H     -0.986014    2.194633   -0.738723
C      1.151081    0.304679    0.029001
C      1.720818   -0.681180    0.916756
N      2.190026   -1.473116    1.612224
H      1.819679    1.046455   -0.389194
H     -0.308114   -1.655109    0.615658
H     -1.729723   -1.087292   -0.300691
H     -1.374162   -0.407420    1.347484
