13

C      1.942556   -0.783228    0.194463
O      0.615810   -0.494395    0.173643
C      0.222314    0.606433   -0.134294
C     -1.213874    0.977727   -0.174237
H     -1.489259    2.009070   -0.467288
N     -2.153819   -0.010071   -0.702146
H     -1.812812   -0.937985   -0.984074
C     -2.181471    0.281108    0.696044
H     -1.901681   -0.456803    1.451018
H      0.944366    1.365969   -0.395481
H      2.244808   -1.336442    1.107182
H      2.555118    0.164719    0.204492
H      2.227945   -1.386101   -0.684835
