12

C     -1.211548   -0.671686   -0.267876
C      0.074882    0.125563   -0.253061
C      1.113937   -0.218723   -1.230371
N      2.189050   -0.787529   -0.841858
H      2.328909   -1.003493    0.143568
C     -0.102325    1.564031    0.136178
H     -0.480597    2.548114   -0.131721
N      0.540899    0.649069    0.991109
H      0.151937    0.373828    1.897610
H     -1.612188   -0.737279   -1.314505
H     -1.984430   -0.155232    0.320397
H     -1.008525   -1.686660    0.136943
