14

O      2.103415   -0.149819    0.363342
C      0.981327   -0.146439   -0.481482
H      1.259306   -0.496609   -1.499157
C     -0.068642   -1.071770    0.061573
H     -0.334698   -1.852719   -0.689731
H      0.273604   -1.590834    0.986548
N     -1.220910   -0.293143    0.312972
H     -1.423152   -0.321436    1.353573
H     -2.067457   -0.626565   -0.221871
C     -0.927609    1.025227   -0.042696
H     -1.611076    1.894554    0.027890
C      0.302629    1.152705   -0.495274
O      0.891028    2.337263   -0.927896
H      1.842236    0.139586    1.252210
