13

N      3.227390    0.323084   -0.003458
C      2.224198    0.809288   -0.303802
C      0.992518    1.433961   -0.675319
N     -0.056700    0.704003   -0.747614
C      0.049724   -0.705987   -0.453155
C     -1.013415   -1.058864    0.514752
C     -1.837054   -0.131076    0.939366
H     -2.608727   -0.381043    1.640245
H     -1.754012    0.883612    0.596472
H     -1.099018   -2.093847    0.865253
H     -0.164821   -1.304318   -1.379845
H      1.061293   -0.992725   -0.105800
H      0.978624    2.513912   -0.887096
