14

C     -2.511142    0.132221    0.053630
C     -1.384446   -0.540258    0.101578
C     -0.131971    0.125282    0.530695
C      0.929968    0.088313   -0.540038
H      0.608476    0.109853   -1.598528
C      2.242313    0.704701   -0.283315
H      2.855828    1.595866   -0.220215
C      2.169376   -0.648448   -0.173092
H      2.632796   -1.607135    0.028600
H      0.231194   -0.376418    1.445461
H     -0.322765    1.198338    0.764848
H     -1.349768   -1.588581   -0.170249
H     -2.561981    1.170378    0.319505
H     -3.407878   -0.364113   -0.258881
