15

C     -1.227641    0.950666    0.501469
H     -1.344443    1.794108   -0.250359
H     -1.816352    1.123170    1.409870
C      0.165133    0.558474    0.596709
H      0.789947    0.720600    1.503541
C     -0.100864   -0.739219   -0.041387
H      0.217454   -1.712929    0.085641
C     -1.564831   -0.363013   -0.114867
N     -2.590135   -0.862745   -0.642569
H     -3.503389   -0.472456   -0.809504
N      0.874919    0.193653   -0.684018
C      2.253260   -0.209190   -0.423194
H      2.737078    0.506776    0.274598
H      2.297435   -1.237514   -0.017866
H      2.812429   -0.250381   -1.388065
