12

C     -1.569558    0.175341   -0.177864
C     -0.280711   -0.521922    0.169326
H     -0.354048   -1.622940    0.052288
N      0.828538   -0.079682   -0.643616
H      0.924287   -0.094042   -1.690384
C      1.823806    0.404235    0.246912
H      2.792185    0.812633   -0.047781
C      1.330271    0.252204    1.440067
N      0.169599   -0.252526    1.509119
H     -1.345177    1.151422   -0.616696
H     -2.074970   -0.460935   -0.948557
H     -2.244222    0.236211    0.707186
