15

O      2.537717    0.594453   -0.012951
C      1.208622    0.417342    0.393537
C      0.657094   -0.731498   -0.400223
C     -0.794568   -1.018896   -0.039986
C     -1.589244    0.226952   -0.341029
C     -2.247528    0.849637    0.581511
H     -2.842250    1.509944    1.135126
O     -1.550958    0.637502   -1.673819
H     -0.909392   -1.345958    0.991024
H     -1.201843   -1.790486   -0.724763
H      0.711732   -0.478778   -1.477285
H      1.237634   -1.662204   -0.243252
H      1.130745    0.265508    1.487710
H      0.670579    1.347410    0.122765
H      2.981658    1.179073    0.654733
