16

N      3.190085   -1.355232    1.947071
C      2.795420   -1.343605    0.839664
O      2.321822   -1.325770   -0.441672
C      0.934138   -1.317529   -0.678213
C      0.321647   -0.081155   -0.040482
C     -1.152684   -0.105341   -0.311939
C     -1.879603    1.070718    0.269497
H     -2.552194    1.545394   -0.478594
H     -2.520599    0.702090    1.093009
H     -1.218923    1.844512    0.681278
H     -1.538453   -1.083922    0.038233
H     -1.293198   -0.110834   -1.431629
H      0.841708    0.802609   -0.407651
H      0.512505   -0.162023    1.046091
H      0.436870   -2.245303   -0.333098
H      0.801459   -1.291730   -1.791566
