13

O      2.364939    0.012384    1.279225
C      1.895503   -0.633959    0.342388
C      0.646574   -0.214747   -0.349570
H      0.330088   -0.874106   -1.169322
N     -0.411996    0.240991    0.538212
C     -1.721486   -0.281516    0.299548
H     -1.801382   -1.260119    0.844085
H     -2.538638    0.370001    0.626961
H     -1.912598   -0.534623   -0.768632
C      0.207385    1.173308   -0.347656
H     -0.314152    1.564218   -1.227364
H      0.820124    1.959287    0.169169
H      2.435639   -1.521122    0.047443
