13

C      2.007827   -0.728246   -0.376835
C      0.669840   -0.481545    0.217031
O      0.290149   -1.149123    1.203909
C     -0.192408    0.530830   -0.347106
O      0.187883    1.211323   -1.348644
C     -1.542273    0.846449    0.177922
O     -1.886507    0.075021    1.257092
H     -2.673517   -0.509669    1.050925
H     -1.599667    1.925781    0.439433
H     -2.255480    0.714535   -0.681750
H      2.094584   -1.832516   -0.508637
H      2.815390   -0.355182    0.281451
H      2.084180   -0.247658   -1.364793
