15

C      2.347767   -0.415779    0.164922
N      0.930710   -0.027306    0.083755
C      0.407065    1.286815    0.233926
H      0.967993    2.201895    0.430563
C     -0.900042    1.259349    0.099645
H     -1.575094    2.115621    0.164273
C     -1.343496   -0.103181   -0.154193
C     -2.565502   -0.565007   -0.346859
H     -3.392683    0.125219   -0.322918
H     -2.783926   -1.603514   -0.528433
N     -0.137196   -0.892294   -0.155611
H     -0.084184   -1.917308   -0.308103
H      2.437801   -1.477147    0.452648
H      2.871007   -0.174006   -0.774103
H      2.819780    0.186643    0.960487
