12

O      0.157858   -1.263223    0.394565
C      1.387119   -0.700672    0.114373
H      2.353829   -1.232885    0.130327
C      1.273658    0.571374   -0.180776
H      2.130074    1.218722   -0.437923
C     -0.141828    0.947144   -0.106186
H     -0.329786    1.781290    0.608907
H     -0.457850    1.227154   -1.139612
C     -0.854626   -0.302494    0.280106
O     -1.746025   -0.742377   -0.704701
H     -2.390004   -1.345799   -0.212806
H     -1.382418   -0.158234    1.253726
