16

C      2.809893    0.638616   -0.337255
C      1.313127    0.814667   -0.597012
C      0.804030   -0.529906   -0.969431
C     -0.379769   -0.890549   -0.512740
C     -1.111997    0.078353    0.339744
H     -0.547316    0.794396    0.959635
C     -2.421646    0.553699   -0.243509
H     -2.759364    0.133342   -1.216009
H     -2.763218    1.590281   -0.049213
N     -2.408367   -0.388490    0.851006
H     -2.645284   -1.378615    0.654905
H     -0.821127   -1.871106   -0.747062
H      1.397694   -1.201942   -1.606328
H      3.213226    0.108710   -1.244709
H      2.989305   -0.042402    0.519357
H      3.330814    1.590946   -0.258501
