9

N     -0.496098    1.045392    0.359314
H     -0.001136    1.775560   -0.192715
C      0.202413   -0.214993    0.573131
C      1.477519   -0.418540   -0.076973
N      2.471600   -0.588614   -0.599850
H      0.132840   -0.675877    1.590823
C     -0.994916   -0.139196   -0.305501
H     -1.965331   -0.518226    0.050829
H     -0.826890   -0.265507   -1.399058
