13

O      2.329094   -0.434667    0.406417
C      1.495521    0.520411   -0.134918
C      0.192517    0.322639   -0.439491
C     -0.374976   -1.109366   -0.311791
H     -0.690722   -1.580738   -1.166679
H      0.149200   -1.630829    0.477933
C     -1.612724   -0.400778    0.343003
H     -2.002639   -0.645168    1.335130
C     -1.983837    0.535527   -0.464921
C     -0.813376    1.266620   -0.509909
H     -0.783115    2.318891   -0.606708
H      1.932498    1.513729   -0.309812
H      2.162559   -0.676270    1.381744
