13

C      1.613987    1.727522    1.129317
C      1.096310    0.941032    0.552437
C      0.416770   -0.051103   -0.195767
H      0.904357   -0.284899   -1.208374
C     -1.077251    0.131351   -0.313618
C     -1.549576    0.499802   -1.704328
H     -1.471725   -0.427329   -2.305106
H     -1.387125    0.923095    0.456320
O     -1.298438   -1.072743    0.214096
C      0.025728   -1.305803    0.428194
H      0.188470   -1.436184    1.546953
H      0.370847   -2.252173   -0.086590
H      2.167646    2.607431    1.770953
