11

N      1.392001    0.579542   -0.040908
H      2.283735    0.976847   -0.275703
C      1.121765   -0.828766   -0.066060
H      2.031453   -1.507831   -0.073091
O     -0.018453   -1.249212   -0.048734
C     -1.145461   -0.474132   -0.070406
H     -1.267308   -0.208589   -1.280931
H     -2.086179   -0.960215    0.079213
C     -0.893577    0.865795    0.388726
H     -1.673559    1.372863    1.047995
C      0.255581    1.433698    0.339901
