11

O     -0.854217    1.203632   -0.810541
C     -0.855200    0.456757    0.380139
C      0.111368   -0.688991    0.205030
C      1.485461   -0.226360   -0.069681
C      1.730709    0.659360   -1.040829
H      2.350764   -0.589713    0.509012
H      0.137660   -1.252187    1.174464
H     -0.207969   -1.343118   -0.618986
H     -0.650868    1.069541    1.251679
H     -1.885631    0.058842    0.481048
H     -1.362077    0.652237   -1.461335
