14

C     -1.626213   -1.050836    0.907357
N     -0.336031   -0.728642    0.340985
C     -0.009356    0.435358   -0.095527
O      1.263823    0.621821   -0.618827
C      2.368274   -0.122687   -0.078489
H      3.300731    0.134969   -0.594659
H      2.450196    0.110382    1.005257
H      2.117032   -1.195584   -0.218463
N     -0.965739    1.489071   -0.025710
H     -1.090038    2.014460    0.873416
H     -1.552545    1.749907   -0.866648
H     -2.179785   -0.130988    1.138253
H     -2.233190   -1.612583    0.146539
H     -1.507160   -1.714648    1.787830
