11

N      1.907250    0.191734    0.029258
C      0.712142   -0.598182    0.012028
C     -0.478679    0.301215   -0.062530
N     -1.120888    1.396815   -0.123531
C     -1.972552    0.317281   -0.118191
H     -2.546741    0.002770    0.779606
H     -2.382145   -0.079520   -1.081433
H      0.665602   -1.270593    0.888342
H      0.726751   -1.204564   -0.921663
H      1.774066    1.193031    0.204873
H      2.715193   -0.249988    0.489070
