10

O      2.249075    1.137954    0.182463
C      1.111377    0.751477    0.050538
N     -0.079949    1.566910    0.059183
C     -1.121238    0.740271    0.081504
H     -2.189146    0.995878    0.106010
C     -0.652759   -0.668617    0.138679
H     -1.317913   -1.421685    0.666182
O     -0.210308   -1.000235   -1.196178
C      0.698985   -0.641211   -0.090637
H      1.511874   -1.460744    0.002255
