17

C      1.351036   -0.417416    0.877437
H      1.754903   -1.332310    1.310017
H      0.829736    0.241231    1.590634
C      1.958036    0.254003   -0.298623
H      1.963067    1.356442   -0.362152
H      2.940467   -0.191750   -0.621796
C      0.777658   -0.570697   -0.532454
C     -0.607401   -0.004958   -0.668397
C     -1.493535   -0.766087    0.318570
H     -1.981290   -1.578346   -0.257561
H     -0.873554   -1.265436    1.094856
H     -2.216059   -0.109030    0.818271
O     -0.663682    1.314915   -0.284327
C     -1.737245    1.867271   -0.278634
H     -1.882464    2.883955    0.002170
H     -1.011746   -0.112599   -1.688820
H      0.892073   -1.569188   -1.019189
