12

C     -1.712293    0.051138    0.127918
C     -0.343797   -0.369230    0.551637
C      0.735099    0.383796   -0.132343
C      0.469351    1.324701   -1.021224
C      2.109435    0.050210    0.209993
O      2.401424   -0.837851    1.049808
H      2.903908    0.591308   -0.281040
H     -0.188295   -0.231561    1.655040
H     -0.151353   -1.465378    0.379481
H     -2.167085    0.633210    0.977626
H     -2.351021   -0.843272   -0.094619
H     -1.705372    0.712928   -0.774506
