16

C      1.779604    0.434253   -0.338009
C      0.724214    0.062779    0.439507
C     -0.232491   -0.143548    1.291586
H     -0.629491    0.016422    2.254470
N     -0.732167    0.295569    0.043376
C     -1.159040    1.449998   -0.423988
H     -1.689911    1.375328   -1.395939
H     -1.774493    2.106086    0.230389
C     -0.903202   -1.061908   -0.340544
H     -1.899046   -1.453223    0.016325
H     -0.766681   -1.254798   -1.411577
C      0.165587   -1.380662    0.621456
H      0.743614   -2.170845    0.822202
H      1.890482   -0.130537   -1.312798
H      1.730142    1.511301   -0.674835
H      2.752880    0.343784    0.178378
