10

C     -0.675670    0.477263    1.373993
C     -0.476600   -0.584362    0.303835
H     -1.352354   -1.123190   -0.076667
C      0.616300   -0.366251   -0.676469
N      1.288532    0.152485   -1.746620
C      1.859430    0.590380   -2.686456
N      0.759769   -1.294539    0.359422
H     -1.123225    0.006287    2.247813
H      0.346582    0.830008    1.671052
H     -1.242765    1.311919    0.955917
