16

C      0.294760    1.536795   -0.023452
C      0.372330    0.126829    0.464940
C     -0.569892   -0.808987   -0.215552
C     -2.012362   -0.439642   -0.062948
H     -2.274010    0.556235   -0.440274
H     -2.603813   -1.190703   -0.646255
H     -2.326371   -0.593864    0.999646
H     -0.429840   -1.816261    0.211103
H     -0.294603   -0.856071   -1.290729
C      1.740236   -0.368898    0.216966
C      2.920385   -0.788705   -0.065653
N      4.060354   -1.333143   -0.317931
H      0.187227    0.152713    1.572266
H      1.250228    2.050845    0.268299
H     -0.522291    2.128805    0.438727
H      0.207660    1.644054   -1.109154
