15

O      0.232056    1.887522    0.778727
C      0.170127    0.754933   -0.009357
C     -1.144269    0.376982   -0.566589
H     -1.215690    0.374481   -1.673551
H     -1.962711    0.973035   -0.069792
C     -1.014509   -0.965060    0.079084
H     -0.857563   -1.740022   -0.729720
H     -1.803365   -1.240480    0.803391
C      0.297509   -0.553381    0.624758
H      0.406636   -0.588921    1.733710
C      1.484471   -0.778815   -0.166476
H      2.196838   -1.607077   -0.253906
C      1.368710    0.391626   -0.731434
H      1.971519    0.919854   -1.492058
H     -0.129760    1.795322    1.673214
