15

C     -1.850789   -0.433169    0.028009
H     -2.531378   -0.534351    0.901725
H     -2.452039   -0.212550   -0.884886
O     -1.051559   -1.531430   -0.061309
C      0.050450   -1.088682    0.113616
C      1.471112   -0.713029    0.307107
H      2.161432   -1.338954   -0.324658
H      1.772514   -0.818492    1.338811
C      1.588243    0.697106   -0.276407
H      1.713274    1.382908    0.588548
C      0.151931    0.997769   -0.779608
H      0.016445    2.098668   -0.785853
H      0.005380    0.544644   -1.765466
C     -0.622788    0.292688    0.284169
H     -0.422228    0.656874    1.316202
