13

C     -0.442740   -0.893516    0.957756
C      0.517902    0.087771    0.338115
C      0.118861    0.448460   -1.079601
O      0.101388   -0.644750   -1.915649
H     -0.820631   -0.784434   -2.269564
H      0.884482    1.162527   -1.451597
H     -0.855413    0.980550   -1.104257
N      0.516305    1.245511    1.139324
C      0.532129    2.205229    1.817078
H      1.524415   -0.332039    0.335146
H     -0.001296   -1.382889    1.829243
H     -1.416845   -0.409727    1.200649
H     -0.658557   -1.682693    0.203357
