18

C      2.855826   -0.519832   -0.145647
O      1.631548    0.048957    0.279019
C      0.391903   -0.383350   -0.168776
N      0.303572   -1.596860   -0.557257
H     -0.601892   -1.944469   -0.893916
C     -0.714581    0.591709   -0.158166
C     -0.904998    1.042188    1.281741
H     -1.529041    0.266067    1.773637
H     -1.370506    2.032384    1.330128
H      0.075878    1.122170    1.816975
C     -2.000847    0.069520   -0.698656
H     -2.643316    0.943603   -0.996850
H     -2.600011   -0.511842    0.009522
H     -1.861004   -0.512743   -1.633750
H     -0.441138    1.496588   -0.772415
H      3.728170   -0.058832    0.305940
H      2.863587   -0.478004   -1.274193
H      2.816850   -1.607256    0.102776
