13

O      2.447697    0.466867    0.022029
C      1.507419    0.152433   -0.647202
C      0.116059    0.055511   -0.235631
C     -0.377637   -0.461011    1.035403
H      0.256227   -0.856359    1.846234
C     -0.555377   -1.274791   -0.227831
H      0.141308   -2.126528   -0.317251
H     -1.516028   -1.295314   -0.749279
O     -1.207625    0.607191    1.233219
C     -0.753191    1.245335    0.063351
H     -1.546456    1.435153   -0.672215
H     -0.241675    2.196919    0.323274
H      1.729278   -0.145407   -1.674101
