10

O     -2.234499    1.061773    0.115815
C     -1.022257    0.723347    0.065589
C     -0.616014   -0.686793    0.016521
H     -0.996252   -1.280997    0.870521
H     -0.969229   -1.083602   -0.960367
N      0.811723   -0.615101   -0.030932
H      1.467799   -1.435454   -0.073947
C      1.178412    0.747916   -0.009693
H      2.235397    1.060283   -0.038363
N      0.144922    1.508629    0.044857
