14

C      0.726794    0.421991    1.665811
O      1.775732    0.114563    1.300547
C      1.408604   -0.305184    0.116246
H      1.558330   -1.405743   -0.006142
H      1.856483    0.207804   -0.781725
C      0.040655    0.047550    0.472701
C     -0.967701   -1.079482    0.566364
H     -1.573440   -0.907758    1.472209
H     -0.469189   -2.062470    0.535919
H     -1.627953   -0.972855   -0.320149
C     -0.557739    1.260238   -0.227140
H     -1.273837    1.716768    0.478339
H     -1.126964    0.970155   -1.133039
H      0.230225    1.994422   -0.438628
