14

C     -1.775384   -0.449003    0.513499
C     -0.883077   -0.006798   -0.643247
C      0.452136    0.378445   -0.075638
O      0.592493    1.382981    0.847773
H      0.677374    2.378998    0.606237
C      1.543838   -0.261847   -0.467441
O      2.798025    0.068583    0.037564
H      3.271055   -0.663958    0.551906
H      1.397052   -1.054337   -1.201953
H     -1.321617    0.842320   -1.202493
H     -0.755416   -0.885909   -1.295384
H     -2.739803   -0.814835    0.117842
H     -1.277827   -1.300136    0.993386
H     -1.978849    0.385496    1.217949
