12

O     -1.137002   -0.295535    1.095185
C     -0.094835   -0.918015    0.468806
H     -0.193273   -2.033120    0.403594
C     -0.222800   -0.107701   -0.739447
H     -0.589897   -0.620525   -1.678332
C     -1.284040    0.577941    0.058435
H     -2.266853    0.630440   -0.433141
H     -0.943784    1.607308    0.333846
N      0.990687    0.612929   -0.886112
C      1.769341    0.354751    0.090450
H      2.786883    0.740080    0.290136
O      1.185573   -0.548553    0.996579
