14

C     -0.517811   -1.112095   -0.640560
C      0.012162   -0.009380    0.232923
C      1.434286    0.374718   -0.127423
H      1.550047    0.663465   -1.181605
H      2.127816   -0.459672    0.124144
H      1.721056    1.216191    0.539229
O      0.045468   -0.495935    1.540410
H     -0.857934   -0.447688    1.952426
C     -0.860261    1.184046    0.093751
C     -1.945539    1.193670   -0.652964
H     -0.599826    2.087393    0.625113
H     -1.371239   -1.577938   -0.085759
H     -0.946408   -0.710062   -1.572911
H      0.208182   -1.906714   -0.846774
