9

O      2.732625   -1.536883   -0.411213
C      1.844797   -0.728195   -0.596542
N      1.123118    0.146318   -1.205245
C      0.133216    0.847826   -0.412294
C     -1.096280    0.070572   -0.263508
C     -2.131893   -0.559203   -0.140971
H     -3.021185   -1.120166   -0.028047
H     -0.104507    1.782740   -0.913198
H      0.520111    1.096992    0.605359
