11

C      1.318827   -0.190439   -0.079650
C     -0.099854   -0.238997   -0.588093
H     -0.125061   -0.255153   -1.708705
O     -0.811977   -1.323392   -0.040002
N     -1.907535   -0.828621    0.612400
C     -1.915058    0.450218    0.500588
C     -0.891502    0.937941   -0.169147
H     -0.661878    1.951850   -0.374608
H      1.537694   -1.036872    0.634497
H      1.998682   -0.229405   -0.954595
H      1.557660    0.762870    0.427112
