17

C      2.529162    0.132936    0.269786
C      1.208009   -0.323631   -0.341805
C      0.063862    0.285613    0.361740
O      0.232801    1.419551    0.808814
C     -1.255351   -0.306691    0.575808
C     -2.318519    0.683236    0.112942
H     -3.057846    0.182126   -0.550922
H     -2.913036    1.049561    0.987409
H     -1.857702    1.525326   -0.444423
O     -1.492130   -1.506048   -0.034842
H     -0.711133   -1.991531   -0.365448
H     -1.380494   -0.450631    1.678666
H      1.194272    0.070154   -1.389740
H      1.233565   -1.421947   -0.310290
H      3.335079   -0.160778   -0.449698
H      2.552214    1.221753    0.445262
H      2.637246   -0.409000    1.243480
