11

C      0.571076   -0.826174   -0.274121
H      0.698027   -1.103680   -1.354643
H      0.998804   -1.534345    0.442651
C      1.021864    0.554143    0.054222
O      2.093188    1.088305    0.096054
C     -0.399524    0.928241    0.289884
H     -0.713971    1.714679   -0.440304
H     -0.572630    1.232027    1.344262
C     -0.876883   -0.455396   -0.036836
H     -1.280131   -1.050089    0.804250
H     -1.539819   -0.547712   -0.925419
