17

C      2.540041   -0.267722    0.157740
C      1.101142    0.034005   -0.096191
C      0.153646   -0.872531   -0.208410
H      0.234831   -1.951920   -0.141222
C     -1.118944   -0.176160   -0.454407
C     -2.170689   -0.479567    0.590487
H     -3.092830    0.057075    0.285726
H     -1.822899   -0.146875    1.589356
H     -2.347842   -1.569884    0.592376
H     -1.501976   -0.525374   -1.436759
C     -0.781212    1.269533   -0.470189
H     -1.442009    2.095264   -0.620975
C      0.518847    1.353047   -0.258453
H      1.051454    2.306346   -0.217365
H      3.117209    0.633939    0.397617
H      2.919637   -0.794882   -0.734095
H      2.641596   -0.964295    1.024764
