9

C     -1.231542    0.598340    0.215968
C     -0.146994   -0.385042   -0.022152
O     -0.366882   -1.606983   -0.151594
O      1.153601    0.060778   -0.104494
C      2.066729   -0.757449   -0.303738
H      3.083289   -0.376738   -0.364055
H     -2.185225    0.101447   -0.080816
H     -1.245082    0.879661    1.278463
H     -1.127895    1.485985   -0.467581
