9

C     -0.927631    0.991467    0.385259
C     -0.345356   -0.173674    0.182111
O     -1.071887   -1.346003    0.321402
H     -1.769560   -1.580434   -0.395674
C      1.040896   -0.229363   -0.183338
C      2.217722   -0.297792   -0.491528
H      3.238731   -0.342406   -0.770222
H     -1.969046    1.044098    0.660271
H     -0.413869    1.934107    0.291718
