15

C     -0.489026    1.210220    1.250853
C     -0.116183    0.436727    0.004111
O      0.602868    1.042608   -0.978660
C      1.509365   -0.020558   -1.001908
H      2.463722    0.334228   -0.500503
H      1.676937   -0.538906   -1.944892
C      0.716285   -0.756145    0.039501
H      1.177095   -1.231736    0.893971
C     -0.739484   -0.929632   -0.156610
C     -1.318872   -1.208881   -1.522856
H     -2.437519   -1.295122   -1.380774
H     -1.296528   -1.297052    0.727764
H     -0.314812    0.648270    2.172338
H      0.112754    2.117755    1.272634
H     -1.546603    1.488225    1.125031
