15

C     -0.759026    1.447443   -0.449521
C     -0.675161    0.176748    0.356937
H     -1.135195    0.323425    1.366515
C     -1.182648   -1.053622   -0.278680
H     -1.984198   -1.559103    0.320964
H     -1.476111   -0.941333   -1.361173
N      0.111762   -1.618702   -0.165646
H      0.606012   -2.540336   -0.409708
C      0.607483   -0.476156    0.430667
C      1.841795   -0.194834    0.872017
N      2.956009    0.396039    1.063475
H      3.505952    0.786780    0.251039
H     -1.276695    2.222699    0.147360
H      0.217313    1.822687   -0.772176
H     -1.357292    1.208265   -1.372070
