10

N     -1.469383    0.486100   -0.114700
C     -0.470837   -0.487088    0.236324
H     -0.887604   -1.409879    0.683950
C      0.318788   -0.782914   -0.983656
O      1.463012   -0.380905   -0.767552
C      1.637853    0.186782    0.474594
H      2.574142    0.601415    0.856072
N      0.511605    0.136953    1.087925
H     -1.239243    1.456240    0.187789
H     -2.438333    0.193296    0.065073
