14

C     -2.272647    0.905996    0.562973
O     -0.934959    0.783609    0.250672
C     -0.529153   -0.494543    0.547650
C      0.911518   -0.730362    0.244123
O      1.539042    0.245904   -0.228696
C      2.880175    0.072123   -0.525696
H      3.117624   -0.748676   -1.210022
H      3.670347    0.696386   -0.119617
H      1.402110   -1.657460    0.408079
H     -1.156507   -1.238456    0.043530
H     -0.661570   -0.657838    1.651788
H     -2.909903    0.198028   -0.004244
H     -2.605694    1.962751    0.438383
H     -2.450384    0.662538    1.642390
