14

C     -0.286779    1.223358    0.562265
H     -0.433508    1.553259   -0.467786
H     -0.199683    2.060036    1.302993
C     -1.071340   -0.021728    1.004611
C     -1.952413   -0.602403   -0.025286
O     -1.609709   -0.717984   -1.179025
H     -2.938691   -0.937187    0.256855
H     -1.461530    0.047657    2.034802
C      0.405403   -0.050632    0.852130
N      0.985662   -0.816704   -0.225586
C      2.183704   -0.612104   -0.620403
H      2.792646    0.144512   -0.152374
H      2.577392   -1.200844   -1.422280
H      1.008845   -0.069237    1.780397
