16

C      2.834575    0.161174   -0.733430
C      1.343563    0.305453   -0.409588
N      0.641696   -0.902448   -0.719609
C     -0.626850   -0.981466   -0.522135
C     -1.411518    0.121703    0.014920
O     -0.898292    1.227214    0.321617
C     -2.874691   -0.027738    0.221761
H     -3.183307   -1.085921    0.309132
H     -3.359709    0.457320   -0.667361
H     -3.230402    0.537323    1.124502
H     -1.111599   -1.910312   -0.770277
H      1.311966    0.559678    0.677589
H      0.990127    1.143872   -1.051359
H      3.006350   -0.068488   -1.793201
H      3.235583   -0.635857   -0.049504
H      3.332507    1.098492   -0.410179
