14

O     -1.867681   -1.158182   -0.385881
C     -1.005287   -0.072293   -0.274956
C     -1.678860    0.987346    0.502366
O     -1.143218    2.049592    0.746964
H     -2.675822    0.821436    0.867405
C      0.317232   -0.483089    0.329911
N      1.223102    0.593049    0.460026
C      2.480261    0.369749    0.446395
H      3.134267    1.222575    0.548925
H      2.867745   -0.620456    0.337985
H      0.710617   -1.343527   -0.224773
H      0.092842   -0.866002    1.366803
H     -0.815472    0.354643   -1.294500
H     -1.639727   -1.854841    0.274645
