17

C     -1.978501   -0.176585    0.401529
C     -0.940921   -0.331793   -0.657855
O     -1.447088   -0.101007   -1.909690
H     -1.373507   -0.925136   -2.451679
C      0.206997    0.649235   -0.441403
C      0.785718    0.340133    0.895368
C      2.055763   -0.018281    0.983875
O      2.799345   -0.090190   -0.190935
H      3.802850    0.062222   -0.097237
H      2.510971   -0.251304    1.945474
H      0.190348    0.402873    1.790475
H     -0.234676    1.661525   -0.383917
H      0.965004    0.555230   -1.239560
H     -0.523149   -1.369491   -0.578784
H     -2.360982    0.876145    0.392573
H     -2.842918   -0.820970    0.147926
H     -1.615254   -0.462608    1.393839
