14

C     -1.346053   -0.819026   -0.087874
N     -0.129348   -0.059177   -0.339289
C     -0.287839    1.345088   -0.014030
H      0.193470    1.619662    0.948246
H     -1.384274    1.536218    0.027102
H      0.170736    1.991737   -0.818357
C      0.950286   -0.580182    0.454962
C      2.322920   -0.361776    0.064041
N      3.428889   -0.197036   -0.235443
H      0.724018   -1.130142    1.336773
H      0.193400   -0.185035   -1.338778
H     -1.909238   -0.968567   -1.017640
H     -0.998030   -1.822029    0.287056
H     -1.928935   -0.369736    0.733231
