17

C     -0.858547    1.206641   -0.069052
C     -0.526545   -0.251045   -0.211995
C     -1.592797   -1.162279    0.333200
H     -2.562118   -0.809798   -0.078698
H     -1.596883   -1.208591    1.445239
H     -1.358563   -2.194236   -0.056765
C      0.841987   -0.566927    0.344540
H      0.994942   -1.615670    0.668389
C      2.012514    0.112543   -0.242693
H      1.788330    0.853130   -1.036281
H      2.982924   -0.417974   -0.323747
C      1.515367    0.485920    1.125721
O      1.701151    1.217508    2.086911
H     -0.470230   -0.459303   -1.316653
H     -1.158636    1.674497   -1.041899
H     -0.002202    1.766545    0.346964
H     -1.710694    1.369040    0.623559
