15

C     -1.406973   -0.788396    0.249159
H     -2.262097   -1.311299   -0.162013
H     -1.668511   -0.350017    1.243045
C     -0.240081   -1.639831    0.175416
O      0.934262   -1.596052    0.138533
C      1.755898   -0.526659    0.172781
H      2.357920   -0.491880   -0.766113
H      2.471068   -0.576998    1.017041
C      1.023740    0.794259    0.263093
H      1.728832    1.587209    0.639233
C     -0.146167    1.208263    0.029677
H     -0.353402    2.294912    0.231932
C     -1.230142    0.426710   -0.694941
H     -2.155605    0.923275   -0.874013
H     -0.808744    0.046502   -1.662830
