14

C      2.553442   -0.257310   -0.126022
C      1.281074    0.131118   -0.193925
C      0.128333   -0.647489    0.293415
H      0.060567   -1.650855   -0.182869
H      0.188561   -0.824184    1.400935
C     -1.036023    0.202381   -0.008757
N     -2.378261   -0.174663    0.301597
H     -3.137762   -0.286056   -0.393648
H     -2.619441   -0.352445    1.297245
C     -0.622523    1.310074   -0.585756
H     -1.337946    2.088015   -0.895585
O      0.753976    1.296060   -0.709508
H      2.823692   -1.202999    0.307479
H      3.342311    0.368353   -0.504601
