14

O      0.545509    0.764425    0.868287
C      0.575170   -0.580583    0.467740
C      1.749891   -0.734174   -0.235004
C      2.562335   -0.825788   -0.714537
H      3.514518   -0.946250   -1.260622
H      0.389953   -1.140145    1.401114
N     -0.672300   -0.815760   -0.195600
H     -1.052862   -1.681256   -0.210472
C     -1.441094    0.244197    0.235309
H     -1.739359   -0.054048    1.403574
H     -2.464112    0.447050   -0.195684
C     -0.550496    1.324448    0.484051
H     -0.427492    1.773587   -0.643739
H     -0.989662    2.224297    1.032044
