14

O      2.934356    0.810758    0.837115
C      2.024583    0.078486    0.096950
C      0.721475    0.094559    0.327297
C     -0.193990   -0.690924   -0.476428
C     -1.487371   -0.654199   -0.222632
C     -1.955133    0.202762    0.891536
H     -1.617824    1.246286    0.816984
H     -1.725558   -0.221154    1.890889
H     -3.081380    0.227786    0.810122
H     -2.165337   -1.254092   -0.839882
H      0.163242   -1.314287   -1.289655
H      0.323788    0.698772    1.123859
H      2.354390   -0.554322   -0.723279
H      3.704760    1.329570    0.458436
