13

C      2.112528   -0.544538   -0.482316
C      1.650984    0.628177   -0.077870
O      0.303978    0.857671    0.146986
C     -0.655744   -0.189987    0.050726
C     -2.037979    0.288944    0.333220
H     -2.591348    0.568999   -0.595159
H     -2.048361    1.152730    1.045806
H     -2.603022   -0.517633    0.821711
H     -0.363844   -0.926574    0.850422
H     -0.604625   -0.725290   -0.900201
H      2.309979    1.480591    0.100802
H      3.143138   -0.745448   -0.661932
H      1.384316   -1.327642   -0.632196
