8

N      1.571603   -0.672324    0.161582
C      0.300953   -0.462225    0.137943
N     -0.721619   -1.328430    0.034224
O     -1.828859   -0.642157    0.054817
N     -1.594931    0.626108    0.166106
N     -0.259126    0.753152    0.219403
H      0.277002    1.643696    0.309495
H      2.254977    0.082179    0.245266
