11

N      2.805697    0.521899   -1.122358
C      1.707272    0.582054   -0.441897
O      0.887683    1.453875    0.281194
C      0.507649    0.070908    0.151019
O     -0.619672   -0.230110   -0.634035
C     -1.791162   -0.723787   -0.093478
N     -1.986377   -0.455233    1.174712
H     -2.888469   -0.845152    1.558148
H     -2.517238   -1.297812   -0.658599
H      0.486006   -0.435470    1.150412
H      3.408612    1.358829   -1.269289
