17

C      2.619419   -0.254980    0.138353
C      1.244834   -0.312446    0.747869
C      0.151352   -0.012849   -0.285866
H      0.675403    0.097628   -1.260606
C     -0.610844    1.235170    0.033579
H     -0.047142    1.931323    0.626820
H     -0.924205    1.664620   -0.988075
C     -1.892936    0.812078    0.663132
H     -2.535784    1.422572    1.210375
C     -2.027208   -0.512044    0.389925
H     -2.907666   -1.051913    0.725715
C     -0.894058   -1.045217   -0.356524
H     -1.212435   -1.136140   -1.428222
H     -0.563579   -2.080580   -0.083204
H      2.949888   -1.302616   -0.159331
H      2.577512    0.382475   -0.777855
H      3.397448    0.162920    0.803916
