13

N      1.035680    2.052534    0.190668
C      0.336698    0.924884   -0.007737
C      0.737994   -0.453017    0.128683
O      2.144099   -0.736026    0.401370
H      2.748594   -0.893234   -0.334828
C     -0.272430   -1.236137   -0.003153
H     -0.285671   -2.364184    0.042092
C     -1.565679   -0.514612   -0.166685
H     -2.201891   -0.765422   -0.957566
H     -2.109115   -0.509230    0.878820
N     -1.029679    0.863481   -0.233933
H     -1.636581    1.713592   -0.447313
H      2.097981    1.917370    0.509582
