15

O      2.316543   -0.081955    0.124753
C      1.042949   -0.026594   -0.009269
C      0.201235    1.157038   -0.247375
H      0.407888    1.964744    0.477784
H      0.374769    1.596320   -1.268257
C     -1.223045    0.665077   -0.147469
H     -1.619065    1.049451    0.844232
H     -1.879918    1.137121   -0.907193
C     -1.196008   -0.788296   -0.157587
H     -1.950839   -1.454665   -0.037157
C      0.210305   -1.192997   -0.648068
H      0.466696   -1.718336   -1.460636
C      0.098861   -1.049851    0.702748
H      0.130848   -1.362587    1.664046
H      2.618780    0.105532    1.069448
