16

C      0.317162    1.064758    2.458353
C      0.243848    0.426644    1.290381
C     -0.426566    0.875424    0.086810
H     -0.977203    1.819152   -0.034331
C     -0.261279   -0.045356   -0.838219
C     -0.808316    0.033245   -2.253964
H     -1.330966   -0.922766   -2.460681
H     -1.582232    0.825225   -2.282395
H     -0.011243    0.143231   -2.986225
C      0.528166   -1.176962   -0.330465
H      1.461161   -1.327825   -0.927527
H     -0.050084   -2.125995   -0.321144
N      0.829047   -0.834374    1.030040
H      1.394975   -1.426534    1.724317
H     -0.162464    2.019841    2.553435
H      0.835994    0.652292    3.291615
