16

C     -1.505264    1.096703   -0.803209
C     -0.469844    0.139935   -0.231303
C     -0.917480   -1.275218   -0.159018
H     -1.253589   -1.652920   -1.125488
H     -1.821620   -1.306181    0.516521
H     -0.177421   -1.941413    0.336869
C      0.873693    0.605002   -0.108149
C      2.062561   -0.318960   -0.138529
H      1.795892   -1.330125   -0.537812
H      2.569713   -0.390411    0.855796
H      2.832470    0.093447   -0.828364
H      1.102274    1.651292   -0.380866
O      0.065507    0.567865    1.075165
H     -1.939872    1.731861   -0.027956
H     -0.939926    1.757524   -1.523493
H     -2.277092    0.571597   -1.377286
