11

N      2.238522    0.250368   -0.340805
C      0.851523   -0.012024   -0.070082
C      0.507278   -1.099470    0.549769
N     -0.699742   -1.358448    0.801911
C     -1.762505   -0.493433    0.433029
H     -2.812401   -0.751182    0.669896
C     -1.462530    0.626713   -0.200378
H     -2.263413    1.298045   -0.488889
O     -0.129390    0.881244   -0.461838
H      2.868371   -0.541851   -0.570307
H      2.664288    1.200038   -0.322306
