11

O      1.377885    0.884937   -0.467130
C      0.145104    1.053910    0.019544
H      0.134428    1.526040    1.019892
C      0.043997   -0.440714    0.229493
C     -1.258036   -0.271258   -0.168913
H     -1.948101   -0.272685    0.767544
H     -1.645649   -0.888785   -1.053510
O     -0.993478    0.975263   -0.658730
C      1.326939   -0.468295   -0.200468
H      1.955726   -1.212873   -0.558489
O      0.861186   -0.885540    1.166596
