11

C      1.247428   -0.413250    0.130241
C     -0.081148    0.256985   -0.220503
O      0.029170    1.539789   -0.711315
H     -0.073324    1.615169   -1.676257
C     -1.082340    0.131474    0.877056
H     -1.390293    0.406124    1.888377
C     -1.275011   -0.532166   -0.287002
H     -1.978820   -1.202471   -0.767239
H      1.504413   -0.157530    1.193384
H      2.051040   -0.131919   -0.570853
H      1.048885   -1.512204    0.144112
