15

C     -0.313429   -1.504712    0.229767
H     -0.078042   -2.490783    0.701008
H     -0.774066   -1.727487   -0.739237
O     -1.258734   -0.841367    1.030208
C     -1.558801    0.395112    0.438259
H     -1.841042    0.183797   -0.654451
H     -2.394008    0.900110    0.908653
C     -0.325742    1.275729    0.341792
H     -0.670645    2.276854    0.021923
C      0.684947    0.657677   -0.566231
H      0.415437    0.538087   -1.652226
C      2.017464    0.268981   -0.124176
H      2.392320    0.788861    0.814211
H      2.762035    0.009881   -0.863594
C      0.942307   -0.730740    0.114092
