14

O      2.430476   -0.338896    1.003021
C      2.242606    0.606456    0.213259
N      1.187560    0.529073   -0.765506
C      0.348945   -0.646432   -0.828638
C     -0.306982   -0.764716    0.476113
C     -1.477494   -0.237428    0.691001
C     -2.661734    0.289208    0.659060
H     -2.752560    1.300592    0.914810
H     -3.500256   -0.275955    0.384539
H      0.123699   -1.262717    1.265738
H     -0.393036   -0.465646   -1.658178
H      0.932791   -1.551956   -1.108823
H      1.006411    1.298640   -1.435976
H      2.819573    1.519777    0.189581
