14

C     -0.946049   -0.368147   -0.993078
H     -0.225513   -0.808901   -1.698955
H     -1.821185    0.142320   -1.464985
C     -0.304693    0.494853    0.055832
C      1.171101    0.721322   -0.134903
O      1.920654   -0.424750   -0.128163
H      1.423144   -1.251373   -0.232074
H      1.488787    1.459157    0.650462
H      1.330842    1.230731   -1.119299
H     -0.805515    1.499541    0.171632
C     -0.680515   -0.427507    1.163439
H     -1.403974   -0.036039    1.912540
H      0.195035   -0.900736    1.683553
C     -1.342122   -1.330471    0.133998
