10

C     -1.177540    0.000726   -0.296709
C      0.055328   -0.458237    0.437976
H     -0.063445   -0.745135    1.504890
C      1.337065    0.275978    0.035471
H      1.272719    0.975511   -0.820854
H      1.939230    0.594607    0.883283
O      1.097042   -1.051542   -0.247050
H     -1.771003    0.645062    0.377023
H     -0.892378    0.597757   -1.196713
H     -1.797017   -0.834727   -0.677317
