16

O      2.848569   -0.910617   -0.777564
C      1.690603   -1.060014   -0.002685
C      0.714820   -0.017804   -0.458292
C     -0.589485   -0.062408    0.297189
C     -1.447461    1.040003   -0.279871
C     -2.607696    0.748202   -0.837925
H     -3.213748    1.543359   -1.247604
H     -2.915908   -0.288425   -0.866563
H     -1.133146    2.067070   -0.246864
H     -0.449970    0.167625    1.362152
H     -1.099783   -1.037250    0.167069
H      1.178071    0.979818   -0.244177
H      0.544310   -0.114629   -1.536481
H      1.240025   -2.056564   -0.243268
H      1.987622   -0.970420    1.040971
H      3.253176   -0.027945   -0.583210
