13

N      2.463906    0.201783    0.398141
C      1.063940   -0.085958    0.220842
N      0.669096   -1.249006    0.463293
C     -0.559190   -1.416015    0.631997
C     -1.570879   -0.592866   -0.088687
H     -1.740822   -1.145708   -1.041146
H     -2.506407   -0.595017    0.468785
C     -1.080782    0.785065   -0.405477
H     -1.365709    1.047769   -1.444078
H     -1.598445    1.533195    0.306087
O      0.283981    0.937511   -0.205567
H      2.951866   -0.320794    1.154400
H      2.989446    0.900042   -0.174104
