11

O      2.914365    0.363052    0.643672
N      1.564346    0.577461    0.534398
C      0.734066   -0.305911    0.086350
C     -0.688933    0.064240    0.025250
O     -1.503649   -0.999261   -0.243844
C     -2.675326   -0.775801   -0.471829
H     -3.121192    0.211831   -0.476711
H     -0.947091    0.502229    1.026981
H     -0.877623    0.889294   -0.702803
H      1.109587   -1.275865   -0.224735
H      3.491451    0.748732   -0.100901
