12

C     -0.386231    1.164637    0.022276
H     -0.906968    1.556693   -0.883483
H     -0.605040    1.778366    0.927922
C     -0.755604   -0.257197    0.317420
O     -1.612672   -0.750940   -0.663098
H     -1.121064   -1.146677   -1.424742
H     -1.225691   -0.353657    1.319396
C      0.549357   -0.956018    0.272794
H      0.704156   -2.011402    0.437117
C      1.608847    0.001235   -0.029294
H      2.673427   -0.231074   -0.124679
C      1.077483    1.206034   -0.171630
