14

C     -1.541279    0.750754    0.163764
C     -1.003408   -0.572340    0.641751
H     -1.797580   -1.311091    0.871454
C      0.313267   -1.054409    0.402641
C      1.465347   -0.252316   -0.111481
O      1.176624    1.093163   -0.253677
H      1.960462    1.672462   -0.027034
H      2.269346   -0.317255    0.680635
H      1.897459   -0.661523   -1.038367
H      0.504858   -2.149816    0.425593
O     -0.064814   -0.516505    1.733683
H     -2.656382    0.713099   -0.014226
H     -1.102848    1.105556   -0.770157
H     -1.421052    1.500221    0.996734
