12

C      1.885606    0.128561   -0.151679
C      0.728374   -0.300623    0.665134
N     -0.604179   -0.248546    0.189169
C     -1.713487   -0.833555   -0.235422
H     -2.251258   -1.761374   -0.470336
C     -1.735439    0.612916   -0.178000
H     -2.184462    1.147936    0.686263
H     -1.545232    1.225089   -1.101971
H      0.915422   -0.665575    1.659377
H      2.792789   -0.376522    0.193561
H      2.064716    1.226588   -0.048617
H      1.647148   -0.154895   -1.207477
