10

N     -1.396569    0.006095   -0.031215
C      0.008009   -0.192681   -0.024103
C      0.624757   -1.336579   -0.110650
N      1.891972   -1.301960   -0.086021
N      2.251391    0.042258    0.034257
N      1.051892    0.766974    0.075238
H      0.926951    1.803887    0.161115
H     -1.737385    0.569923   -0.827030
H     -1.717190    0.525613    0.837935
H     -1.903826   -0.883531   -0.029527
