8

O      1.439387   -0.691470   -0.346882
C      0.459599    0.256640   -0.119933
C     -0.985034   -0.084906    0.044970
H     -1.547655    0.874685    0.002322
H     -1.372735   -0.718590   -0.755792
H     -1.186981   -0.504625    1.065478
O      0.869308    1.464880   -0.058256
H      2.324112   -0.596614    0.168095
