12

O     -1.430053   -1.117292    0.364818
C     -0.342511   -0.325221    0.197828
C      0.088403    0.793525    1.011101
C     -0.948923    1.844609    1.034055
N     -1.764567    2.673179    1.072193
H      0.235646    0.451369    2.075751
H      1.027114    1.236320    0.699006
C      0.394807   -0.629015   -0.834050
C      1.175965   -0.889311   -1.860153
H      0.911563   -0.376236   -2.741446
H      1.950537   -1.573027   -1.646189
H     -1.297981   -2.088900    0.627084
