15

C      1.303632   -1.180528   -0.029140
C      1.412335    0.166059   -0.670116
C      0.478395    1.178846   -0.001491
O     -0.850384    0.762809   -0.100093
C     -1.504617    0.296519    0.850476
N     -2.852706   -0.105950    0.675528
H     -3.477810   -0.019819    1.507990
H     -3.181522   -0.464713   -0.240057
H      0.784719    1.237988    1.057613
H      0.598317    2.153359   -0.480828
H      1.016294    0.070928   -1.723813
H      2.449261    0.542271   -0.690827
H      0.264181   -1.340294    0.331965
H      1.542782   -1.940171   -0.819946
H      2.017122   -1.357305    0.785837
