14

C     -1.163597   -0.766922   -0.731539
C     -0.720413    0.638086   -0.435472
H     -1.065896    1.461633   -1.089167
N     -0.670690    1.010723    1.021672
H     -1.015333    1.952656    1.256383
C      0.564079    0.791591    0.334987
C      1.350953   -0.470963    0.646228
H      1.283621   -0.915046    1.648938
C      1.579381   -1.326910   -0.546269
O      2.522270   -0.685451   -0.000773
H      1.205937    1.679127    0.163473
H     -0.944212   -1.400893    0.169817
H     -0.656562   -1.220042   -1.595532
H     -2.269539   -0.747589   -0.842747
