14

O      2.576383    0.493631    0.607777
C      1.519372    0.003410   -0.167810
C      0.384179   -0.326655    0.779704
C     -0.794273   -0.858184    0.051068
C     -1.986211   -0.277226    0.075982
O     -2.085627    0.886265    0.837538
H     -2.493680    1.719155    0.460324
H     -2.838280   -0.686615   -0.467919
H     -0.698673   -1.761817   -0.534669
H      0.684412   -1.110520    1.510871
H      0.155567    0.589715    1.344689
H      1.897943   -0.892071   -0.699841
H      1.162320    0.767317   -0.872774
H      2.516567    1.453592    0.776372
