11

O      1.791737   -0.261278   -0.437537
C      0.561508   -0.103644    0.141200
C     -0.386586   -1.211315    0.152907
H     -0.161899   -2.212866    0.273286
C     -1.386875   -0.515461   -0.137834
H     -2.537328   -0.649639   -0.317236
C     -0.581426    0.740752   -0.295625
H     -0.760483    1.404178   -1.143163
N      0.200407    1.079197    0.905082
H      0.647859    1.986307    0.862853
H      2.613088   -0.256231   -0.003934
