14

C     -0.977078   -1.322798    0.128300
H     -1.542633   -2.182133   -0.334711
H     -0.594691   -1.490799    1.147814
C     -1.413024    0.090766   -0.151692
H     -2.259480    0.418537   -0.590685
C     -0.392861    1.066137    0.433403
H     -0.365549    1.133026    1.555526
H     -0.515817    2.025350   -0.087854
N      0.764026    0.370769   -0.122472
C      2.123800    0.305094    0.073580
O      2.571099    0.754815    1.244577
H      2.885455   -0.028541   -0.578270
C     -0.174564   -0.472809   -0.805541
H     -0.108684   -0.667413   -1.911976
