14

C      2.221233    0.128324    0.696654
C      0.994713   -0.373494    0.713978
C      0.136623   -0.284572   -0.487608
C     -1.138229    0.482649   -0.225979
C     -1.968397   -0.117624    0.818129
O     -1.634442   -1.135662    1.397414
H     -2.903671    0.345973    1.090052
H     -0.828253    1.507547    0.086826
H     -1.650998    0.613529   -1.201444
H     -0.084698   -1.308714   -0.888906
H      0.685501    0.276379   -1.270596
H      0.670194   -0.841133    1.642161
H      2.609567    0.613667   -0.209366
H      2.890854    0.093129    1.539998
