13

C      2.288419   -0.416752    0.734281
O      1.015879    0.043451    1.176198
C     -0.028738   -0.001037    0.264242
C     -1.171135    0.657471    0.355286
H     -1.421933    1.330450    1.188548
C     -2.001802    0.325113   -0.827037
H     -2.303675    1.214497   -1.410036
H     -2.898955   -0.268576   -0.490801
N     -1.164278   -0.587702   -1.555604
N     -0.096743   -0.747872   -0.940092
H      3.001820   -0.322072    1.551791
H      2.631534    0.211571   -0.114349
H      2.149608   -1.438542    0.352061
