8

N      0.197574    0.714279    0.144131
H      0.373841    1.739149    0.122616
C     -1.092559    0.127287    0.267675
H     -2.046473    0.658196    0.354322
N     -0.903127   -1.107571    0.255986
C      0.271559   -1.519579    0.148140
N      1.083844   -0.358420    0.066482
H      2.115341   -0.253342   -0.030517
