17

C     -2.641037   -0.173333    0.428926
C     -1.866455    0.359032   -0.731251
C     -0.564798    0.526698   -0.590675
C      0.123399    0.197196    0.685943
C      1.153966   -0.823650    0.532845
C      2.361712   -0.395137    0.235968
C      3.538296    0.127870   -0.053103
H      4.128676    0.366324    0.789167
H      3.719043    0.233166   -1.089478
H      1.083031   -1.874793    0.624450
H      0.510878    1.131207    1.185718
H     -0.630631   -0.202486    1.426777
H      0.038007    0.909375   -1.402633
H     -2.406244    0.586865   -1.644576
H     -3.718903   -0.291835    0.167166
H     -2.289343   -1.184857    0.713838
H     -2.539597    0.508359    1.317659
