19

C     -3.224491    0.069421   -0.266855
C     -1.794796    0.199970    0.158112
C     -0.866976   -0.808751   -0.470126
C      0.511537   -0.557069    0.023492
O      1.488547   -0.636168   -0.766572
C      2.790776   -0.414227   -0.378610
C      3.202246    0.942674    0.099686
H      3.193230    1.648779   -0.737721
H      4.217323    0.870799    0.527157
H      2.490298    1.338722    0.871198
H      3.490515   -1.230535   -0.427842
H      0.708974   -0.304781    1.048622
H     -0.927357   -0.840612   -1.571803
H     -1.152908   -1.823158   -0.081829
H     -1.483244    1.251039   -0.009192
H     -1.773878    0.020908    1.274600
H     -3.419238    0.547278   -1.246376
H     -3.623323   -0.947562   -0.223243
H     -3.827234    0.673273    0.473413
