8

O      2.523756   -0.291760   -0.915963
C      1.652602   -0.014414   -0.057653
N      0.630833   -0.956345    0.182079
C     -0.602657   -0.605193    0.337653
C     -1.677591    0.117099    0.436069
H     -2.267294    0.245685   -0.449521
H     -1.990108    0.582323    1.348417
H      1.730460    0.922607    0.447754
