14

C      1.921385    0.984504    0.707436
C      1.280912    0.068901    0.000293
C      0.361555   -0.879560    0.714216
H      0.793059   -1.312151    1.637027
C     -1.095008   -0.781257    0.507872
C     -1.634444    0.309482   -0.382167
H     -0.800424    0.912363   -0.813072
H     -2.220398    0.994758    0.280025
H     -2.318999   -0.066380   -1.160224
H     -1.732456   -1.140176    1.344803
O     -0.325396   -1.798565   -0.062985
H      1.385046   -0.033706   -1.073203
H      1.795553    1.060249    1.776649
H      2.589616    1.681538    0.224643
