11

N      1.946079   -0.826544    0.014357
C      0.764102   -0.066833    0.159569
O      0.591162    0.897163    1.136424
H      0.046419    1.726384    0.855282
N     -0.194523   -0.291949   -0.665310
C     -1.385858    0.436710   -0.560491
N     -2.660353   -0.160229   -0.367686
H     -2.518442   -1.065580    0.146936
H     -1.340240    1.532166   -0.630314
H      2.724097   -0.422451   -0.523936
H      2.027556   -1.758838    0.435169
