14

C      2.191374    0.180482    0.688455
C      1.209912    0.272339   -0.189050
C      0.135031   -0.744817   -0.314078
C     -1.210768   -0.160763   -0.071759
C     -1.409546    1.101177    0.216433
H     -2.400579    1.470438    0.381811
H     -0.572438    1.766928    0.286625
O     -2.285857   -1.023167   -0.163502
H     -2.433585   -1.447409   -1.092988
H      0.092902   -1.164584   -1.362752
H      0.304342   -1.621096    0.336111
H      1.183996    1.127330   -0.849893
H      2.221162   -0.670896    1.349777
H      2.974054    0.914039    0.784811
