12

O      2.897544   -1.190260    0.752964
C      2.136423   -0.331857    0.327888
C      1.437896    0.691344   -0.037872
C     -0.031771    0.665736   -0.129635
C     -0.652272   -0.555315    0.467107
H     -0.108886   -1.507427    0.354297
C     -2.134237   -0.597946    0.383399
H     -3.140762   -0.664061    0.001361
N     -1.535618   -0.446635    1.590680
H     -0.418083    1.547739    0.421015
H     -0.377486    0.760772   -1.187371
H      1.927251    1.627909   -0.296062
