16

C      2.943176    0.243322   -0.635887
O      1.627063    0.012354   -1.152265
C      0.510888    0.033295   -0.359407
N      0.183377    0.224113    1.001220
C     -0.873154   -0.019911    0.140167
C     -1.755326    1.100080   -0.332375
H     -2.194700    0.901079   -1.331141
H     -2.606793    1.206879    0.377445
H     -1.240984    2.077600   -0.382911
C     -1.514737   -1.395217   -0.007446
H     -2.577027   -1.384493    0.308851
H     -0.888928   -2.086411    0.602209
H     -1.434519   -1.639631   -1.099474
H      3.650149    0.166768   -1.497148
H      3.157008   -0.639658    0.011446
H      3.014506    1.199832   -0.100407
