12

O      1.467159    0.584803    0.269199
C      2.435921    0.898392   -0.383484
H      3.102977    1.675435   -0.077913
C      0.633157   -0.418445   -0.155544
H      0.940955   -1.043987   -1.027022
C     -0.206147   -1.053661    0.854187
H     -0.547461   -2.102602    0.687500
H     -0.256912   -0.739735    1.899365
N     -0.797616   -0.107031   -0.080068
C     -1.912817    0.594986   -0.563414
O     -3.040283    0.441160   -0.032748
H     -1.818933    1.270684   -1.390058
