13

C     -0.880909   -0.966836    1.223588
C     -0.392599   -1.204716   -0.200289
H     -0.849042   -2.072615   -0.688408
O      1.007672   -1.127612   -0.282410
C      1.026729    0.079378   -0.960901
H      1.643671    0.218695   -1.857048
C      0.308595    1.207487   -0.302919
O      0.277445    1.166357    1.098869
H      1.067730    0.686950    1.470399
H      0.195894    2.188710   -0.784845
C     -0.439049    0.099620   -0.952456
H     -1.070003    0.234121   -1.833816
H     -1.896136   -0.509540    1.127969
