8

N      1.801519   -0.331592    1.020704
C      0.547334   -0.277655    0.672929
O     -0.755245   -0.115419    1.205827
C     -0.611910   -0.292669   -0.206813
C     -0.920132    0.822021   -1.072324
N     -1.189246    1.725761   -1.781164
H     -0.958560   -1.297344   -0.535749
H      2.086239   -0.233103    2.025426
