12

O      3.045704    0.270623   -0.174678
C      1.725069    0.164556    0.311550
N      0.931269   -0.340762   -0.781313
C     -0.204428   -0.905151   -0.556133
N     -1.468735   -1.014589   -0.669387
N     -2.241069   -0.616593    0.407221
C     -3.263618    0.373797    0.216512
H     -3.055788    1.323570    0.761314
H     -2.078343   -1.031291    1.334195
H      1.786440   -0.546321    1.163100
H      1.389876    1.171901    0.660704
H      3.433623    1.150260   -0.025317
