10

N      1.672873    1.044837   -0.084704
C      0.569520    0.349896   -0.028931
N     -0.689521    0.778076    0.053538
H     -0.980302    1.777524    0.086461
C     -1.550576   -0.252921    0.089539
H     -2.649256   -0.228150    0.156130
N     -0.770001   -1.348201    0.025624
N      0.503179   -0.990926   -0.045592
H      1.325200   -1.644534   -0.105192
H      2.568885    0.514399   -0.146874
