15

C      2.568566    0.577433   -0.078890
C      1.391739   -0.341552   -0.014060
N      0.198136    0.014580   -0.215795
C     -0.931921   -0.878379   -0.151344
C     -2.165388    0.003614    0.016601
O     -2.075456    0.759991    1.182655
H     -1.917344    1.706752    0.949129
H     -2.279017    0.678328   -0.843037
H     -3.094662   -0.623890    0.039664
H     -0.882521   -1.562998    0.707059
H     -1.032562   -1.406332   -1.117201
H      1.584027   -1.380266    0.222178
H      2.261764    1.637154   -0.143630
H      3.208203    0.370539   -0.954873
H      3.166434    0.445025    0.854642
