13

C     -2.015041    0.409340    1.103672
C     -0.881509    0.057966    0.526278
C     -0.844347   -0.661992   -0.739298
N      0.301629   -0.969143   -1.238491
C      1.539886   -0.651275   -0.634489
N      1.984579    0.658128   -0.360110
H      2.481270    0.851025    0.522861
H      1.816132    1.417201   -1.033950
O      2.320691   -1.602573   -0.308988
H     -1.791095   -0.909687   -1.209294
H      0.030927    0.329538    1.037072
H     -2.010589    0.939694    2.037095
H     -2.932534    0.131778    0.582128
