10

N     -1.367272   -0.380201   -0.210565
C     -0.231347    0.409301    0.145065
O     -0.366581    1.622179    0.803508
C      0.955001   -0.030990   -0.161769
O      2.069837    0.703994    0.165881
H      2.712357    0.363852    0.864689
H      1.083861   -0.961250   -0.668286
H     -1.563126   -0.993771    0.605662
H     -1.136911   -0.967513   -1.058328
H     -2.155820    0.234400   -0.485857
