14

C      1.524470    0.334495   -0.530760
C      0.522661   -0.111459    0.502840
H      0.950534   -0.151387    1.506014
C     -0.801603    0.573320    0.478695
O     -0.985838    1.532012   -0.497593
H     -1.892716    1.458305   -0.889017
H     -1.184431    0.922569    1.476464
C     -1.285281   -0.793174    0.144369
H     -2.302056   -1.165170   -0.054944
C     -0.117288   -1.416667    0.161735
H      0.238247   -2.419160    0.003385
H      2.382725   -0.363651   -0.478100
H      1.068052    0.262153   -1.538069
H      1.882524    1.337815   -0.285019
