12

C      1.603164    0.256563    0.270998
H      1.734550   -0.338359    1.220665
H      2.535795    0.737804   -0.052525
O      1.247794   -0.741235   -0.777228
C      0.358372    0.325205   -0.355190
C     -0.876546   -0.203342    0.319571
C     -1.706327    0.969522    0.770157
H     -1.829932    1.670751   -0.058539
O     -1.583969   -1.029000   -0.555133
H     -1.013140   -1.792769   -0.780160
H     -0.623210   -0.849595    1.201761
H      0.153448    0.994454   -1.204379
