14

C     -2.090929   -0.462376    0.244559
N     -0.691297   -0.343813    0.131344
N     -0.194263    0.670965   -0.613798
C      1.220814    0.823037   -0.364609
H      1.727301    1.545408   -1.044576
O      1.515042    1.110336    0.985116
C      2.168417    0.055919    1.254743
N      1.953790   -0.384255   -0.101176
H      2.242954   -1.252055   -0.628080
H     -0.332726    0.608885   -1.640275
H     -0.106796   -0.784352    0.827466
H     -2.624012   -0.399676   -0.705036
H     -2.330022   -1.475194    0.671803
H     -2.458273    0.287170    0.982518
