19

C      1.239304   -0.522040   -0.247163
C      2.566280   -0.357927    0.443311
H      3.004503   -1.345142    0.700217
H      2.410195    0.227124    1.367117
H      3.248926    0.223321   -0.201893
C      0.262556    0.557681    0.219698
C     -1.062446    0.394265   -0.469383
C     -1.978973    1.463290    0.014094
O     -3.019509    1.217187    0.573881
H     -1.673859    2.490421   -0.157182
C     -1.640436   -0.969047   -0.198890
H     -1.461501   -1.629269   -1.092941
H     -2.741870   -0.907743   -0.100667
H     -1.215385   -1.446068    0.688224
H     -0.881374    0.545485   -1.559273
H      0.094371    0.449708    1.312472
H      0.690289    1.546930    0.044142
H      0.799127   -1.501229    0.003366
H      1.359802   -0.436947   -1.339129
