11

C     -1.601226    0.664021    0.101159
C     -0.619696   -0.420313    0.305901
N     -0.229597   -1.438074    1.002191
C      0.603591   -1.161315   -0.078569
N      1.870910   -0.521133    0.144487
N      2.043308    0.611963   -0.341398
H      2.882819    1.169531   -0.259515
H      0.562847   -1.809999   -0.953821
H     -1.291985    1.280385   -0.774213
H     -2.614755    0.259348   -0.025293
H     -1.606215    1.365586    0.974902
