13

C      2.093305    0.143069    0.195457
C      0.887814    0.492367   -0.207181
C     -0.261889   -0.371263    0.146730
C     -1.538786    0.443599    0.125077
H     -1.369163    1.491742    0.469576
H     -1.916044    0.509472   -0.911468
H     -2.243850   -0.025380    0.826137
O     -0.309068   -1.397899   -0.799820
H     -1.111397   -1.928600   -0.656068
H     -0.104731   -0.766083    1.176893
H      0.710987    1.382813   -0.783711
H      2.926691    0.788871   -0.073276
H      2.236131   -0.762708    0.776141
