11

O     -1.457256    0.682785   -0.446076
C     -0.965904   -0.501029    0.113390
O      0.057325   -0.100575    0.990583
C      1.016015    0.566780    0.233575
C      1.514759   -0.429698   -0.804897
H      2.223452   -1.124865   -0.282349
H      0.487680    1.388851   -0.318868
H      1.866848    0.914504    0.822275
H     -0.599449   -1.201890   -0.659837
H     -1.741846   -1.042943    0.685009
H     -2.401625    0.848080   -0.236977
