13

C     -1.997146    0.730724    0.363990
C     -1.519355   -0.603954   -0.049714
C     -0.354939   -1.044958    0.326215
N      0.876515   -1.396593    0.480831
C      1.801539   -0.740543   -0.396813
N      2.403004    0.472545    0.042640
H      3.320864    0.414423    0.531963
H      1.921961    1.388902   -0.129674
O      2.032658   -1.271266   -1.508217
H     -2.123265   -1.224781   -0.667592
H     -1.314316    1.186281    1.111137
H     -3.045077    0.692187    0.715778
H     -2.002444    1.397033   -0.536059
