19

C      2.041994    0.650421    0.251828
C      0.776680    0.728284    0.620440
C     -0.279690   -0.171317    0.054933
C     -1.017469    0.643541   -0.988619
O     -0.126931    1.051982   -1.980472
H     -0.536132    1.858296   -2.419862
H     -1.352694    1.583021   -0.460800
H     -1.863404    0.091204   -1.431612
C      0.380535   -1.386099   -0.542138
H      1.194548   -1.705751    0.142782
H      0.842660   -1.125144   -1.509139
H     -0.323414   -2.236601   -0.611973
C     -1.168343   -0.584427    1.179605
H     -0.824079   -1.573761    1.599340
H     -2.208851   -0.629503    0.817097
H     -1.093132    0.131113    2.030363
H      0.497931    1.470252    1.357827
H      2.293488   -0.109734   -0.495599
H      2.766304    1.314223    0.682108
