13

C     -1.062366   -1.021209    0.436704
C     -0.726433    0.433556    0.293145
H     -1.541111    1.144672    0.523757
N      0.583925    0.919179    0.648597
H      0.709024    1.895944    0.926043
C      0.239124    0.775676   -0.774877
C      1.018321   -0.351684   -1.429432
O      2.223562   -0.573947   -0.738943
H      1.971604   -0.659703    0.231037
H      0.013778    1.677308   -1.357246
H     -0.360291   -1.561370    1.103848
H     -2.125241   -1.175772    0.708935
H     -0.943896   -1.502649   -0.571569
