18

C     -2.272035    0.136897   -0.118146
C     -1.040446   -0.656527    0.127024
H     -1.290134   -1.452880    0.907891
C      0.005800    0.275489    0.694032
H     -0.357598    1.320642    0.780114
H      0.405941   -0.051362    1.672076
C      1.079076    0.243229   -0.365641
C      2.421275    0.630821    0.128534
H      2.282846    1.283708    1.030257
H      2.999042   -0.273636    0.445350
H      2.965135    1.228362   -0.641469
H      0.736380    0.962259   -1.176749
C      0.938252   -1.106292   -0.993950
N     -0.447788   -1.357227   -0.947051
H     -0.685630   -2.329572   -1.099118
H     -2.680324    0.438444    0.886849
H     -3.043383   -0.388055   -0.696520
H     -2.016409    1.095701   -0.633482
