13

C     -0.979997    1.179310   -0.316909
C     -0.178250   -0.120766   -0.272866
C      1.259297    0.065541   -0.513604
C      2.209970   -0.047487    0.387227
H      3.235173    0.124107    0.041725
H      2.014879   -0.295872    1.421012
C     -0.698610   -1.144750    0.618967
H     -0.910456   -1.527088    1.611705
N     -0.746154   -1.320146   -0.790852
H     -1.642377   -1.362329   -1.278064
H     -1.365751    1.392629    0.716628
H     -0.364502    2.032749   -0.637457
H     -1.833220    1.024100   -0.987512
