15

N     -0.901521    2.169178    0.264633
C     -0.464116    0.897533   -0.301909
C      1.006347    0.985250   -0.463279
N      1.734563   -0.028689   -0.308100
C      2.148085   -1.188584   -0.089475
H      2.261739   -1.853210   -0.918571
H      2.382267   -1.520197    0.898127
C     -0.907331   -0.253538    0.480396
C     -1.345245   -1.343133   -0.114649
H     -1.373373   -1.376800   -1.194111
H     -1.678903   -2.208418    0.437877
H     -0.883498   -0.230704    1.558102
H     -0.883887    0.877301   -1.349720
H     -0.749027    2.160608    1.299928
H     -0.346099    2.913403   -0.199251
