14

N     -2.001419    1.474447    0.461845
C     -0.975960    0.785163    0.045385
C     -1.111590   -0.661157   -0.368148
H     -1.985648   -1.142039    0.047726
H     -0.912816   -0.770506   -1.413006
C      0.081734   -1.348792    0.401507
H     -0.045277   -2.258700    0.936119
C      1.246283   -0.706799    0.321713
H      2.160492   -1.164857    0.906734
C      1.382446    0.500738   -0.419093
H      1.360334    0.374852   -1.504558
H      2.375846    1.001645   -0.178650
O      0.224265    1.420139   -0.046709
H     -1.798691    2.495866    0.809136
