10

O      2.634080   -0.349369    0.022298
C      1.357341   -0.367067    0.003035
N      0.686149   -1.529824   -0.059254
N     -0.635112   -1.592082   -0.081178
C     -1.384550   -0.475728   -0.041539
H     -2.481434   -0.503189   -0.058650
C     -0.711117    0.732020    0.022818
H     -1.267397    1.649502    0.056264
N      0.636980    0.765252    0.043819
H      1.165060    1.670487    0.092387
