12

C      1.223802    0.605298   -0.186643
C      0.310574   -0.273181    0.648860
H      0.893140   -1.116134    1.108276
O     -0.473370    0.292005    1.516788
C     -1.468865    0.027378    0.997467
C     -0.878088   -0.669735   -0.104294
O     -1.053188    0.024573   -1.302020
H     -1.863704    0.613898   -1.257699
H     -1.061634   -1.769211   -0.196404
H      1.600896   -0.042777   -1.022154
H      0.683545    1.438657   -0.630478
H      2.086893    0.869229    0.428301
