13

N      1.897587   -1.047059   -0.092224
C      0.544687   -0.601091   -0.015739
N     -0.457757   -1.346511    0.266064
C     -1.655560   -0.553102    0.250373
H     -2.358882   -0.970100   -0.496616
H     -2.089813   -0.528426    1.271272
C     -1.206029    0.812051   -0.091728
H     -1.848878    1.666580   -0.189863
C      0.098698    0.770908   -0.246875
O      0.958608    1.811664   -0.572600
H      1.391510    2.388719    0.164850
H      2.488941   -0.999073    0.750158
H      2.236886   -1.404560   -0.997073
