11

C     -1.579921    0.896155   -0.341536
C     -0.884611   -0.171775   -0.050224
O     -1.176323   -1.002764    1.036810
H     -1.117150   -2.012798    0.871177
O      0.196683   -0.505014   -0.852300
C      1.484719   -0.194425   -0.447332
N      1.750824    0.172859    0.759396
H      2.740906    0.410509    1.066626
H      2.325465   -0.250374   -1.141421
H     -2.415901    1.158565    0.274061
H     -1.324690    1.499063   -1.175256
