15

C      2.344750   -0.427828    0.190731
C      1.599350    0.479051   -0.403714
C      0.224360    0.117548   -0.841538
C     -0.798783    0.947921   -0.198129
C     -1.740218    0.452324    0.550847
C     -1.889150   -0.954713    0.835303
O     -2.855278   -1.334712    1.586790
H     -1.234969   -1.710945    0.453332
H     -2.461475    1.167185    0.987932
H     -0.752473    2.024291   -0.366104
H      0.140968    0.322385   -1.962472
H      0.089304   -0.961981   -0.696327
H      1.953279    1.468755   -0.581346
H      3.343244   -0.149425    0.503524
H      2.037091   -1.439857    0.394269
