12

N      0.080114   -1.076184   -0.161184
H      0.168284   -1.538675   -1.093948
H      0.259200   -1.766688    0.593376
C     -1.204962   -0.455440   -0.093860
H     -1.896287   -0.886249    0.631019
C     -1.008552    1.026245    0.052901
H     -1.501880    1.509975   -0.837293
H     -1.505439    1.432393    0.977240
O      0.380554    1.207138    0.064981
C      1.019570   -0.027472   -0.060763
N      2.299697   -0.142798   -0.077780
H      2.909702    0.717756    0.005310
