12

N     -1.841089   -0.825664   -0.239246
C     -0.824770   -0.104193    0.498100
H     -1.031517   -0.096895    1.591763
N      0.451187   -0.732907    0.268286
C      1.274023    0.114838   -0.237933
O      2.598929   -0.165770   -0.582895
H      3.084159   -0.960095   -0.189251
C      0.555745    1.370407   -0.366158
H      1.028423    2.276393   -0.776671
N     -0.646854    1.235436    0.058290
H     -1.881099   -1.787623    0.162454
H     -2.767134   -0.323928   -0.186739
