15

C     -1.133229   -1.346983   -0.033276
C     -0.551587    0.015866    0.045795
C     -1.391784    1.227303    0.244582
H     -1.498538    1.465294    1.335242
H     -2.383093    1.142409   -0.215396
H     -0.881341    2.101041   -0.224680
N      0.724109    0.137262   -0.063018
C      1.933126    0.943339   -0.098136
H      2.249257    1.979614   -0.026062
C      2.031971   -0.483889   -0.247976
H      2.365465   -1.056031    0.635087
H      2.247755   -0.990756   -1.201950
H     -0.943961   -1.851770    0.949097
H     -2.200714   -1.345112   -0.303172
H     -0.567437   -1.937587   -0.796138
