19

C     -1.962238   -0.238576   -0.434464
C     -0.900210    0.045245    0.634458
H     -1.519956    0.224068    1.567112
C     -0.245704   -1.304172    0.899054
C      0.907659   -1.400965   -0.095705
H      1.593981   -2.246358    0.218309
H      0.403017   -1.816978   -1.032932
C      1.636624   -0.223391   -0.458404
H      2.450420   -0.395480   -1.215248
H      2.167160    0.304193    0.403664
C      0.761407    0.925522   -1.023323
H      1.333436    1.825143   -1.208858
H      0.098419    0.557620   -1.801487
C     -0.101212    1.165021    0.243525
H      0.634355    1.444982    1.073854
H     -0.662777    2.125021    0.067658
H     -1.433323   -0.693139   -1.291683
H     -2.488262    0.701452   -0.690784
H     -2.672796   -0.999206   -0.010741
