10

O     -1.858553    0.065037    0.773017
C     -0.846977   -0.656861    0.106377
H     -0.820280   -1.743490    0.244668
C     -0.302092   -0.069314   -1.143101
H     -0.435859    0.140925   -2.195818
C      0.471335    0.009586   -0.020755
C      1.734015    0.475319    0.519406
O      1.983792    0.279744    1.729673
H      2.476508    0.986157   -0.071811
H     -2.401889    0.512897    0.058345
