16

C      3.496807    0.513974   -0.645381
C      2.053930    0.280322   -0.737728
C      0.867214    0.074231   -0.797847
C     -0.587662   -0.198678   -0.868822
C     -0.938771   -1.079067    0.226187
N     -2.033726   -0.911154    0.821007
C     -2.905336    0.100194    0.444963
H     -3.847551    0.032515    1.034769
H     -3.177147    0.191893   -0.603552
H     -2.452735    1.091364    0.741812
H     -0.216482   -1.871883    0.493987
H     -0.750490   -0.758979   -1.836299
H     -1.085286    0.744638   -0.957739
H      4.042931    0.086840   -1.519016
H      3.884577    0.078699    0.319262
H      3.649726    1.625090   -0.572726
