13

N      2.692580    1.371679    0.401941
C      2.388202    0.144852    0.534172
O      1.215083   -0.439303    0.136872
C      0.108387    0.107985    0.072561
C     -1.052049   -0.727337   -0.393214
C     -2.287827    0.107950   -0.269774
H     -2.800283   -0.104067    0.706407
H     -2.015536    1.171492   -0.336652
H     -3.013716   -0.173853   -1.085815
H     -0.871380   -1.007583   -1.451972
H     -1.124801   -1.653748    0.212714
H      3.128466   -0.510520    1.008967
H      3.632874    1.712454    0.748280
