12

O     -0.852503   -1.387799    1.143460
C     -1.380581   -0.866007    0.189299
C     -0.892876    0.437140   -0.293314
C      0.253019    0.973244    0.502461
C      1.354595   -0.010389    0.405574
C      2.312033   -0.862477    0.423165
N      3.411168   -1.488590    0.458840
H     -0.096499    1.050576    1.566671
H      0.540905    1.947010    0.084188
H     -1.746601    1.164761   -0.163601
H     -0.702799    0.411673   -1.380859
H     -2.199863   -1.369143   -0.288113
