10

O     -1.228884   -0.139959   -0.859148
C     -1.890809    0.540968    0.124471
O     -1.479636    0.446614    1.309684
H     -2.757250    1.165698   -0.045105
C     -0.140413   -0.932670   -0.689242
C      0.936524   -0.371286   -0.186261
C      1.958295    0.265520    0.301297
H      2.023126    0.272446    1.365925
H      2.614602    0.708953   -0.413026
H     -0.035555   -1.956283   -0.908595
