8

C      0.391853    0.117378   -0.033114
C      1.812991    0.062037   -0.241978
N      2.962343    0.035499   -0.410062
C     -0.726441    0.830345    0.278037
H     -1.163611    1.792030    0.549441
C     -0.918841   -0.614656   -0.012202
H     -1.386934   -0.889386   -0.960995
H     -0.971359   -1.333247    0.830873
