13

C     -2.190594    0.437383    0.499356
C     -1.399603   -0.180685   -0.539719
C     -0.244393   -0.685710   -0.236996
C      0.975754   -0.944403    0.123514
C      2.008069    0.036630    0.040071
N      2.958387    0.026251   -0.850065
H      3.687173    0.745715   -0.885037
H      2.085183    0.895912    0.733623
H      1.180926   -1.897297    0.481088
H     -1.740134   -0.223373   -1.521112
H     -1.633837    0.608935    1.459342
H     -3.048268   -0.239284    0.743450
H     -2.638662    1.419924    0.236970
