19

C      1.994522    0.162774   -0.577614
C      0.817379   -0.554236    0.011960
O      0.912696   -0.440894    1.402974
H      1.208718   -1.288743    1.815388
C     -0.501446    0.004326   -0.403597
C     -0.742408   -0.028610   -1.880077
H     -1.800119    0.308514   -2.045159
C     -0.690930    1.411277    0.126762
H     -1.255861    1.381948    1.078131
H      0.271544    1.906119    0.307455
H     -1.292686    2.003560   -0.597353
C     -1.575671   -0.875900    0.249881
H     -2.562419   -0.718695   -0.184175
H     -1.505589   -0.685610    1.335792
H     -1.225127   -1.930586    0.058457
H      0.884600   -1.614978   -0.284539
H      2.037631    0.136109   -1.676891
H      2.113410    1.202457   -0.217006
H      2.911758   -0.378832   -0.224277
