13

N      2.236868   -0.382797    0.363245
C      0.878938   -0.000916    0.074413
C     -0.181405   -0.789525    0.075477
H     -0.163654   -1.858806    0.301150
C     -1.373757    0.002958   -0.273425
O     -2.328106   -0.017758    0.731150
H     -3.168785   -0.431505    0.469216
H     -1.818439   -0.359372   -1.237936
N     -0.872837    1.337419   -0.474502
C      0.397731    1.328399   -0.276884
H      1.027649    2.219280   -0.365578
H      2.821061    0.239846    0.947766
H      2.544735   -1.287224   -0.049607
