12

N      1.663565    0.914465   -1.219340
C      0.881953    0.441759   -0.322037
C      0.352504    0.701931    1.000023
H     -0.317165    1.649903    1.054949
H      1.195737    0.744561    1.723628
N     -0.412988   -0.445451    0.992292
C     -0.008219   -0.794886   -0.357402
H      0.322057   -1.736579   -0.723491
C     -1.476759   -0.650309    0.032946
H     -2.047205   -1.593149    0.182236
H     -2.038795    0.240389   -0.281562
H      1.885315    0.527366   -2.082242
