14

C     -1.256076   -0.069220   -0.272415
H     -0.913007    0.201113   -1.377492
H     -2.325710   -0.155395   -0.333550
C     -0.575892    1.055593    0.457359
H     -0.469765    0.569784    1.550957
H     -1.175730    1.925898    0.543306
C      0.824163    1.145439    0.012047
H      1.213235    2.130410   -0.235728
C      1.500176    0.051985   -0.169814
H      2.536048    0.063403   -0.511676
C      0.826424   -1.219472    0.030313
H      1.389608   -2.135305    0.257885
C     -0.507217   -1.378525   -0.021912
H     -1.066255   -2.185709    0.070722
