17

C     -1.914022   -0.457051    0.325471
C     -0.537564   -0.994001    0.057457
O      0.456341   -0.305162    0.795259
C      1.773665   -0.709559    0.633602
C      2.706353    0.141581    0.217048
C      2.282165    1.532628   -0.065764
H      3.174887    2.191568   -0.079387
H      3.745643   -0.189935    0.092818
H      2.097185   -1.734105    0.839624
H     -0.521666   -2.055109    0.360074
H     -0.325437   -0.872294   -1.016031
C     -1.978736    1.014271   -0.060472
H     -1.157596    1.599751    0.389709
H     -2.981773    1.385951    0.284304
H     -1.975851    1.063911   -1.172215
H     -2.235616   -0.629386    1.370083
H     -2.607978   -0.983059   -0.374838
