14

O      2.341614   -0.112858    0.087811
C      1.075449    0.131555    0.597460
H      1.149076    0.714923    1.535794
C      0.264223    0.912091   -0.392080
H      0.222721    1.972162   -0.103814
H      0.700284    0.767008   -1.387158
C     -1.147901    0.358057   -0.282981
H     -1.684448    0.375052   -1.240315
H     -1.688520    0.937902    0.498202
C     -1.014332   -1.051867    0.209876
H     -1.776151   -1.295628    0.978632
H     -1.091898   -1.764994   -0.633067
C      0.363032   -1.175227    0.789442
H      2.286850   -0.768177   -0.657801
