16

C     -1.128551    0.313244   -0.456188
C     -0.282544   -0.384289    0.598220
C      1.089377   -0.502835    0.038681
O      2.088498    0.102505    0.496225
C      3.312031   -0.089103   -0.108547
H      3.579330   -0.992657   -0.675367
H      4.040565    0.706509   -0.006968
H      1.168977   -1.175569   -0.835978
H     -0.248791    0.280838    1.503020
H     -0.683154   -1.350054    0.925616
C     -2.553597    0.484496   -0.002620
H     -2.571170    1.316596    0.714131
H     -3.154669    0.755417   -0.916864
H     -2.936847   -0.454180    0.453533
H     -0.653505    1.281179   -0.661860
H     -1.065949   -0.292096   -1.386568
