19

C     -2.072011    0.662092   -0.600246
C     -1.405928    0.078289    0.619263
C     -0.051109   -0.511584    0.246280
C     -0.240423   -1.613065   -0.793260
H     -1.322671   -1.625362   -1.097675
H      0.427646   -1.463653   -1.667817
H      0.041299   -2.583893   -0.348109
C      0.770952    0.598927   -0.340057
C      2.094451    0.788452    0.342706
O      2.948463    1.472710   -0.547082
H      3.871937    1.434765   -0.191731
H      1.974133    1.335352    1.294785
H      2.562844   -0.183003    0.526766
H      0.433289   -0.897906    1.164892
H     -2.016528   -0.748896    1.065781
H     -1.253897    0.852569    1.375955
H     -2.861184   -0.027867   -0.939145
H     -1.375110    0.799854   -1.452157
H     -2.526152    1.632218   -0.363040
