13

C     -0.139273   -1.060091    0.120448
H     -0.095039   -1.718942   -0.995639
H     -0.349763   -1.923545    0.664671
C      1.274441   -0.561969   -0.052977
H      2.064792   -1.270789   -0.150621
C      1.465297    0.861434    0.149180
H      2.488580    1.262411    0.079861
C      0.503722    1.679165    0.374418
N     -0.884423    1.247406    0.394852
H     -1.610871    1.872644    0.780835
C     -1.165696   -0.059273   -0.286823
H     -2.138275   -0.353225    0.248091
H     -1.413493    0.024774   -1.326297
