11

C      2.131942   -0.403915    0.147308
C      0.717800   -0.098337    0.552646
O     -0.002042    0.407169   -0.266526
C     -1.291892    0.717889    0.009414
H     -1.465583    1.711271    0.476135
C     -2.329779   -0.246304   -0.100182
O     -3.053868   -1.197250    0.294303
O     -2.113547    0.623484   -1.209408
H      2.155435   -1.271329   -0.526669
H      2.655977   -0.681246    1.091790
H      2.595556    0.438567   -0.372982
