10

C      2.312226    0.094918    0.024138
C      1.018100    0.086571    0.099925
C     -0.281735   -0.063126   -0.036146
C     -1.577150    0.315975    0.409000
H     -1.927998    0.009284    1.403174
H     -1.951522    1.323781    0.112820
N     -1.432008   -0.643005   -0.648381
H     -1.804010   -1.304721   -1.367644
H      2.798664    0.790006   -0.635178
H      2.845434   -0.609683    0.638292
