13

C      2.153249    0.762460   -0.042010
N      0.711610    0.699691   -0.219885
C     -0.036620   -0.380423    0.206514
O      0.716269   -1.275498    0.759281
N     -1.331230   -0.828660    0.240488
C     -2.602601   -0.447282   -0.132970
O     -2.643502    0.657318   -0.685710
H     -3.486553   -1.061514    0.042702
H     -1.347909   -1.793164    0.715730
H      0.196837    1.453774   -0.667906
H      2.445596    1.586436    0.602140
H      2.543423   -0.174027    0.456791
H      2.681432    0.800891   -0.990678
