13

C      1.655981    0.003337    0.262620
C      0.409348    0.198929   -0.589004
H      0.421352    1.083901   -1.227801
C     -0.832047    0.070764    0.257019
C     -1.824478    1.165275   -0.073783
H     -1.885236    1.806931    0.848065
H     -0.645665   -0.075436    1.329575
C     -1.139370   -1.159020   -0.484788
O     -2.086609   -1.982802   -0.415707
O      0.009866   -1.010220   -1.244022
H      1.523344    0.485927    1.239766
H      2.488468    0.486466   -0.268354
H      1.905046   -1.074053    0.366415
