11

C     -1.761620    0.446127   -0.443459
C     -0.335973    0.150635    0.063220
C      0.705967   -0.387144   -0.354967
C      2.021512   -1.028099   -0.791375
N      3.046273   -1.549297   -1.126839
C      0.629321    0.219257    1.110098
H      0.702589   -0.602841    1.873206
H      1.225543    1.136384    1.231676
H     -1.663114    1.367328   -1.013672
H     -2.396977    0.623711    0.459989
H     -2.173522   -0.376061   -1.007877
