12

O     -1.104561   -1.362462    0.964389
C     -1.032315   -0.402815   -0.053724
H     -1.785326   -0.463011   -0.855654
C     -0.557241    0.984427    0.298367
H     -0.933436    1.844210   -0.262379
H     -0.489136    1.155680    1.394776
C      0.354272    0.025171   -0.389877
O      1.414145   -0.392960    0.343862
C      2.210001    0.439058    0.741994
H      3.049820    0.049724    1.331132
H      0.523040    0.229910   -1.482584
H     -1.649263   -2.106930    0.617469
