16

C     -1.296576   -1.520850    0.436200
C     -0.878036   -0.171943    0.099143
C      0.297648   -0.099077   -0.469891
C      1.541960    0.005038   -0.915648
C      2.565239    0.157008    0.097338
H      3.529860    0.498259   -0.350598
H      2.721970   -0.751865    0.741130
H      2.301567    0.967001    0.837378
H      1.580864   -0.041738   -1.964698
N     -1.524894    1.047445    0.287185
C     -1.801086    1.884297   -0.856405
H     -2.845710    2.247663   -0.740357
H     -1.819079    1.382375    1.222868
H     -2.388162   -1.478475    0.718182
H     -0.791291   -1.951062    1.323974
H     -1.194274   -2.174075   -0.465801
