13

O      2.280288    0.595276    2.013356
C      2.482725    0.493110    0.778785
N      1.468481    0.116409   -0.165459
C      0.282545    0.044058    0.292627
C     -0.811916   -0.340742   -0.634149
C     -2.107549   -0.087566    0.088915
H     -1.998148    0.635231    0.934148
H     -2.808212    0.361222   -0.634761
H     -2.489780   -1.028064    0.545776
H     -0.725775   -1.401739   -0.932537
H     -0.699224    0.287155   -1.542050
H      1.671570   -0.084757   -1.150272
H      3.454996    0.694894    0.405621
