12

N      2.499464   -0.005344   -0.222651
C      1.194650    0.038892   -0.111550
O      0.568195    1.188184   -0.197980
C     -0.735226    1.290846   -0.094255
H     -1.254218    2.240575   -0.165566
C     -1.540438    0.182094    0.115057
H     -2.618539    0.248563    0.203139
C     -0.930969   -1.049954    0.213264
H     -1.544618   -1.928109    0.376906
C      0.442728   -1.090709    0.095590
H      0.954406   -2.029615    0.166231
H      2.964564    0.914577   -0.378186
