13

N      2.810196   -0.172765    2.341866
C      1.736958    0.102718    1.982344
C      0.435177    0.460889    1.550370
N      0.000210    0.144027    0.358204
C      0.570215   -0.535759   -0.707892
H      1.538371   -0.993129   -0.844866
C     -0.615591   -0.383257   -1.518889
H     -0.371041    0.262357   -2.414621
H     -1.141570   -1.325652   -1.825628
C     -1.211345    0.338119   -0.378050
H     -2.038050   -0.292879    0.064855
H     -1.513097    1.394647   -0.538569
H     -0.200432    1.000684    2.215363
