15

C     -2.496554    0.670059    0.176827
C     -2.003588   -0.588469   -0.342407
C     -0.703716   -0.653381   -0.579535
C      0.603269   -0.629624   -0.718711
N      1.322464   -1.008263    0.416208
C      2.208216   -0.140141    1.166348
N      2.935405    0.658639    0.203047
H      2.496939    1.624060    0.200024
H      3.913021    0.727945    0.498138
H      1.205224   -2.011695    0.748111
H      0.927186   -0.325121   -1.672620
H     -2.500791   -1.489381   -0.572686
H     -1.817138    1.151862    0.921618
H     -2.602398    1.398318   -0.662089
H     -3.487539    0.615192    0.670825
