11

C      0.188267   -0.278883    0.220333
C     -1.255177   -0.320283   -0.148154
C     -1.681220    1.030257   -0.558377
N     -2.019364    2.103079   -0.865552
H     -1.862388   -0.739706    0.649054
H     -1.387345   -0.960768   -1.043616
C      1.133949   -0.453857    1.121196
H      1.455934   -0.727528    2.126509
C      1.582122    0.003022   -0.213457
H      1.862704    1.068023   -0.358594
H      1.982519   -0.723356   -0.929344
