14

O      2.577358    1.215843    0.507964
C      1.308487    0.674967    0.229831
C      0.898706   -0.415034    0.840618
C     -0.411962   -1.041087    0.605504
C     -1.293294   -0.340775   -0.366157
H     -1.346989   -0.796387   -1.396694
C     -1.744733    1.009138   -0.174262
H     -1.775648    2.083360   -0.136426
N     -2.631351   -0.017569    0.110113
H     -0.294421   -2.124182    0.303863
H     -0.925158   -1.116665    1.609226
H      1.596643   -0.847084    1.551625
H      0.661910    1.146365   -0.484178
H      3.380452    0.569110    0.500286
