19

C     -2.745053    0.706356   -0.742127
C     -1.443633    0.596051   -0.516554
C     -0.946179   -0.150011    0.648333
C     -0.067160   -1.312463    0.281786
C      1.160969   -0.884361   -0.489887
C      1.993396    0.056290    0.297626
C      2.217509    1.264949   -0.185147
H      1.793344    1.565516   -1.153557
H      2.832569    1.971970    0.387982
H      2.423688   -0.211392    1.252912
H      1.791595   -1.790716   -0.661466
H      0.856562   -0.443020   -1.437250
H     -0.577528   -2.083595   -0.310565
H      0.265649   -1.788427    1.228785
H     -0.386642    0.488757    1.362358
H     -1.806087   -0.559421    1.217775
H     -0.773672    1.074113   -1.220025
H     -3.121636    1.251149   -1.593336
H     -3.467691    0.248254   -0.071532
