10

O     -1.626379   -0.307739    1.155374
C     -0.837360   -0.918631    0.211282
C      0.339869   -0.100726   -0.146776
O      1.127576   -0.575527   -1.007323
O      0.501070    1.107364    0.470118
C      1.486420    1.813145    0.183278
H      2.217197    1.506948   -0.533502
H     -0.545451   -1.917021    0.623209
H     -1.374491   -1.139629   -0.735903
H     -1.288448    0.531815    1.506063
