12

C      1.519883   -0.823361    0.105914
H      2.451803   -1.053241    0.472202
C      1.401283    0.147162   -0.814191
C      0.632467    1.059598   -0.379653
H      0.988890    2.032515   -0.265668
C     -0.743085    0.747711   -0.017008
H     -0.939220    0.983648    1.115799
H     -1.510528    1.220305   -0.685247
C     -0.973432   -0.809468    0.037423
H     -1.368217   -1.179566   -0.870457
H     -1.696371   -1.016646    0.841480
O      0.236526   -1.308657    0.459406
