13

C     -1.591578   -0.907383    0.194343
C     -0.411188   -0.312564   -0.528871
H     -0.468337   -0.537028   -1.624105
C     -0.284387    1.123961   -0.380545
H     -1.041689    1.878302   -0.614985
N      0.875115    1.400261    0.078234
C      1.620067    0.213304    0.277753
N      2.834074    0.199256    0.736928
H      3.358134    1.065142    0.996004
O      0.815331   -0.840402   -0.100815
H     -1.866883   -1.842784   -0.359873
H     -2.466046   -0.236752    0.100751
H     -1.372611   -1.203313    1.225179
