13

C     -1.818896    0.038003    0.195445
H     -2.702982   -0.462797   -0.274217
H     -2.056717    0.453128    1.192464
N     -1.082916    0.870893   -0.736284
H     -1.280510    0.823302   -1.745679
C     -0.488830   -0.392107   -0.137259
C      0.679135   -0.084930    0.760842
O      1.686202    0.558607    0.066146
C      2.587116   -0.168738   -0.349473
H      3.405209    0.283338   -0.902639
H      1.034142   -1.034520    1.198551
H      0.383300    0.614656    1.582638
H     -0.344253   -1.214348   -0.850535
