11

N      2.040544   -0.303202    0.491348
O      0.838313   -0.735929    0.045460
C      0.024438    0.395005   -0.077078
C     -1.336613    0.049019   -0.562408
C     -2.203714   -0.530962    0.224225
O     -3.168180   -0.884682    0.922684
H     -1.630670    0.275972   -1.587059
H     -0.015931    0.868298    0.920223
H      0.451405    1.150789   -0.767987
H      2.816225   -0.954387    0.292618
H      2.184184    0.670080    0.193803
