14

C      0.512306   -1.583853   -0.884722
C      0.803265   -0.676861    0.255962
O      1.636512   -0.615615    1.199789
C      1.174674    0.549573    1.774925
H      1.390466    1.192982    2.594113
C      0.171211    0.567218    0.722003
C     -0.839026    1.309490    0.325527
N     -1.566922    0.903931   -0.821422
H     -1.147128    1.103997   -1.753839
H     -2.489842    0.420859   -0.808611
H     -1.078375    2.205472    0.891152
H      0.909906   -2.604411   -0.689313
H     -0.566317   -1.590158   -1.049372
H      1.089270   -1.182626   -1.756192
