16

C     -2.596691    0.292707    0.091523
C     -1.149674   -0.055550    0.077963
C     -0.618930   -1.241538    0.295744
H     -1.175482   -2.166764    0.523909
C      0.851997   -1.099715    0.177584
H      1.305673   -1.347647    1.155648
H      1.220276   -1.784801   -0.634419
C      1.047688    0.315584   -0.132079
C      2.305918    1.074239   -0.367307
H      2.530649    1.114125   -1.456741
H      2.176199    2.121885   -0.028848
H      3.156107    0.661426    0.213516
N     -0.112860    0.866866   -0.178448
H     -2.777394    1.227560   -0.487003
H     -2.944567    0.511998    1.133636
H     -3.218907   -0.490376   -0.384679
