16

C     -1.663695   -1.085409    0.232442
C     -0.800298   -0.051526   -0.488248
C     -1.192951    1.341268   -0.036077
H     -1.486719    1.234305    1.045631
H     -0.342614    2.044750   -0.063044
H     -2.047875    1.651347   -0.660722
C      0.585465   -0.287037   -0.079200
O      1.572368    0.231411   -0.509473
C      2.780769   -0.168272    0.051566
H      2.621684   -0.181410    1.145133
H      2.939712   -1.211320   -0.343509
H      3.605306    0.473406   -0.250167
H     -0.976814   -0.117912   -1.575647
H     -1.163797   -2.065597    0.176594
H     -1.772712   -0.734601    1.283565
H     -2.657828   -1.073401   -0.250382
