15

C      0.141895    1.162340   -0.699651
H     -0.356999    1.405918   -1.681897
H      0.815932    2.007056   -0.395518
C     -0.546696    0.425459    0.351041
C     -1.877872   -0.250913    0.153406
H     -2.733389    0.321583    0.506897
H     -1.983383   -0.627255   -0.893207
H     -1.843775   -1.187778    0.783945
H     -0.344672    0.713128    1.393139
C      0.567060   -0.210291   -0.474591
C      1.767701   -0.586373    0.355205
H      1.997832    0.182792    1.123635
H      1.452813   -1.494453    0.950331
H      2.635264   -0.903426   -0.230848
H      0.308290   -0.957786   -1.241887
