16

C      2.230576    0.431923   -1.151767
O      0.967830   -0.203207   -1.187464
C      0.433081   -0.044332    0.089548
C     -0.935281   -0.680037    0.209531
O     -1.394079   -0.475687    1.510655
H     -0.993992    0.377963    1.822650
C     -1.943150   -0.067950   -0.719051
H     -2.766976   -0.818253   -0.839146
H     -1.541272    0.173069   -1.707595
H     -2.339525    0.873927   -0.261011
H     -0.799416   -1.768713    0.047845
H      1.103231   -0.586629    0.785919
H      0.401982    1.048954    0.293750
H      2.747692    0.366763   -2.119453
H      2.811936   -0.111889   -0.374789
H      2.017361    1.484097   -0.856744
