15

C      0.213692    1.319006   -0.587474
C      0.278427   -0.052527    0.000245
O      1.410807   -0.788805   -0.105176
C      2.513524   -0.344779    0.148820
H      3.362545   -1.027042    0.029790
C     -0.537559   -0.240701    1.292725
H     -0.120170   -0.911492    2.064983
H     -1.087781    0.632440    1.682499
C     -1.034399   -0.797422    0.014367
O     -2.141738   -0.183807   -0.592819
H     -2.575566   -0.772136   -1.250140
H     -0.957002   -1.913861   -0.067204
H      0.038032    1.330980   -1.671344
H     -0.558941    1.932063   -0.115244
H      1.196130    1.818084   -0.390931
