14

O      2.455188    1.776233   -0.638520
C      1.768656    0.889868   -0.180670
C      1.608834   -0.554692    0.131277
H      2.251971   -0.907881    0.967400
H      1.548245   -1.258852   -0.704370
C      0.514362    0.392524    0.469732
C     -0.729484    0.438358   -0.403202
H     -0.759857    1.191708   -1.219734
C     -1.978299   -0.025572    0.156160
H     -2.063343   -0.299818    1.231224
H     -2.934772    0.337640   -0.265347
N     -1.243028   -0.878686   -0.747658
H     -0.804357   -1.725338   -0.326260
H      0.365884    0.624507    1.529969
