15

C      1.941015    0.400883   -0.358451
C      0.729184   -0.005228    0.450578
H      1.013819   -0.438364    1.430051
O     -0.132749    1.053557    0.589383
C     -1.158786    0.446785   -0.103497
O     -2.264944    0.251393    0.715267
H     -2.734901    1.079648    0.889606
H     -1.441770    0.920276   -1.071790
C     -0.317915   -0.766103   -0.321489
O     -0.770159   -1.886683    0.361592
H     -1.514307   -1.639191    0.962554
H     -0.044565   -1.005184   -1.369011
H      1.822171    1.435902   -0.783343
H      2.049987   -0.273117   -1.233977
H      2.823918    0.425424    0.295627
