17

C     -2.260788   -0.087691    0.356136
C     -0.774726   -0.047493    0.475116
H     -0.551503    0.022142    1.593486
C     -0.183287   -1.328037   -0.070839
C      1.314074   -1.398483    0.127819
H      1.727888   -2.019020   -0.731718
H      1.524968   -1.957164    1.035896
C      1.971299   -0.083513    0.024859
H      3.040092   -0.063650   -0.092683
C      1.327239    1.064164    0.001318
H      1.905243    2.007473    0.002122
C     -0.125431    1.155508   -0.118620
H     -0.317050    1.101508   -1.220583
H     -0.581356    2.056127    0.305351
H     -2.646628    0.687064   -0.348266
H     -2.582097   -1.066408   -0.084177
H     -2.787937   -0.042526    1.341524
