13

O      2.171154    1.140441    0.269214
C      1.123776    0.578141    0.105955
C      0.893187   -0.888942    0.132483
H      1.351588   -1.255667   -0.838635
H      1.379360   -1.419009    0.917149
C     -0.543357   -1.065091    0.153482
H     -1.062137   -1.852999    0.798646
C     -1.193544    0.181695   -0.183268
H     -2.231522    0.449286    0.134519
O     -1.186752   -0.838513   -1.117772
C     -0.177297    1.214393   -0.121021
H     -0.126563    1.881688   -1.032974
H     -0.397892    1.874578    0.782223
