11

O      2.283703    0.289705   -0.104055
C      0.883970    0.159301   -0.084465
C     -0.010295    1.126242   -0.020967
H      0.219975    2.183938    0.026113
C     -1.339200    0.542158   -0.024714
H     -2.290388    1.092550    0.019619
C     -1.275520   -0.770996   -0.089642
H     -2.113735   -1.475653   -0.108323
C      0.141534   -1.088411   -0.131291
O      0.644652   -2.243829   -0.196693
H      2.855304    0.184994    0.714418
