14

C     -0.002943   -1.027729   -0.234081
H     -0.188498   -1.134812   -1.325766
H      0.126693   -2.035419    0.214819
C      1.214519   -0.164428   -0.067953
H      1.881005   -0.498531    0.744474
H      1.821126   -0.148718   -0.998047
C      0.636119    1.180592    0.226031
H      1.231602    1.705754    1.012113
H      0.628038    1.750190   -0.731798
O     -0.648282    1.030492    0.679384
C     -1.083267   -0.247477    0.444410
O     -2.236796   -0.196155   -0.349346
H     -2.093647    0.506870   -1.040768
H     -1.285669   -0.720627    1.426528
