9

N      2.748931   -0.963015    0.453787
C      1.852204   -0.241573    0.592173
C      0.719297    0.637713    0.762050
C     -0.375828    0.321399    0.075804
C     -1.205159   -0.392023   -0.789444
H     -1.102700   -0.296582   -1.884289
H     -1.735194   -1.314501   -0.470275
O     -1.699180    0.768143   -0.148951
H      0.797628    1.480439    1.409146
