13

C     -2.133479    0.251714    0.233237
C     -0.698180   -0.183626    0.288276
N     -0.188345   -0.966497    1.117576
C      1.027382   -1.232973    1.032471
C      1.537417   -0.473658   -0.126173
O      2.403229    0.503134    0.356943
H      2.890480    0.982966   -0.353339
H      1.997751   -1.109308   -0.897903
N      0.349987    0.205952   -0.583470
H      0.227724    0.864255   -1.388915
H     -2.286009    1.151351    0.866226
H     -2.798827   -0.569154    0.548799
H     -2.329130    0.575844   -0.809242
