16

C      2.405790    0.021454    0.075210
C      0.963053   -0.297971   -0.112861
C      0.130873    0.487073   -0.732911
H      0.337419    1.450397   -1.189470
C     -1.214785   -0.138885   -0.737763
C     -2.205317    0.732032   -0.000943
H     -3.212558    0.295387   -0.139161
H     -2.184834    1.734361   -0.490394
H     -1.892374    0.860385    1.031000
H     -1.580380   -0.284704   -1.783174
C     -1.063963   -1.437996   -0.008185
N      0.334169   -1.471106    0.353689
H      0.830982   -2.231135    0.878093
H      2.817644    0.193653   -0.933927
H      2.969987   -0.818679    0.527826
H      2.564294    0.905734    0.709362
