16

O     -2.540235    0.819994   -0.483212
C     -1.738126   -0.275686   -0.302793
H     -2.292713   -1.227275   -0.245209
C     -0.767899   -0.175916    0.870481
H     -0.850497   -1.007924    1.598978
H     -0.767863    0.815064    1.353838
C      0.383835   -0.292404   -0.064632
N      1.786526   -0.295450    0.172249
C      2.447349    0.751154   -0.542465
H      2.493684    1.640607    0.150737
H      3.472559    0.404003   -0.799723
H      2.170137   -1.239320    0.004832
C     -0.542101   -0.391667   -1.224591
H     -0.476250   -1.363147   -1.757443
H     -0.466659    0.435440   -1.959422
H     -2.311747    1.402526   -1.228748
