17

C      2.443101   -0.976339    0.516267
C      1.384240   -0.228247    0.816546
C      0.332366    0.089109   -0.171596
C     -1.017357   -0.387898    0.323688
C     -2.094815   -0.063520   -0.687102
H     -2.648611   -1.011944   -0.917746
H     -2.871244    0.620793   -0.253392
H     -1.668408    0.361975   -1.626880
H     -1.195163    0.124607    1.305629
H     -0.949324   -1.470087    0.549078
C      0.239695    1.570340   -0.354006
O      0.434373    2.049548   -1.455500
H     -0.000323    2.154562    0.518192
H      0.557516   -0.405784   -1.118698
H      1.331989    0.144289    1.845357
H      3.217468   -1.219461    1.215040
H      2.504497   -1.351944   -0.504877
