17

C     -2.068124    0.744225    0.556975
C     -1.068184   -0.419270    0.609188
C     -0.225971   -0.407419   -0.613190
H     -0.772941   -0.788293   -1.524388
C      0.625886    0.779973   -0.930046
H      0.662371    1.200454   -1.940450
C      1.238781   -0.560859   -0.636530
C      2.079468   -0.576779    0.571829
O      1.693591    0.081416    1.695572
H      2.215255    0.866135    1.916932
H      3.008959   -1.114353    0.567289
H      1.665705   -1.121005   -1.524150
H     -1.692609   -1.361054    0.580286
H     -0.564831   -0.432735    1.570812
H     -2.949811    0.485284   -0.036589
H     -1.543787    1.611503    0.118355
H     -2.303760    1.012778    1.614846
