10

O     -1.612656   -0.566354    0.651062
C     -0.476956   -0.510010   -0.165326
H     -0.669704   -1.127774   -1.071298
C     -0.119353    0.871937   -0.517504
H     -0.781864    1.571765   -1.037681
N      1.078223    1.068510   -0.102944
C      1.578854   -0.102835    0.521252
H      2.580905   -0.224600    0.971099
N      0.690334   -1.021532    0.491666
H     -2.267782    0.040893    0.259674
