16

C      2.537154    0.438876   -0.588368
C      1.143557    0.389738   -1.148340
C      0.167117   -0.225207   -0.483134
C     -0.307310   -0.977755    0.666716
H     -0.099742   -2.055410    0.734389
H     -0.438406   -0.493365    1.666018
C     -1.249891   -0.606704   -0.448520
C     -2.207984    0.492069   -0.125202
H     -2.540513    1.064891   -1.033678
H     -1.848988    1.164649    0.666428
H     -3.148138    0.019308    0.264570
H     -1.655569   -1.385990   -1.118586
H      0.994360    0.872556   -2.097433
H      2.561624   -0.036869    0.401875
H      3.199221   -0.150018   -1.259555
H      2.893509    1.489231   -0.554302
