11

C     -1.770909   -0.139478   -0.094987
C     -0.558707   -0.508611   -0.814661
C      0.562012   -0.387994   -0.140307
C      1.632193   -0.170681    0.570022
N      2.175980    1.059560    0.492274
C      2.662332    2.131321    0.441293
H      1.952352   -1.005272    1.136757
H     -0.424262   -0.860380   -1.800666
H     -1.791988   -0.693135    0.870743
H     -2.674657   -0.383411   -0.722064
H     -1.764345    0.958081    0.061595
