10

N      1.524088    0.680333    0.593592
C      0.368978   -0.080423    0.273174
C     -0.164877   -1.365515    0.134481
H      0.070477   -2.418390    0.211919
C     -1.051024   -0.266498   -0.128210
N     -1.357539    0.155235   -1.464263
O     -1.458944    1.328610   -1.690098
H     -1.840278   -0.006344    0.607666
H      1.432522    1.484582    1.249246
H      2.476596    0.488412    0.212494
