14

C     -0.608104   -1.093101   -0.457500
C      0.030547    0.200808    0.007098
C     -1.023516    1.290865    0.115865
H     -0.605353    2.086547    0.761598
H     -1.982793    0.891537    0.481416
H     -1.187040    1.682040   -0.908531
N      0.611698    0.050624    1.300780
C      1.781905   -0.350988    1.533691
H      2.097267   -0.418484    2.570516
H      2.486915   -0.631027    0.763796
H      0.744164    0.527832   -0.755030
H     -0.647954   -1.173117   -1.560990
H     -0.037968   -1.947734   -0.061623
H     -1.659770   -1.115801   -0.089773
