12

N     -1.925815    0.677398   -0.020236
C     -1.288685   -0.125772   -0.988937
C      0.051262   -0.656794   -0.634719
H      0.226522   -1.621978   -1.167358
N      1.055765    0.264680   -1.135135
C      1.790318    0.619089   -0.162491
H      2.646456    1.302613   -0.162179
N      1.347640   -0.019752    1.033399
C      0.333313   -0.770828    0.786911
H     -0.186970   -1.359638    1.513499
H     -1.387160    1.437366    0.396892
H     -2.662646    0.253616    0.540355
