15

O     -2.145209   -0.294223   -0.694073
C     -0.863619   -0.168160   -0.398028
C     -0.345539    1.191777    0.088343
H     -0.988974    1.650144    0.848615
H     -0.087159    1.809380   -0.772233
C      0.769101    0.356057    0.671999
H      1.309098    0.696971    1.509520
C      1.450043   -0.177365   -0.546876
H      2.056837    0.564193   -1.084815
H      1.999474   -1.089595   -0.264278
C      0.206795   -0.538216   -1.390157
C     -0.306274   -0.717940    0.888354
H      0.153051   -1.708541    0.728951
H     -0.910422   -0.583133    1.788934
H     -2.297202   -0.991348   -1.374256
