11

O      0.086942    1.439497    0.068940
C      1.227980    0.689497   -0.077300
H      2.222352    1.182498   -0.136507
C      0.980578   -0.598703   -0.131954
H      1.724025   -1.367728   -0.243911
C     -0.474935   -0.790155   -0.013788
H     -0.858365   -1.352065   -0.886699
H     -0.638288   -1.366306    0.942910
C     -1.034697    0.589826    0.118248
H     -1.693874    0.874238   -0.729832
H     -1.541717    0.699402    1.089892
