13

C     -1.793643   -0.317440    0.183975
C     -0.433639   -0.345100   -0.488685
H     -0.528250   -0.849426   -1.485568
C      0.286811    0.902803   -0.534209
H      0.180648    1.918763   -0.974868
C      1.256395    0.444948    0.201416
O      2.471098    1.003257    0.700976
H      3.354913    0.750641    0.302785
N      0.642125   -0.802602    0.308667
H      0.917487   -1.687817    0.799156
H     -2.153210   -1.363129    0.213656
H     -2.461361    0.300714   -0.440840
H     -1.739373    0.044388    1.213538
