11

O      1.161485    0.688687    1.082337
C      0.696099   -0.487327    0.484949
H      1.294478   -1.363998    0.771608
C     -0.763932   -0.634820    0.154431
H     -1.340141   -1.185873    0.906430
H     -0.817748   -1.120539   -0.848978
N     -1.170993    0.745964   -0.002519
H     -2.115883    0.801648   -0.459952
C     -0.129491    1.261879   -0.888418
C      1.132445    0.638526   -0.302496
H      2.053680    0.655853   -0.897392
