13

N     -1.335256    1.357323   -0.245227
C     -0.551198    0.175554   -0.134857
C      0.823128    0.089715    0.408918
O      1.697409    0.792489   -0.425788
H      1.562531    1.753271   -0.410658
H      0.889062    0.462111    1.451007
N      1.180703   -1.305581    0.308181
H      2.116094   -1.688400    0.621086
C      0.092495   -1.985680   -0.254384
C     -0.919583   -1.176773   -0.523277
H     -1.894213   -1.421096   -0.962755
H     -2.319030    1.105248   -0.522188
H     -1.342142    1.841817    0.689942
