16

C      2.197143   -0.322596   -0.131398
C      0.924306    0.406501   -0.528591
C      0.053193    0.636397    0.623021
C     -1.162888    0.124199    0.626038
C     -1.592414   -0.660526   -0.535721
H     -1.721609   -0.022714   -1.456802
H     -0.883580   -1.477933   -0.790402
H     -2.603542   -1.056795   -0.320030
O     -2.045969    0.308227    1.698788
H     -2.744181    1.048306    1.622904
H      0.377135    1.207231    1.458762
H      1.271203    1.423053   -0.879799
H      0.462817   -0.067713   -1.383934
H      2.359046   -0.247069    0.978347
H      2.029505   -1.392580   -0.332962
H      3.079835    0.094012   -0.648220
