14

C      2.285544    0.474775    0.262284
C      0.860781    0.288795   -0.125922
N      0.016815   -0.596657    0.589696
C     -1.374963   -0.829600    0.272954
C     -2.174400    0.422989    0.359389
O     -3.361755    0.346777    0.112788
H     -1.760268    1.381490    0.625855
H     -1.813273   -1.544582    0.999398
H     -1.443465   -1.244012   -0.777446
H      0.423541   -1.111337    1.392915
O      0.388694    0.922362   -1.102437
H      2.775406   -0.508868    0.393950
H      2.820166    0.998710   -0.537422
H      2.357178    0.999158    1.235311
