13

C     -1.422564    0.582146    0.426150
C     -0.805124   -0.722572    0.037662
H     -1.350062   -1.618782    0.420372
C      0.644403   -0.827689   -0.227963
C      1.550316    0.365868   -0.128906
H      1.639188    0.824914   -1.122963
H      2.567746    0.095481    0.249118
H      1.143734    1.088144    0.609114
H      1.165308   -1.795326   -0.125150
C     -0.336688   -0.872281   -1.435334
H     -0.820133    1.155818    1.168492
H     -2.432993    0.447302    0.860194
H     -1.543130    1.276978   -0.446300
