11

C      1.319039    0.070398    0.262712
H      1.901414    0.723319    0.943933
H      2.088053   -0.657687   -0.149641
O      0.685498    0.864000   -0.626059
C     -0.650164    0.613800   -0.573285
H     -1.304396    0.869043   -1.296161
H     -0.994427    1.333745    0.439082
C     -0.892865   -0.640034    0.216877
H     -0.744834   -1.459798   -0.751425
H     -1.800451   -0.835220    0.559346
C      0.393134   -0.881567    0.974621
