17

C     -1.847517    0.926042    0.909639
C     -0.874080   -0.137599    0.440731
C     -1.095828   -1.275022   -0.141359
H     -2.019778   -1.820629   -0.472823
C      0.327313   -1.590307   -0.207549
H      0.655797   -1.695818   -1.274363
H      0.591811   -2.514585    0.368498
C      0.553077   -0.309860    0.446429
C      1.262622    0.764118   -0.359672
O      2.631365    0.602385   -0.356603
H      3.070618    1.354653    0.112394
H      1.010570    1.726300    0.132083
H      0.869529    0.826941   -1.387456
H      1.051607   -0.431350    1.440439
H     -2.543859    1.105645    0.063474
H     -1.275282    1.848466    1.059561
H     -2.367964    0.620620    1.823319
