14

C     -0.699859    1.309923   -0.241924
C     -0.338468   -0.101804    0.138552
C      1.135730   -0.346067    0.388364
O      1.867018    0.236961   -0.634585
H      2.813776    0.200853   -0.380194
H      1.397838   -1.406780    0.448285
H      1.415864    0.191940    1.326158
O     -1.201745   -0.644985    1.110563
C     -1.194298   -1.197168   -0.149118
H     -2.096735   -1.025788   -0.796404
H     -0.773101   -2.234087   -0.214632
H     -1.593668    1.691493    0.300117
H     -0.864517    1.336055   -1.324868
H      0.132165    1.989455    0.029686
