12

C      1.326254    0.052824    0.158535
C     -0.118252    0.175864   -0.215808
C     -0.406824    1.336198   -1.081116
N     -0.650225    2.233646   -1.749748
C     -0.882183   -1.066472   -0.462526
H     -0.386075   -2.038302   -0.367126
N     -1.145626   -0.254086    0.699595
H     -0.789157   -0.627498    1.607903
H     -2.040589    0.255163    0.737946
H      1.618690    0.685578    1.005129
H      1.537830   -1.017001    0.416825
H      1.936156    0.264087   -0.749609
