13

C      2.301083    0.299409   -0.492847
N      0.955211    0.248130   -1.059868
C      0.114644   -0.396922   -0.075773
H      0.614165   -1.262047    0.424907
C     -1.298772   -0.574483   -0.400449
H     -1.579659   -0.165237   -1.401464
H     -1.713237   -1.611372   -0.350764
O     -1.698539    0.290184    0.561187
C     -0.419353    0.531011    0.946482
H     -0.167943    0.256755    2.008510
H     -0.111412    1.584940    0.704976
H      0.605759    1.213644   -1.241384
H      2.398052   -0.414012    0.376485
