19

C     -2.517618    0.368370    1.307719
O     -1.778119    0.340859    0.128148
C     -0.917422   -0.749803    0.191720
C     -0.062708   -0.876875   -1.042491
C      0.804363    0.328117   -1.278445
C      1.737850    0.609338   -0.191743
C      3.036353    0.616906   -0.413719
H      3.718297    0.825585    0.394780
H      3.432960    0.415713   -1.401260
H      1.377468    0.813708    0.802955
H      1.354527    0.156039   -2.224773
H      0.145004    1.211118   -1.413365
H     -0.760706   -0.948471   -1.907962
H      0.490030   -1.814907   -0.983299
H     -0.305761   -0.718381    1.125266
H     -1.552916   -1.662767    0.228833
H     -3.229511    1.198897    1.352221
H     -3.106941   -0.571109    1.413954
H     -1.865151    0.457663    2.207572
