12

N     -1.603442   -1.008494   -0.882403
C     -0.312285   -0.835086   -0.250168
C     -0.087307    0.625837    0.082416
C      1.210906    0.819891    0.722309
C      2.295491    0.995199    1.276256
H      3.236886    1.140279    1.737346
H     -0.867001    0.985466    0.746861
H     -0.102961    1.194779   -0.892904
H      0.459766   -1.150185   -0.986919
H     -0.222896   -1.469803    0.649061
H     -2.382264   -0.585566   -0.330580
H     -1.624892   -0.712317   -1.871275
