11

C      2.038520    0.300737    0.387404
N      0.969351    0.137792   -0.519972
C     -0.250173   -0.514725   -0.226059
O     -0.318703   -1.885542   -0.369210
C     -1.293838    0.180391    0.175482
O     -2.508689   -0.436646    0.472221
H     -3.328310   -0.274080   -0.093530
H     -1.273678    1.255535    0.297991
H      1.061968    0.521588   -1.494043
H      2.854536   -0.395658    0.375230
H      2.049014    1.110607    1.090314
