8

O      2.343472   -1.116632    0.347919
C      1.461795   -0.253966    0.226943
C      0.718491    0.654327   -0.328438
O     -0.522127    0.267647   -0.799194
C     -1.470618   -0.266408    0.048073
O     -1.186859   -0.395809    1.258702
H     -2.418049   -0.555184   -0.344434
H      1.073896    1.666026   -0.409570
