11

C      2.333698   -0.011815    0.083892
N      1.251759   -0.680408    0.149316
C      0.006406   -0.004333    0.203822
O     -1.049261   -0.791373   -0.312482
C     -2.337773   -0.275643   -0.332104
O     -2.516296    0.884566    0.115453
H     -3.182465   -0.850638   -0.722593
H     -0.266710    0.314198    1.219013
H      0.091421    0.914011   -0.417048
H      3.262593   -0.567569    0.043968
H      2.406630    1.069003    0.064592
