14

O      2.651082   -0.433549    0.939061
C      1.582882   -0.246634    0.414617
C      0.750460    0.955896    0.181503
H      0.439023    1.477208    1.105723
H      1.246750    1.689837   -0.489569
C     -0.283387    0.110289   -0.496603
C     -1.651977    0.135040    0.115472
H     -2.050776   -0.859397    0.368471
H     -1.687995    0.744917    1.061346
H     -2.405359    0.607059   -0.562911
H     -0.339009    0.346606   -1.579760
C      0.552903   -1.094212   -0.261821
H      0.192403   -1.874394    0.390823
H      1.002999   -1.558667   -1.186352
