13

O     -0.133775    1.328824    0.905920
C     -0.026398    0.532834   -0.253333
C      1.046048   -0.506018    0.022602
C      2.360123    0.150489    0.320503
H      3.078002   -0.673590    0.584165
H      0.760317   -1.154409    0.874313
H      1.096763   -1.180786   -0.873956
C     -1.338325   -0.116458   -0.490314
N     -1.980738   -0.564883    0.517493
H     -2.885957   -1.014782    0.370299
H     -1.726644   -0.200322   -1.493351
H      0.224947    1.182264   -1.088207
H     -0.474363    2.216838    0.603865
