14

N      3.217817    0.580929    0.978510
C      1.983420    0.263492    1.097446
O      0.867516    0.542512    2.008071
C      0.679719   -0.332096    0.853667
C     -0.183959    0.224249   -0.250788
C     -1.496296   -0.570575   -0.302556
C     -2.394026   -0.060874   -1.382438
H     -3.401776    0.217074   -1.028537
H     -1.266588   -1.666577   -0.417410
H     -2.021381   -0.455653    0.668640
H      0.302549    0.171676   -1.245432
H     -0.464702    1.270985   -0.012335
H      0.468981   -1.391507    1.094946
H      3.708726    1.206365    1.639530
