12

C     -0.557800    1.252917   -0.027252
C     -0.039297   -0.160234   -0.157618
C     -1.176386   -1.119176   -0.111587
O     -1.149788   -1.976548    0.750860
H     -1.986152   -1.040026   -0.826750
N      0.932642   -0.430418    0.872584
C      2.155975   -0.583960    0.524199
O      3.328660   -0.585834    0.137023
H      0.410227   -0.251181   -1.171956
H     -1.129537    1.417803    0.901954
H      0.332761    1.916797    0.029590
H     -1.121305    1.559861   -0.921048
