10

O      2.411031   -1.317412    0.321142
C      1.529749   -0.427926    0.384133
C      0.823879    0.650030    0.264432
C     -0.614155    0.542637   -0.053852
N     -1.220659   -0.671787    0.411482
H     -0.667561   -1.211005    1.080774
H     -1.678288   -1.234671   -0.331713
H     -0.697901    0.649953   -1.174464
H     -1.136636    1.390596    0.434360
H      1.250541    1.629585    0.389525
