15

C     -2.264106   -0.959313   -0.105043
C     -0.960912   -0.203508   -0.060376
C     -0.768782    1.262511   -0.167988
H     -1.082476    1.658531   -1.151320
H     -1.194955    1.807382    0.682926
O      0.637697    1.342666   -0.057779
C      1.210794    0.099857    0.094657
C      2.695816   -0.131911    0.237703
H      3.232373    0.717342   -0.206905
H      2.994478   -1.048509   -0.323729
H      2.938492   -0.325127    1.293991
O      0.303959   -0.744568    0.090432
H     -2.109463   -1.978850   -0.482372
H     -2.675351   -1.060534    0.926803
H     -2.957565   -0.435968   -0.771000
