10

O      0.891515    0.509419   -1.489919
C      0.307514    0.187092   -0.386883
C      0.703894    0.503258    1.006018
N     -0.155928    0.990781    1.760619
H     -0.138137    1.291937    2.751347
H      1.692078    0.178577    1.244290
N     -0.775639   -0.713606   -0.496738
C     -1.713275   -1.499241   -0.574389
H     -2.651212   -2.274703   -0.662655
H      1.839191    0.826487   -1.425872
