9

C     -1.580427    0.638810   -0.697266
O     -0.326695    0.772715   -0.802865
C      0.437820   -0.395234   -0.594686
C      1.548159   -0.361020    0.115161
O      2.071589    0.769578    0.712242
H      2.087376   -1.283585    0.238723
H      0.081393   -1.313054   -1.036100
H     -2.258984    1.476379   -0.838615
H     -2.060231   -0.304589   -0.462251
