13

C     -1.363463    0.878073    0.538535
H     -2.155087    1.465335    1.058011
C     -1.520406   -0.309388   -0.002367
H     -2.480119   -0.860016    0.003895
C     -0.244255   -0.755849   -0.592674
H      0.103193   -1.722138   -0.173798
H     -0.413439   -0.900697   -1.679854
C      0.680374    0.380917   -0.299451
C      1.886774   -0.042976    0.466308
O      2.071185    0.470936    1.553370
H      2.534094   -0.784040    0.016274
H      0.973968    0.834460   -1.283419
O     -0.072820    1.345384    0.395169
