13

C     -1.095881    0.693827   -0.247141
C     -0.363094   -0.571989    0.143606
C      0.998633   -0.580807   -0.523364
N      1.743060    0.539351   -0.058510
C      2.357189    1.445314    0.330365
H      0.896571   -0.590848   -1.612517
H      1.552840   -1.496046   -0.201669
O     -0.214048   -0.650706    1.524792
H     -1.071954   -0.359550    1.967626
H     -0.945398   -1.421801   -0.229283
H     -0.781644    0.953582   -1.280040
H     -0.884002    1.492960    0.472362
H     -2.192272    0.546713   -0.286228
