17

O      1.418409    1.802611    0.505096
C      0.786269    0.775787   -0.215099
H      0.466598    1.141723   -1.204538
C      1.635594   -0.478055   -0.303565
H      2.619042   -0.384427    0.172856
H      1.772596   -0.864464   -1.347835
C      0.601526   -1.213027    0.511083
H      0.949728   -1.588256    1.497325
H      0.099763   -2.018109   -0.057622
C     -0.242455    0.041916    0.596164
C     -1.508363   -0.091983   -0.183401
C     -2.648281    0.407207    0.231932
H     -3.530659    0.279268   -0.373839
H     -2.718461    0.941856    1.165930
H     -1.439068   -0.623552   -1.112396
H     -0.382997    0.454500    1.609487
H      2.120760    1.417005    1.105163
