16

C     -2.182549   -0.249054   -1.052888
N     -0.765926    0.028909   -0.964163
C     -0.046249   -0.624392    0.138590
H     -0.563655   -1.377776    0.781508
C      1.395557   -0.902480   -0.161750
H      1.869688   -1.512961    0.621438
H      1.555531   -1.458389   -1.144794
C      2.020976    0.438321   -0.192682
H      3.026588    0.677119   -0.394548
C      1.075212    1.384689    0.026273
H      1.373475    2.433211    0.069011
C     -0.244101    0.757384    0.187037
H     -0.923756    1.189860    0.950235
H     -2.619283    0.559920   -1.700428
H     -2.634509   -0.121170   -0.047586
H     -2.336998   -1.223190   -1.572375
