15

C      1.532911    0.506957    0.266242
C      0.309974    0.124369   -0.533843
H      0.368108    0.495609   -1.581152
N     -0.085163   -1.239498   -0.462002
H      0.547363   -1.892905    0.052730
H     -0.310656   -1.647677   -1.412369
C     -1.282525   -0.872809    0.235812
H     -1.352209   -1.228015    1.287997
H     -2.234485   -1.133060   -0.285881
C     -0.907763    0.548995    0.181354
N     -1.398543    1.683662    0.572399
O     -0.718324    2.838781    0.321442
H      1.778553   -0.289201    1.003029
H      2.365465    0.651487   -0.451663
H      1.387293    1.453304    0.805904
