15

C     -2.343133    0.076692   -0.260232
H     -2.444742    1.176080   -0.067869
H     -3.233258   -0.373916   -0.693319
O     -2.012311   -0.661671    0.996289
C     -1.058059   -0.525816   -0.079874
C      0.105690    0.339838    0.322375
H     -0.224540    1.392208    0.513080
O      0.840135   -0.104998    1.396568
C      1.960406   -0.197215    0.608783
H      2.418372   -1.212962    0.520311
H      2.779438    0.517044    0.874042
C      1.251980    0.281552   -0.632962
H      1.608720    1.259148   -1.024651
H      1.184126   -0.466402   -1.436686
H     -0.832823   -1.499580   -0.582755
