17

C     -2.188638   -0.044787    0.397516
C     -0.840405   -0.663146    0.711017
C      0.127670   -0.497460   -0.415305
H     -0.086986   -1.235112   -1.255400
C      0.510671    0.843505   -0.890408
H      0.664088    1.017147   -1.963600
H      0.340563    1.752172   -0.303167
C      1.532042   -0.119537   -0.276875
C      2.155920    0.297695    0.997179
O      1.487136    0.871938    1.839991
H      3.204707    0.093764    1.181646
H      2.267570   -0.604994   -0.977371
H     -1.064634   -1.755317    0.903946
H     -0.462608   -0.290378    1.676419
H     -2.903796   -0.797589   -0.001552
H     -2.625236    0.366794    1.319646
H     -2.118062    0.765306   -0.346942
