12

N      1.843996    1.179556    0.018395
C      1.263456    0.050808    0.188901
O      2.053178   -1.049312    0.519967
H      2.944562   -1.187701    0.035988
N     -0.144616   -0.052216    0.039635
C     -1.408025   -0.765722    0.296043
H     -1.550138   -1.745184   -0.194258
H     -1.670993   -0.753280    1.379422
C     -1.400546    0.434396   -0.457122
H     -1.542863    0.411150   -1.559587
H     -1.680346    1.434567   -0.034237
H      1.292336    2.042939   -0.233147
