13

N     -1.493083    0.595988   -2.062833
C     -1.128028    0.558162   -0.960573
C     -0.687274    0.532540    0.410753
C     -0.130415   -0.814891    0.701823
C     -0.331143   -1.867382   -0.053299
H     -0.927626   -1.783741   -0.939676
H      0.096324   -2.811003    0.208415
H      0.476274   -0.924216    1.592698
N      0.334797    1.508998    0.655824
C      1.450079    1.445641    0.044108
H      1.629620    0.656794   -0.660628
H      2.232670    2.171913    0.214758
H     -1.522196    0.731198    1.133117
