15

C      1.837665   -0.095050    0.067791
C      0.372436   -0.016974   -0.062827
C     -0.396375    1.200690   -0.383603
H     -0.553785    1.282548   -1.465702
H     -0.250261    2.091025    0.183994
C     -1.604105    0.429185    0.219388
H     -2.434192    0.925161    0.510491
C     -1.808420   -0.675112   -0.923410
C     -0.469469   -1.249294   -0.403873
H     -0.167141   -2.213998   -0.591940
C     -0.666561   -0.467144    0.725207
H     -0.584477   -0.787243    1.828832
H      2.232141   -0.991486   -0.477195
H      2.161712   -0.241719    1.114481
H      2.330834    0.809411   -0.341635
