16

C     -1.007253   -1.064020    0.854291
C     -0.327061    0.118498    0.243836
C      0.851637   -0.272145   -0.619759
H      0.790224   -1.237382   -1.165013
O      1.566733    0.758092   -1.244550
C      2.217496    0.139075   -0.180252
H      3.098468   -0.478045   -0.377727
H      2.272770    0.678424    0.803904
C     -1.304125    0.998279   -0.530046
H     -1.646156    0.523314   -1.455386
H     -0.870263    1.994892   -0.679313
H     -2.200608    1.111631    0.141896
H      0.064024    0.748959    1.068148
H     -1.936022   -0.683345    1.355122
H     -0.345996   -1.463275    1.652767
H     -1.223869   -1.872953    0.132084
