12

C      1.400874    0.054259   -0.152196
C     -0.035667   -0.195452    0.174487
N     -0.675297   -1.438850   -0.166096
H     -0.698676   -2.097228    0.636526
O     -1.825422   -0.818786   -0.479950
C     -1.179663    0.394541   -0.370702
H     -1.317955    1.204054   -1.089104
N     -0.717800    0.777877    0.987156
H     -0.256313    1.705586    1.029185
H      2.011435   -0.389288    0.668807
H      1.583481    1.156126   -0.101751
H      1.711001   -0.352840   -1.136362
