19

C      1.313443   -0.909829   -0.754695
C      0.457447   -0.063668    0.142692
C      1.027589    1.336742    0.126022
H      0.443063    1.980637   -0.534913
H      2.092439    1.339957   -0.250721
H      1.087220    1.775198    1.143167
C      0.441218   -0.647567    1.536337
H     -0.325056   -1.446360    1.622955
H      0.189102    0.182753    2.236035
H      1.443874   -1.075334    1.727655
C     -0.954092    0.033284   -0.306168
C     -1.878941   -0.390389   -1.323703
H     -1.959595   -0.973483   -2.223424
C     -2.364226    0.485541   -0.226765
H     -2.542952    1.565501   -0.460960
H     -2.990811    0.047628    0.583254
H      2.348508   -0.830252   -0.413702
H      1.235961   -0.462900   -1.784710
H      0.935807   -1.947460   -0.838354
