12

C     -1.753586   -0.468497   -0.245889
C     -0.543455    0.240131    0.248222
O     -0.655463    1.375623    1.033092
H     -0.487526    2.307526    0.637979
C      0.693093   -0.167603   -0.029596
C      2.093803   -0.127140    0.003077
H      2.703248    0.467293   -0.707336
H      2.698876   -0.490013    0.865208
O      1.401237   -1.195840   -0.738242
H     -2.349019    0.184225   -0.916382
H     -1.469121   -1.364380   -0.808026
H     -2.332088   -0.761327    0.657893
