12

N      2.204938    0.297589    0.003620
C      0.767904    0.279363   -0.039163
N      0.010918    1.296767   -0.329759
C     -1.347357    0.900878   -0.271358
O     -2.374553    1.597719   -0.487210
C     -1.387359   -0.517626    0.097549
H     -1.984048   -0.719498    1.010486
H     -1.771981   -1.094555   -0.779693
N     -0.004180   -0.876811    0.237056
H      0.407122   -1.824332    0.497968
H      2.805436   -0.487063   -0.306673
H      2.673159    1.147571    0.367178
