14

C      2.172365   -0.633535   -0.332019
N      1.012419   -0.005878   -0.835389
C     -0.142526    0.256257   -0.047034
O     -1.308230    0.793266   -0.577247
C     -2.516085    0.645096    0.187541
H     -3.371729    1.099529   -0.316594
H     -2.716645   -0.424946    0.368258
H     -2.297262    1.093323    1.181509
N     -0.086731   -0.021594    1.205551
H      0.798662   -0.422993    1.576725
H      0.994724    0.284191   -1.840223
H      2.803869   -0.078614    0.350750
H      1.841426   -1.561109    0.226837
H      2.815742   -1.022992   -1.148663
