15

C      1.119799   -0.980129    0.246523
H      1.333818   -1.741749   -0.549844
H      1.637270   -1.224359    1.199406
C      1.542860    0.429684   -0.191807
H      1.905579    0.410424   -1.221064
H      2.136228    0.954622    0.576575
C      0.158443    0.937491   -0.104970
C     -1.037784    1.542039   -0.042786
H     -1.166276    2.629783   -0.097710
O     -2.078400    0.595026    0.080966
C     -1.432881   -0.673439   -0.391790
H     -2.057452   -1.485050    0.008682
H     -1.348341   -0.603802   -1.463346
C     -0.201599   -0.465941    0.415328
H     -0.511264   -0.324599    1.535838
