13

N      2.282668    1.133965   -0.176445
C      1.036334    0.873541    0.447371
C      0.723845   -0.609912    0.284101
O     -0.525831   -0.820408    0.876667
C     -1.463778   -0.026814    0.218192
H     -1.089504    0.609838   -0.624260
O     -2.621072    0.343965    0.879442
N     -2.741152   -0.638438   -0.043860
H     -3.253930   -0.468588   -0.920464
H      1.503199   -1.251741    0.702762
H      0.692324   -0.787095   -0.816517
H      2.331638    0.994024   -1.190428
H      3.125259    0.932150    0.363440
