14

C      2.775173    0.142551   -0.604817
C      1.466215    0.129634   -0.492427
C      0.222101    0.047740   -0.110570
C     -0.823708   -0.834704   -0.459816
H     -0.709639   -1.934781   -0.298463
H     -1.200511   -0.680365   -1.526921
C     -1.761606   -0.138623    0.455035
H     -2.009214   -0.788133    1.331348
H     -2.653053    0.338041   -0.009067
C     -0.634864    0.766639    0.793725
H     -0.881583    1.809376    0.420999
H     -0.337708    0.784101    1.874612
H      3.451502   -0.395818    0.015248
H      3.096895    0.754342   -1.388886
