14

C      1.603104   -0.813067    0.940560
C      0.456198   -0.298621    0.089635
C     -0.191533   -0.820410   -0.901420
H     -0.083144   -1.798681   -1.405223
C     -1.055154    0.327114   -1.064517
H     -0.849523    0.884128   -2.013999
H     -2.135950    0.093922   -0.919507
C     -0.331621    0.927733    0.053634
O     -1.190783    1.106920    1.160081
H     -2.067602    1.343168    0.783762
H      0.259598    1.863102   -0.167317
H      1.744404   -0.135228    1.787151
H      2.532945   -0.860035    0.369330
H      1.309063   -1.820045    1.287829
