16

C      2.285217   -0.004905   -0.885205
C      1.233832    0.389769    0.107699
O      0.390034   -0.688300    0.476831
C     -0.612135   -0.412564    1.392336
C     -1.817722   -0.162586    0.922575
C     -2.026720   -0.191415   -0.545713
H     -1.106735   -0.334500   -1.107759
H     -2.834523   -0.923019   -0.819415
H     -2.441530    0.816409   -0.834046
H     -2.655236    0.062316    1.579389
H     -0.415760   -0.401187    2.470498
H      1.666798    0.880367    1.024352
H      0.583695    1.191806   -0.351674
H      3.281445   -0.047960   -0.370793
H      2.072823   -0.964609   -1.402266
H      2.396515    0.790379   -1.656811
