14

C     -0.584964    0.228130   -1.585795
O     -0.322989    1.148108   -0.546287
C     -0.124658    0.810735    0.755936
C      0.392349   -0.375642    1.051649
C      0.937130   -1.699885    0.615000
H      1.982998   -1.754734    0.257307
H      0.199254   -2.444003    0.299288
O      0.829295   -1.305685    2.033866
N     -0.435859    1.651892    1.861176
H     -1.331826    2.169399    1.895915
H      0.254581    1.735029    2.630956
H     -0.713025    0.715989   -2.560120
H      0.327775   -0.423085   -1.689351
H     -1.410062   -0.456249   -1.318226
