11

O      2.468076    0.429839    0.070741
C      1.248296    0.101028    0.030786
C      0.277545    1.107632    0.053408
H      0.576665    2.146696    0.104342
C     -1.044057    0.736472    0.009476
H     -1.820868    1.481409    0.024983
N     -1.389549   -0.557336   -0.053362
H     -2.392010   -0.849064   -0.087122
C     -0.405297   -1.492269   -0.072623
N      0.887138   -1.180655   -0.031863
H      1.594060   -1.923752   -0.048766
