15

O      3.303033    0.179682   -0.050542
C      2.297272   -0.762888   -0.302401
C      1.000708   -0.213695    0.093442
C     -0.061964    0.248087    0.633444
C     -1.215623    0.673012   -0.192778
C     -2.438323   -0.134032    0.162674
H     -2.165843   -1.064879    0.730783
H     -3.006098   -0.483503   -0.717245
H     -3.099033    0.435930    0.862936
H     -1.450770    1.740792    0.039644
H     -0.954213    0.636289   -1.256746
O     -0.216365    0.386277    2.026366
H      2.567695   -1.671175    0.278719
H      2.320171   -1.016438   -1.380206
H      3.119352    1.046542   -0.474992
