13

O      2.371560    0.143030   -0.808857
C      1.789774   -0.290713    0.398847
O      0.392905   -0.337528    0.257575
C     -0.325090    0.649223   -0.004207
N     -1.721813    0.490832   -0.124580
C     -2.253393   -0.853774    0.069944
H     -3.120737   -0.854033    0.759863
H     -2.520006   -1.231601   -0.933982
H     -2.375957    1.301625   -0.346574
H      0.131604    1.611919   -0.135314
H      2.154036   -1.338608    0.544493
H      2.144236    0.372948    1.194672
H      3.332879    0.336680   -0.587395
