16

C     -1.758965   -0.284968   -1.465078
C     -0.726792    0.081110   -0.490395
C     -1.152124    0.522115    0.845291
H     -1.649213   -0.348613    1.336732
H     -1.919731    1.331413    0.703839
H     -0.321984    0.878389    1.488248
C      0.530199    0.014270   -0.808146
N      1.594410    0.350683    0.076410
C      2.746707   -0.480193    0.129794
H      3.409445   -0.554440    0.982381
H      2.988877   -1.085564   -0.736042
H      1.585198    1.181391    0.699540
O      0.878704   -0.411573   -2.091841
H     -2.762968    0.117121   -1.172592
H     -1.548880    0.087716   -2.484956
H     -1.892884   -1.398859   -1.470309
