13

C     -0.925770    0.900398   -0.046859
H     -1.771662    1.537280   -0.302290
C      0.324422    1.244933    0.127961
H      0.697978    2.250096   -0.010133
C      1.156841    0.009016    0.381855
H      2.168484    0.122182   -0.037367
H      1.047683   -0.379124    1.355693
C      0.290090   -0.900596   -0.548536
H      0.241842   -0.453530   -1.545724
H      0.564834   -1.938540   -0.492314
C     -1.032222   -0.563705    0.197521
H     -1.898824   -1.003805   -0.304362
H     -0.863695   -0.824606    1.224554
