10

N      3.066971   -1.001497   -0.128719
C      2.206721   -0.251274   -0.025295
C      1.127087    0.673863    0.093689
C     -0.114539    0.221272    0.026473
C     -1.121648   -0.740899   -0.108115
H     -1.374784   -1.196077   -1.082009
H     -1.456650   -1.395574    0.747465
N     -1.487084    0.633706    0.074984
H     -2.220781    1.341817    0.166535
H      1.374706    1.714664    0.234993
