13

C      2.078383    0.905968   -0.072374
O      0.922853    0.108930   -0.075765
C      0.860356   -1.060628    0.361748
O     -0.361474   -1.702465    0.280065
C     -1.447092   -1.002644   -0.286025
C     -1.773931    0.237791    0.451913
O     -2.692704    0.913009    0.046035
H     -1.243807    0.583497    1.334718
H     -2.347497   -1.670169   -0.283777
H     -1.205870   -0.768827   -1.340060
H      1.914957    1.719686    0.665920
H      2.993365    0.356434    0.243825
H      2.302461    1.379418   -1.041735
