13

C      0.952429    0.973206    0.108551
H      1.164029    1.717434   -0.640595
H      1.358099    1.227768    1.171986
C      1.514048   -0.439067   -0.296950
H      2.310257   -0.828085    0.333148
H      1.714775   -0.416046   -1.429636
C      0.157330   -1.001612    0.002462
N     -0.848198   -1.774648    0.209101
C     -1.921481   -1.204188    0.550436
C     -1.769306    0.199820    0.112495
H     -2.100716    0.259525   -0.964942
H     -2.228877    0.979681    0.732093
N     -0.302387    0.306211    0.111853
