14

C      1.746829    0.215214   -1.008552
C      0.706297   -0.071076    0.047651
O      1.308582   -0.561928    1.195610
H      0.849295   -1.356889    1.542106
C     -0.425144   -0.938551   -0.376839
H     -0.698041   -1.736900    0.356384
H     -0.304425   -1.300641   -1.416897
C     -1.369101    0.229683   -0.199330
H     -2.122646    0.110533    0.603407
H     -1.862648    0.545132   -1.144181
C     -0.212998    1.086563    0.226098
H     -0.301024    1.497213    1.252439
H     -0.060423    1.903702   -0.508580
H      2.745449    0.377944   -0.569313
