13

C      1.469483   -0.423486   -0.092712
C      0.346853    0.320284    0.086742
C     -0.836423    0.523585   -0.885791
H     -0.714308    0.720184   -1.882823
N     -1.492312   -0.535242   -0.197701
H     -1.364972   -1.503120   -0.489411
C     -0.867039   -0.043810    0.982035
H     -0.753872   -0.451021    1.915609
C     -0.596090    1.216035    0.351659
H     -0.778263    2.218092    0.641653
H      2.301045    0.125737   -0.595998
H      1.931013   -0.797134    0.869102
H      1.354885   -1.370103   -0.702364
