12

N      2.635632    0.450583    0.464362
C      1.580087    0.484735   -0.250586
C      0.331056   -0.194952    0.208768
O     -0.719876    0.577852   -0.300404
C     -2.053814    0.262230   -0.083454
N     -2.278923   -0.660094    0.790342
H     -1.491021   -1.125764    1.290371
H     -2.863527    0.763304   -0.619009
H      0.263558   -1.209649   -0.277533
H      0.394552   -0.311715    1.270486
H      1.626789    1.026850   -1.204406
H      2.575486   -0.063380    1.358833
