15

C      0.128836    1.196917   -1.329622
C     -0.135524    0.225376   -0.231776
C      0.345311    0.491032    1.160828
C      1.807028    0.617373    1.167299
N      2.955952    0.735717    1.165589
H      0.082896   -0.342847    1.810615
H     -0.119471    1.412259    1.530152
N     -0.846685   -0.945687   -0.534582
C     -0.714334   -1.999699    0.419923
H     -1.574395   -1.980354    1.123203
H     -0.748516   -2.968895   -0.117170
H     -1.772520   -0.819462   -0.944369
H     -0.739234    1.865152   -1.510067
H      0.370678    0.663533   -2.268516
H      0.959978    1.849586   -0.988411
