11

O     -1.095037    1.374138   -0.409022
C     -1.086709   -0.011809   -0.549342
C     -0.186100   -0.658747    0.476340
C      1.198610   -0.203101    0.357934
C      2.434996    0.108180    0.161057
N      3.533752    0.576387   -0.277915
H     -0.203000   -1.748313    0.327121
H     -0.534359   -0.357815    1.480703
H     -0.625526   -0.240398   -1.552608
H     -2.069896   -0.472691   -0.519070
H     -1.366729    1.634170    0.504803
