9

C     -1.373341    0.195050   -0.410947
H     -2.127608    0.579137   -1.083501
C     -0.826116    0.127339    0.840707
H     -0.965337    0.510930    1.848652
C     -0.179799   -0.639816   -0.168841
N      1.061179   -0.306339   -0.791402
N      1.982230    0.196772   -0.120624
N      2.839791    1.079351    0.078766
H     -0.410999   -1.742426   -0.192811
