12

C      1.254931   -0.141280    0.510986
H      1.189382   -0.451133    1.475009
H      2.264440    0.384759    0.180508
C      0.062382    0.662129   -0.027962
H      0.293666    1.536887   -0.449649
C     -0.722588   -0.239139   -0.916061
H     -1.388270    0.126233   -1.652243
O      0.139047   -1.247827   -1.134960
C      1.137057   -1.292024   -0.535278
C     -1.136082    0.140721    0.536857
H     -2.038707    0.899393    0.526363
H     -1.055259   -0.378718    1.486429
