14

O      1.955798   -0.613302    0.663426
C      0.721822   -0.901779    0.102309
C     -0.279956    0.070138    0.710438
C      0.104630    1.506245    0.327825
H      1.200912    1.553647    0.185111
H     -0.343986    1.729649   -0.683991
H     -0.265006    2.214546    1.099654
O     -1.531108   -0.131405    0.221712
C     -1.986057   -1.250573    0.075819
H     -2.961664   -1.441259   -0.304255
H     -0.269674   -0.020589    1.801761
H      0.399938   -1.915008    0.400404
H      0.728044   -0.760527   -1.010243
H      2.526308   -0.039784    0.111344
