13

C      2.455847   -0.251657    0.718982
C      1.281998   -0.114235    0.483613
C     -0.149551    0.031623    0.183042
C     -0.503188    1.370957   -0.364904
H     -0.001147    1.568751   -1.337816
H     -1.592066    1.439076   -0.523037
H     -0.222855    2.162074    0.360060
C     -1.039076   -0.373323    1.292071
O     -1.476413   -1.327430    0.679516
C     -0.746898   -1.158693   -0.480532
H     -1.434532   -0.952600   -1.324182
H     -0.076686   -2.028859   -0.632906
H      3.504567   -0.365683    0.946093
