15

C      2.509123    0.674222    0.108617
C      1.328037    0.634398   -0.774689
C      0.280061   -0.386652   -0.512936
N     -0.690357    0.052736    0.443266
C     -1.883643   -0.874468    0.519619
H     -2.054537   -1.168264    1.560104
H     -1.971742   -1.637189   -0.277024
C     -1.997975    0.522738    0.095917
H     -2.430335    1.246792    0.855939
H     -2.149924    0.733354   -0.978889
H     -0.179367   -0.698781   -1.497910
H      0.704035   -1.342772   -0.100469
H      2.771156    1.751127    0.296813
H      3.420922    0.257178   -0.380501
H      2.344546    0.235582    1.095242
