14

C      2.364171   -0.036726    0.295523
N      0.988011   -0.052952    0.753423
C     -0.120441    0.092374   -0.136040
N      0.132439    0.443499   -1.351728
H     -0.717317    0.539943   -1.978317
C     -1.433130   -0.161763    0.383982
O     -1.580887   -0.494563    1.565267
N     -2.561302   -0.034318   -0.445632
H     -3.270246    0.734832   -0.296161
H     -2.779646   -0.677207   -1.256078
H      0.836986   -0.177054    1.775516
H      2.458902    0.365240   -0.730784
H      2.728030   -1.090450    0.383104
H      2.954430    0.549144    1.037925
