13

C      1.959245   -0.272659   -0.183823
C      0.757695    0.253257   -0.273678
O      0.550842    1.252258   -1.212956
H     -0.281881    1.822142   -1.187707
C     -0.311832   -0.238565    0.622497
O     -0.795671    0.797162    1.409165
H     -1.708055    1.092957    1.114289
C     -1.409390   -0.784705   -0.224425
O     -2.522773   -0.313809   -0.152179
H     -1.230209   -1.593343   -0.902034
H      0.074662   -1.026040    1.277566
H      2.139343   -1.047749    0.537662
H      2.778024    0.059092   -0.824377
