9

C     -1.073099    0.540185   -0.042211
H     -1.774939    1.391675   -0.077729
N     -1.524417   -0.615934   -0.037987
C     -0.765174   -1.597868    0.001407
N      0.653066   -1.546036    0.045030
C      1.196534   -0.376639    0.043475
H      2.267743   -0.244929    0.074946
N      0.327810    0.737962   -0.001453
H      0.692477    1.711584   -0.005477
