15

O     -1.536157    0.343411    1.187081
C     -1.378279    0.317648   -0.183925
C     -0.061526   -0.326670   -0.538828
C      1.102407    0.379876    0.021432
O      1.341724    1.694035   -0.314621
H      2.068171    1.988251   -0.943740
C      1.929771   -0.226947    0.847853
H      1.753782   -1.245895    1.115278
H      2.782086    0.291771    1.257563
H     -0.014552   -0.420925   -1.643797
H     -0.093958   -1.363330   -0.144675
C     -2.472843   -0.572432   -0.747374
H     -2.122799   -1.621588   -0.791071
H     -1.483455    1.331391   -0.627807
H     -1.814372   -0.568596    1.506630
