10

C     -1.398471   -0.040963   -0.286109
H     -1.504250    0.993814   -0.658714
H     -1.970925   -0.782035   -0.879801
C     -0.342965   -0.467847    0.559106
N      0.720811    0.381041    0.970073
C      1.777149    0.488372    0.277248
H      2.586498    1.129838    0.583354
H      1.868391   -0.071757   -0.634760
H     -0.117064   -1.552841    0.661152
O     -1.619174   -0.077621    1.134272
