8

N      0.322041    0.418314   -0.425398
C      1.284804   -0.185217    0.146401
H      2.313600   -0.072569   -0.213603
H      1.070384   -0.816315    1.000207
C     -0.989522    0.215538    0.109373
H     -1.036923   -0.624927    0.827992
H     -1.645169   -0.070655   -0.741509
H     -1.319214    1.135832    0.625371
