12

O      1.563754    1.244092    0.090343
C      1.986001    0.028545   -0.126945
H      3.012941   -0.292784   -0.244231
C      0.832529   -0.753289   -0.173541
O      0.763994   -2.117408   -0.381930
N     -0.242948    0.022925    0.017890
C     -1.653664   -0.337276    0.053917
H     -2.225596    0.350933    0.722952
H     -1.799478   -1.348540    0.458549
H     -2.089485   -0.204198   -0.955208
C      0.246326    1.270413    0.180574
H     -0.394374    2.136588    0.357631
