8

O      2.205117   -0.117516    0.504504
C      1.182490    0.284166   -0.031139
C     -0.099991   -0.450942    0.066546
H     -0.034998   -1.398959    0.673509
N     -0.948027   -0.517040   -1.039236
C     -1.366017    0.185695   -0.004068
H     -2.173878    0.809427    0.418259
H      1.235304    1.205169   -0.588374
