13

C     -0.587945   -1.365518    0.505534
C     -0.236050   -0.050800    0.056219
C     -1.249633    0.850586   -0.421130
H     -1.101838    1.851619    0.082198
H     -2.273658    0.531204   -0.107117
H     -1.230211    1.068991   -1.508992
C      1.016903    0.272531    0.100843
C      2.236387    0.594023   -0.192248
H      2.744998    1.119568    0.561388
H      2.732428    0.376322   -1.093005
H     -0.498505   -2.174638   -0.243306
H     -1.622680   -1.394074    0.899456
H      0.069805   -1.679813    1.360159
