14

C     -1.748313    0.916296    0.827592
C     -1.648563   -0.253287   -0.119047
N     -0.677817   -1.211443    0.439514
C      0.696960   -0.594752    0.256566
C      1.816685   -0.069716    0.107519
N      2.929661    0.460594   -0.029217
N      4.068835    0.434242   -0.151701
H      4.359036   -0.735279   -0.137675
H     -0.786288   -2.051571    0.776924
H     -2.588716   -0.756086   -0.323384
H     -1.154091    0.113285   -1.089278
H     -2.681401    0.903549    1.408349
H     -1.699575    1.853536    0.212044
H     -0.886413    0.990634    1.523107
