10

C      1.556320    0.022877   -0.123256
C      2.260719    0.302968    0.935634
C      0.103845   -0.015754   -0.024771
C     -0.736555    1.074177   -0.062491
H     -0.387332    2.079302   -0.170969
N     -1.996079    0.604375    0.060047
N     -1.908087   -0.711212    0.166284
N     -0.668712   -1.107595    0.118811
H     -0.255890   -2.068009    0.173517
H      2.031770   -0.181129   -1.072807
