13

O      2.698141    1.165298    0.530498
N      2.563384   -0.125303    0.141111
C      1.485186   -0.815408    0.227319
C      0.212112   -1.072024    0.496903
C     -0.829363   -0.690689   -0.461660
C     -1.544156    0.588110   -0.079853
H     -0.952616    1.224111    0.580675
H     -2.499146    0.362942    0.451627
H     -1.828015    1.105497   -1.029401
H     -0.427533   -0.651380   -1.487757
H     -1.600196   -1.508992   -0.473187
H      0.031654   -1.558740    1.438793
H      2.690546    1.976578   -0.050581
