16

C      2.806909   -0.034898    0.073807
N      1.536926   -0.592523   -0.145670
C      0.460811    0.219266   -0.557285
O      0.756518    1.183493   -1.539939
C     -0.762569    0.114309   -0.076631
C     -1.821517    1.019734   -0.580071
H     -1.530962    1.472252   -1.570469
H     -2.769991    0.456279   -0.742691
H     -1.961585    1.846014    0.142106
C     -1.099489   -0.878452    0.945288
H     -2.185540   -1.104258    0.994860
H     -0.607037   -1.873492    0.764545
H     -0.804515   -0.570267    1.980917
H      1.404862   -1.609898    0.000081
H      3.505743    0.026915   -0.732713
H      3.071436    0.325526    1.043863
