10

C     -1.410354   -0.042010   -0.034065
C      0.074537   -0.275105   -0.037380
N      0.759498   -1.399681   -0.167857
O      2.019206   -1.081154   -0.105201
C      2.162126    0.218897    0.062157
N      0.926525    0.746846    0.107250
H      0.754244    1.767744    0.233626
H     -1.917971   -0.818241   -0.634139
H     -1.652633    0.959081   -0.456690
H     -1.715179   -0.076377    1.032299
