14

C      1.261691   -0.246612    0.075984
H      1.461713   -0.558926    1.102933
H      2.153067   -0.329280   -0.567540
C      0.061499   -0.968061   -0.524840
H      0.004335   -1.941307   -0.015188
H      0.245667   -1.037732   -1.613463
C     -1.092542   -0.068906   -0.246994
O     -1.771427   -0.390693    0.942893
H     -1.288830   -0.993166    1.553445
H     -1.797418   -0.083346   -1.075695
C     -0.477712    1.282518   -0.051791
H     -1.057347    2.182415   -0.041973
C      0.830997    1.165560    0.082214
H      1.466306    1.987536    0.380015
