13

C     -1.744645   -0.284566   -0.422318
C     -0.437310   -0.194997    0.337924
C      0.669920    0.292993   -0.498237
N      1.793820   -0.242682   -0.450150
C      2.982331   -0.581927   -0.130387
H      3.450040   -0.104524    0.730653
H      0.514858    1.118450   -1.155333
O     -0.543135    0.666320    1.444339
H     -0.282957    1.574382    1.149490
H     -0.193555   -1.216985    0.686037
H     -2.548974   -0.382761    0.356820
H     -1.719917   -1.233647   -1.002370
H     -1.940478    0.589943   -1.046468
