13

C      0.950431    0.428149   -0.009937
C     -0.461123    0.637079   -0.299164
O     -0.818713    1.990615   -0.542424
H     -1.013927    2.539748    0.288034
C     -1.389756   -0.281442   -0.351425
O     -1.206602   -1.625622   -0.141751
H     -1.473001   -2.022192    0.751712
H     -2.401146    0.043954   -0.581622
C      1.442425   -0.899972    0.254949
O      2.664521   -0.993344    0.493914
H      0.933311   -1.837274    0.282992
H      1.502596    0.837192   -0.925168
H      1.270984    1.183109    0.779890
