18

C     -2.777269    0.503008   -0.413370
C     -1.531569   -0.301823   -0.308809
C     -0.394725    0.452813    0.383207
C      0.771364   -0.545812    0.382690
C      1.994471    0.009224    1.024317
C      3.159427    0.008574    0.055920
H      3.776597   -0.913539    0.138605
H      2.760549    0.010105   -0.998538
H      3.816826    0.867197    0.256770
H      0.398698   -1.478037    0.859418
H      0.995646   -0.796450   -0.678329
H     -0.639562    0.657977    1.449157
H     -0.130551    1.375819   -0.159055
H     -1.107670   -0.607732   -1.302784
H     -1.695388   -1.213758    0.309585
H     -2.639146    1.590159   -0.405147
H     -3.482810    0.158576    0.390974
H     -3.274888    0.223701   -1.384498
