13

C     -1.270628    0.209753    0.837426
H     -2.257882    0.653523    1.069488
H     -0.688493   -0.331594    1.584469
C     -1.168808   -0.290151   -0.645632
H     -1.893727   -0.735104   -1.214943
C     -0.499971    0.872778   -0.353098
H     -0.372188    1.866130   -0.557577
C      0.382196   -0.335113   -0.829558
N      1.225823   -0.815279    0.161870
C      2.490476   -0.199667    0.291002
H      2.484548    0.843145    0.642598
H      0.892920   -1.422721    0.902101
H      0.675733   -0.315700   -1.888144
