14

O     -0.634616   -0.857714   -1.136552
C     -1.441649    0.130426   -0.613981
H     -2.336459    0.514025   -1.094563
C     -1.004951   -0.044277    0.689338
H     -1.552644   -0.152200    1.617118
C     -0.096538   -1.097115    0.152503
H     -0.118686   -2.085227    0.552249
C      1.243173   -0.336628    0.297316
H      1.388038   -0.218563    1.377066
H      2.048941   -0.785406   -0.242959
C      0.794898    1.002401   -0.303567
H      1.441511    1.841703    0.020832
H      0.867568    0.893887   -1.395863
N     -0.598586    1.194689    0.081065
