14

C      2.737382   -0.346612   -0.286794
C      1.728931    0.462950   -0.129962
O      1.980125    1.708336    0.428480
C      0.336055    0.116253   -0.518216
C     -0.610707    0.154942    0.663035
C     -1.987358   -0.215969    0.128745
H     -2.193361   -1.296533    0.357362
H     -2.021398   -0.158129   -0.989392
H     -2.759912    0.453327    0.516503
H     -0.599895    1.135243    1.161466
H     -0.315744   -0.616816    1.403934
H      0.372660   -0.959300   -0.859455
H     -0.040846    0.734586   -1.360014
H      3.374068   -1.172278   -0.515692
