13

C      1.914662    0.167911   -0.384343
C      0.557350    0.604987    0.196666
H      0.627783    1.322266    0.993110
O     -0.272525    0.947743   -0.935655
C     -0.602010   -0.085827   -0.148554
C     -1.877918   -0.282719    0.618446
H     -2.714340    0.134055   -0.042012
H     -1.834496   -0.103077    1.638235
O     -1.768601   -1.577507    0.157816
C     -0.744366   -1.506051   -0.499149
H      2.460119    1.133908   -0.535484
H      2.482759   -0.416793    0.293459
H      1.771582   -0.338896   -1.352535
