13

C     -0.357942    0.185559    0.091427
C     -1.024259    1.300836    0.318409
H     -0.512607    2.164649    0.720432
H     -2.082258    1.418816    0.125054
C     -1.012360   -1.032006   -0.460543
H     -0.448222   -1.319014   -1.364140
H     -2.093589   -0.882848   -0.660443
H     -0.845939   -1.849408    0.278438
C      1.095168    0.104301    0.384036
O      1.759651   -0.193058   -0.814742
H      2.720431   -0.241849   -0.590232
H      1.480388    1.049764    0.837889
H      1.321537   -0.705741    1.134414
