11

N      2.198897    0.215353    0.545475
C      1.217286    0.616592   -0.377567
C      0.263317   -0.198169   -0.710764
N     -0.808912   -0.917138   -0.808451
N     -1.761460   -0.776586    0.195226
C     -2.595451    0.402147    0.184066
H     -3.001816    0.483300   -0.866311
H     -1.909175   -1.468059    0.952147
H      1.232267    1.586707   -0.815812
H      2.469156   -0.792297    0.586241
H      2.695891    0.848149    1.211580
