16

C      3.253163    0.072590   -0.709802
N      1.845982    0.224840   -0.998977
C      0.941467    0.218754   -0.104605
C     -0.510653    0.375586   -0.400138
H     -0.822606    1.449290   -0.512008
C     -1.513436   -0.587718   -0.074044
C     -2.947207   -0.099136    0.105157
H     -3.008551    0.963959   -0.213500
H     -3.656214   -0.661281   -0.535184
H     -3.200098   -0.132383    1.177700
H     -1.314839   -1.593571    0.299460
O     -1.045411   -0.423572   -1.420612
H      1.246273    0.092635    0.926323
H      3.616983   -0.751743   -1.374215
H      3.355720   -0.184067    0.352439
H      3.759427    1.035817   -0.975117
