15

C     -1.466642    0.044358    0.754285
H     -1.344174   -0.328050    1.768053
H     -2.197878    0.864010    0.639732
C     -1.217505   -0.910811   -0.368080
H     -1.928708   -0.777389   -1.212592
H     -1.036134   -1.985551   -0.167198
C     -0.233707    0.141035   -0.163594
C      1.044303    0.007704    0.582455
C      2.251297    0.094112   -0.256445
O      2.170490    0.259678   -1.445963
H      3.219562    0.006298    0.212942
H      1.094822    0.882100    1.297838
H      1.085438   -0.912296    1.203392
C     -0.222707    1.298366   -1.161739
H     -1.218458    1.316435   -1.683084
