12

O      0.470290   -0.233834    1.194844
C      1.388797   -0.860733    0.329094
C      2.368992   -0.154396   -0.175892
H      2.482437    0.895904    0.060668
H      3.086887   -0.602834   -0.839892
H      1.298231   -1.889831    0.082184
C     -0.750391    0.225638    0.759823
C     -1.647765    1.284521    0.595156
H     -1.822733    2.340390    0.745791
C     -2.064184   -0.049433    0.126043
H     -2.714222   -0.692043    0.728116
H     -2.096339   -0.263349   -0.958164
