14

O      1.518219    1.214841    0.382363
C      0.731671    0.455603   -0.495630
H      0.862889    0.790468   -1.538947
C      0.838899   -1.031919   -0.284435
H      1.602094   -1.313531    0.486196
H      1.052275   -1.572540   -1.240217
C     -0.590324   -1.099271    0.161499
H     -1.281996   -1.690227   -0.439361
H     -0.639780   -1.418541    1.222884
C     -0.696036    0.403315   -0.052627
C     -1.033378    1.191871    1.170816
H     -2.147307    1.306234    1.224050
H     -1.430738    0.612376   -0.868578
H      1.213513    2.151322    0.271988
