10

O      0.372434    2.111246   -0.470808
N      0.031775    0.868542   -0.064569
C      0.889869   -0.268879    0.042022
C      2.157939   -0.332314   -0.228673
H      3.170988   -0.428973   -0.432755
O      0.062632   -1.296878    0.501732
C     -1.197596   -0.796455    0.654956
H     -2.038509   -1.413827    1.009053
C     -1.268707    0.478195    0.333613
H     -2.180824    1.079343    0.381248
