11

C     -1.183759    0.578330   -0.142393
C     -0.715773   -0.784880    0.289625
O      0.526786   -1.148209   -0.237405
C      1.540840   -0.463024   -0.061045
C      2.628603    0.172452   -0.193529
N      3.451986    1.160063   -0.086197
H     -1.464377   -1.525439   -0.116531
H     -0.791825   -0.854020    1.382605
H     -0.624449    0.992268   -0.990985
H     -2.261509    0.565908   -0.446559
H     -1.106523    1.306552    0.698243
