14

C     -0.652197    1.722532    0.051854
C     -0.496373    0.413955    0.036482
C     -1.568903   -0.595544    0.093639
H     -2.218946   -0.474381    0.985030
H     -2.194933   -0.569960   -0.854502
O     -0.895424   -1.809822    0.048781
C      0.447748   -1.642906   -0.028127
H      1.201715   -2.444076   -0.075640
C      0.730449   -0.360368   -0.038265
N      2.019688    0.262911   -0.109847
H      2.768666   -0.096953    0.528336
H      2.229137    1.032457   -0.750698
H     -1.606902    2.213566    0.109479
H      0.236276    2.348590    0.003479
