11

O      2.011408    0.868763    0.219314
C      0.696176    0.375926    0.058913
C     -0.118528    0.487537   -0.926275
H      0.018854    1.011016   -1.912449
C     -1.152465   -0.268789   -0.268530
H     -1.292870   -1.271741   -0.782034
H     -2.131934    0.242978   -0.094690
C     -0.240345   -0.402538    0.853149
H      0.098966   -1.427820    1.146428
H     -0.630613    0.175530    1.755478
H      2.741352    0.209138   -0.049304
