14

O      1.687791   -0.963083   -0.586644
C      1.311653    0.178021    0.125543
H      1.930972    1.080571   -0.174735
C     -0.096780    0.528199    0.146021
C     -1.048359   -0.462644   -0.474726
C     -2.275529   -0.047987   -0.669685
H     -2.567187    0.943383   -0.396574
H     -2.986147   -0.726752   -1.111355
H     -0.720909   -1.470952   -0.743912
H     -0.340695    1.577673   -0.192623
N     -0.061789    0.323577    1.514521
C      1.128392    0.020094    1.550008
H      1.805181   -0.271139    2.399258
H      2.233408   -0.708961   -1.385095
