12

C     -0.300676    1.543195   -0.135027
O      0.614723    2.390807   -0.041924
N     -0.041518    0.156611   -0.024019
C      1.301888   -0.340383    0.203221
H      2.027262    0.468294    0.392041
H      1.313112   -1.069819    1.052530
H      1.561278   -0.946850   -0.698246
C     -1.098772   -0.825206   -0.131407
H     -1.006636   -1.475367    0.781832
H     -2.109382   -0.369550   -0.057993
H     -0.960226   -1.430183   -1.037542
H     -1.301052    1.898450   -0.303465
