10

O     -2.144702   -0.077177   -0.603029
C     -1.442219   -0.015753    0.611459
C     -0.007572   -0.073711    0.395266
O      0.744865    0.884932   -0.083131
C      2.094956    0.355996   -0.131937
C      3.096248   -0.016927   -0.173579
H      4.242500   -0.430035   -0.228864
H     -1.778915    0.836643    1.214554
H     -1.737015   -0.973074    1.170823
H     -3.068145   -0.490895   -0.445742
