13

C      2.427384    0.691896   -0.101293
C      1.183256    0.272465   -0.011841
C      0.722438   -0.969187    0.643517
H      1.349602   -1.694035    1.134743
N     -0.666461   -0.980714    0.481756
H     -1.324660   -1.729965    0.831118
C     -1.099606    0.170804   -0.230325
N     -2.469942    0.475777   -0.571084
H     -3.159006   -0.290261   -0.564726
H     -2.769815    1.434367   -0.818037
C     -0.031096    0.892399   -0.514130
H      2.623635    1.610404   -0.603620
H      3.214270    0.116049    0.323923
