11

N      2.294391    0.937497    0.778973
C      1.384944    0.034957    0.027676
O      0.964154   -1.090778   -0.671686
C      0.104683   -0.114809   -0.389771
C     -1.089037    0.506337   -0.670870
H     -1.737084    0.223746   -1.553544
H     -1.335259    1.568261   -0.335547
C     -1.070084   -0.490954    0.496838
H     -1.179473   -0.112085    1.511039
H     -1.635618   -1.435874    0.320201
H      3.298382   -0.026299    0.486692
