9

C      1.151414   -0.338892   -0.198257
C     -0.071556    0.144597   -0.150023
O     -0.333081    1.371712   -0.706583
H     -0.015746    2.257665   -0.386935
N     -1.106957   -0.609117    0.477527
H     -0.956031   -1.617196    0.705322
H     -2.012802   -0.126982    0.700549
H      1.404187   -1.299036    0.225718
H      1.940573    0.217251   -0.667318
