15

C      1.496239   -1.206098    0.229041
C      1.053670   -0.107356   -0.300287
O      1.771761    0.524684   -1.273537
H      2.223292    1.400045   -1.042850
C     -0.224976    0.449832    0.156103
O     -0.122154    1.732573    0.692366
H     -0.402321    1.802722    1.619522
C     -1.393606    0.203872   -0.785368
H     -2.080063    1.065314   -0.920094
H     -1.215273   -0.401817   -1.698650
C     -1.322763   -0.448887    0.573361
H     -1.111345   -1.548181    0.548804
H     -2.069171   -0.092622    1.291690
H      0.962372   -1.747836    1.007122
H      2.434338   -1.626244   -0.097223
