12

N      2.995115   -0.011821    0.571509
C      1.906353   -0.470265    0.087496
C      0.827760   -0.836397   -0.581715
N     -0.375700   -0.175000   -0.254857
C     -1.487498   -0.157829    0.713968
H     -1.265952    0.193850    1.736084
H     -2.131022   -1.062359    0.679302
C     -1.451045    0.779798   -0.371398
H     -2.123332    0.649371   -1.247341
H     -1.240319    1.849510   -0.164483
H      0.968359   -1.601552   -1.311106
H      3.377282    0.842692    0.142541
