16

C     -2.176022   -0.631448   -0.061992
C     -1.346887    0.060720   -1.107160
H     -1.467197   -0.252895   -2.172790
C     -1.105000    1.496328   -0.842343
H     -1.387695    2.533888   -0.749236
N     -0.055477    0.607984   -0.748612
C      1.332075    0.524681   -0.462909
C      1.800799   -0.644869    0.276817
O      3.176047   -0.554591    0.462623
H      3.524804    0.353058    0.197567
H      1.639608   -1.588524   -0.322467
H      1.324039   -0.765916    1.277556
H      2.048010    1.276677   -0.763488
H     -2.767986   -1.427683   -0.576126
H     -1.597578   -1.047243    0.764546
H     -2.941540    0.059832    0.370892
