12

O      2.386987    0.516850    0.613794
C      1.669382   -0.454854    0.443757
C      0.611825   -0.401365   -0.597499
C     -0.559494    0.390914   -0.179488
O     -0.463124    1.729990    0.154246
H     -0.605693    1.942993    1.153034
C     -1.750072   -0.165568   -0.111689
H     -1.925653   -1.205295   -0.352833
H     -2.616619    0.400400    0.192289
H      1.070748    0.001803   -1.547634
H      0.325238   -1.443416   -0.847298
H      1.856474   -1.312453    1.079322
