13

C      0.186464   -0.830348    0.419394
H      0.283403   -1.159880    1.481774
H     -0.233747   -1.704431   -0.122444
C      1.505413   -0.451909   -0.108149
H      2.360961   -1.112248   -0.151038
C      1.448396    0.911744   -0.541357
H      2.278341    1.467764   -0.978393
C      0.272602    1.413913   -0.348494
C     -0.612434    0.411507    0.252822
N     -1.817443    0.198295   -0.548946
H     -2.536038    0.895390   -0.220197
H     -2.188718   -0.757947   -0.418678
H     -0.947199    0.718151    1.283707
