9

C      0.059479   -0.087166    0.141295
C     -0.818648    0.909095    0.125851
O     -1.444234    1.421360    1.294090
H     -1.226697    0.833779    2.216570
H     -1.030809    1.318107   -0.923386
C      0.757118   -0.763412   -0.654784
C      1.388885   -1.399945   -1.403717
H      2.025769   -2.049955   -2.139871
H      0.289136   -0.181865    1.343953
