12

C     -1.904286   -0.752002    0.211430
C     -0.865954    0.291946    0.042658
C     -0.458953    1.483816   -0.284153
H     -0.686727    2.493694   -0.659725
N      0.526753    0.624700    0.171805
C      1.843802    0.230236    0.530101
N      2.305065   -0.952320    0.310449
H      3.275292   -1.236780    0.576419
H      2.528690    0.924527    1.013653
H     -2.641032   -0.489168    1.003810
H     -1.480510   -1.724844    0.484464
H     -2.442140   -0.893805   -0.753140
