16

C      0.739756    0.592711    2.057315
N      1.363026   -0.201783    0.962460
C      0.382990   -0.179056   -0.102349
C      0.819235   -1.056333   -1.269119
C     -0.513230   -1.392972   -2.044837
C     -1.088160   -0.012953   -2.225437
C     -1.580968    1.118363   -2.381003
H     -2.037057    2.184930   -2.511647
H     -0.377172   -1.897291   -2.948916
H     -1.135509   -1.911957   -1.252905
H      0.128987    0.846171   -0.457632
H     -0.569633   -0.647797    0.277362
H      2.248990    0.275840    0.679226
H      1.397432    0.755596    2.882119
H     -0.157237    0.002307    2.329485
H      0.378549    1.524224    1.548757
