13

C      1.176031   -0.176990   -0.134368
H      2.007906   -0.270616    0.573930
H      1.656131   -0.045958   -1.196168
N      0.306715   -1.286201   -0.032063
H      0.160875   -1.490293   -1.204238
C     -1.051681   -0.840974    0.062796
H     -1.884624   -1.382983    0.025747
H     -0.938764   -0.696195    1.370350
C     -1.014660    0.637166   -0.151040
O     -1.894569    1.334269   -0.452873
C      0.392133    1.079850    0.047747
H      0.399143    1.120018    1.316062
H      0.685365    2.018907   -0.225880
