11

N      2.383281   -0.381361   -0.184626
H      2.842081    0.562879   -0.083314
C      1.640487   -0.678324    1.091607
C      0.926684   -0.407206   -0.198147
N      0.263542    0.845972   -0.422442
C     -1.000727    0.954345   -0.212720
C     -1.741836   -0.199777    0.250489
O     -2.989562   -0.138542    0.470252
H     -1.252356   -1.154114    0.424245
H     -1.538969    1.887933   -0.371422
H      0.467374   -1.291806   -0.668094
