12

N      2.226994   -0.272032    0.075292
C      0.817987   -0.241369    0.098101
C      0.139799    0.805205   -0.403080
H      0.655603    1.640829   -0.831771
N     -1.276308    0.714053   -0.319594
H     -1.881324    1.481972   -0.684422
C     -1.937675   -0.405048    0.253738
H     -3.013723   -0.491911    0.325922
N     -1.233511   -1.337229    0.697395
C      0.014709   -1.323088    0.656703
H      2.717149   -1.102095   -0.292417
H      2.770301    0.530712    0.424133
