13

O      2.076367    0.083192    0.229226
C      0.792531   -0.233883    0.299347
H      0.535780   -0.576051    1.446882
C     -0.202240    0.808980    0.022743
H      0.137565    1.333992   -0.933155
H     -0.246952    1.572521    0.802184
C     -1.477980    0.079187   -0.182618
H     -1.972437    0.505883   -1.145727
H     -2.139139    0.160925    0.643519
C     -1.061000   -1.277812   -0.640774
N      0.349008   -1.485818   -0.304599
H      0.834008   -1.385164   -1.363312
H      2.374489    0.414047    1.126283
