17

C      3.348593    0.561636   -0.106465
C      1.975363    1.011546   -0.531208
C      0.924901   -0.059928   -0.281931
O     -0.293122    0.588018   -0.172767
C     -1.353504   -0.254865    0.055800
H     -1.215219   -1.347953    0.140100
C     -2.444227    0.281335    0.968479
H     -2.275219    1.263931    1.465602
H     -3.030452   -0.425565    1.584194
C     -2.686103    0.239643   -0.488997
H     -3.405395   -0.503592   -0.883881
H     -2.719580    1.199212   -1.036900
H      1.169948   -0.720655    0.546829
H      0.850374   -0.714758   -1.196922
H      3.534364   -0.508233   -0.304837
H      4.081137    1.144617   -0.710415
H      3.538140    0.842353    0.953320
