11

C     -1.198282    0.194805   -0.204029
C     -0.015328   -0.445342    0.494279
C      1.236143    0.121764   -0.128361
H      1.443767    1.082489    0.376376
H      2.063047   -0.592108   -0.112894
H      1.004198    0.317850   -1.207508
H     -0.076021   -0.189020    1.579147
H     -0.037172   -1.556913    0.426714
H     -0.878375    0.977614   -0.937012
H     -1.862593    0.686124    0.517184
H     -1.679384   -0.597263   -0.803897
