15

C     -0.916953   -0.985218    0.774586
C     -0.141686   -0.172058   -0.211693
O     -0.609849   -0.536080   -1.496645
H     -1.487036   -0.042708   -1.579863
C     -0.391347    1.312667   -0.097073
H     -0.280445    1.698470    0.921628
H     -1.432437    1.478828   -0.499265
H      0.327472    1.829441   -0.739421
C      1.306348   -0.491030   -0.071190
C      2.187755    0.411108    0.237835
H      2.970295    1.074139    0.484080
O      1.725092   -1.797599   -0.278119
H     -0.263444   -1.210506    1.658320
H     -1.102301   -1.990573    0.302110
H     -1.891462   -0.578882    1.047808
