12

N      1.478495   -0.649529   -0.018940
C      0.409887   -1.106216   -0.536217
C     -0.646904   -0.173389   -0.988396
C     -1.599145    0.172069    0.077175
N     -1.430006   -0.051143    1.312431
H     -2.175812    0.237562    1.987426
H     -2.530067    0.662566   -0.225707
H     -0.173258    0.687665   -1.459505
H     -1.228628   -0.721972   -1.779271
C      2.372853    0.101053    0.429828
H      3.156495    0.394557   -0.239546
H      2.366090    0.446778    1.440722
