13

N     -1.791453    1.087497    0.558479
C     -0.850367    0.200972   -0.007589
O      0.488982    0.624759   -0.057321
C      1.556263   -0.261727    0.184312
O      2.741572    0.481090    0.057838
H      2.948020    0.650163   -0.916234
H      1.552650   -0.635936    1.243055
H      1.552818   -1.097378   -0.542491
C     -1.218965   -0.977213   -0.469978
H     -2.247312   -1.268021   -0.416282
H     -0.472179   -1.618514   -0.891316
H     -1.820894    1.198487    1.578925
H     -2.439134    1.615822   -0.036911
