13

C     -1.960021   -0.199586    0.072002
C     -0.534280   -0.531592    0.363632
C      0.477379    0.107959   -0.200784
C      1.902910   -0.209232    0.077786
H      2.287267   -0.949040   -0.661292
H      2.550693    0.692131    0.002553
H      2.035833   -0.573903    1.132466
O      0.185981    1.125921   -1.097812
H      0.297773    2.076989   -0.758173
H     -0.265477   -1.323022    1.060995
H     -1.994892    0.846098   -0.346150
H     -2.417038   -0.882604   -0.648793
H     -2.566126   -0.180120    1.003570
