12

O      1.809973    0.357607   -0.477885
C      0.776184   -0.162040    0.283747
H      1.096550   -0.651327    1.235252
C     -0.386738    0.759259    0.490257
H     -0.243455    1.729547   -0.050016
H     -0.688303    0.947636    1.528233
N     -1.242333   -0.163031   -0.225718
H     -1.968886   -0.605193    0.410436
H     -1.730917    0.228053   -1.056598
C     -0.174501   -1.082011   -0.455083
H      0.100263   -1.285874   -1.510281
H      2.652163   -0.072626   -0.172345
