10

O     -0.116620    1.131386    0.833364
C     -0.017059    1.068371   -0.586270
C      1.020794   -0.011853   -0.212330
H      1.179113   -0.767141   -0.982182
H      1.923582    0.394996    0.272513
N     -0.044246   -0.191180    0.711275
H     -0.050828   -0.822153    1.447195
C     -0.971991   -0.122165   -0.347479
H     -1.975246    0.197554   -0.000669
H     -0.947499   -0.877815   -1.135417
