12

C      1.376507   -0.059041    0.171937
C     -0.107574    0.249925    0.260113
C     -0.532498    1.680972    0.092902
H      0.102424    2.198090   -0.669972
C     -1.025512   -0.796863   -0.101670
H     -0.693013   -1.855160   -0.265795
H     -2.037947   -0.546772   -0.473048
N     -0.768496   -0.448330    1.343574
H     -1.569785   -0.018191    1.836604
H      1.518563   -1.158832    0.117158
H      1.916257    0.315388    1.054023
H      1.821075    0.438814   -0.718055
