17

O      2.912641    0.657507   -0.030841
C      2.361632   -0.233250    0.872147
C      1.043682   -0.260489    0.983378
C      0.215446    0.638966    0.160545
C     -0.741100   -0.055367   -0.735924
H     -0.363583   -0.209210   -1.785799
C     -1.806149   -0.955969   -0.262557
H     -2.172514   -1.710456   -0.988254
H     -1.881008   -1.282235    0.798436
C     -2.189347    0.462057   -0.604479
H     -2.686545    0.657426   -1.581342
H     -2.434286    1.083128    0.262594
H     -0.294157    1.336058    0.884259
H      0.866727    1.300365   -0.447807
H      0.551141   -0.940171    1.677026
H      2.971376   -0.889403    1.472048
H      3.646044    0.401043   -0.673430
