14

C      1.947964    0.202615    0.479176
C      0.627284    0.319188   -0.090505
C     -0.124529    1.382404   -0.371740
C     -1.412941    1.081401   -0.134205
H     -2.263104    1.742999   -0.168166
C     -1.511832   -0.379480    0.089522
H     -1.324920   -0.608632    1.167749
H     -2.446459   -0.796635   -0.292216
C     -0.226465   -0.809433   -0.617513
H      0.124348   -1.805393   -0.240850
H     -0.386184   -0.623705   -1.664144
H      2.688128    0.139956   -0.379173
H      2.052775   -0.798236    1.004079
H      2.255937    0.952950    1.217986
