14

O      2.569883   -0.325373    0.571486
C      1.622904    0.649789    0.346892
C      0.367990    0.239400    0.123992
C     -0.881049    0.957700   -0.147316
H     -0.767370    1.500767   -1.133678
H     -1.207210    1.632854    0.674061
C     -1.620382   -0.332000   -0.232578
H     -2.085265   -0.521251   -1.226000
H     -2.321437   -0.423622    0.624386
C     -0.345638   -1.044866    0.043375
H     -0.296768   -1.607145    1.000587
H      0.010026   -1.705485   -0.798847
H      1.829943    1.698603    0.340610
H      3.124372   -0.719371   -0.186971
