15

C     -2.065301   -0.820369    0.349038
C     -0.938548   -0.209416   -0.442842
C     -0.240763    0.882958    0.371538
N      0.813112    1.391622   -0.483723
C      1.923408    0.768450   -0.458848
C      2.983863    0.065354   -0.169105
H      3.177810   -0.916254   -0.558352
H      3.708867    0.485879    0.500724
H      0.125139    0.447864    1.311065
H     -1.000076    1.676242    0.556220
H     -0.239069   -1.033220   -0.690919
H     -1.285061    0.217228   -1.391952
H     -1.640039   -1.361774    1.201538
H     -2.555090   -1.567022   -0.307239
H     -2.768252   -0.027541    0.665956
