17

C     -1.117789    0.135252   -1.010623
C     -0.614722    0.653111    0.304211
C     -1.511667    0.090814    1.389450
H     -1.248182   -0.951856    1.624298
H     -2.587906    0.205486    1.098217
H     -1.379229    0.674183    2.344903
C      0.790063    0.216365    0.611658
H      1.186430    0.660311    1.555656
O      0.888899   -1.242955    0.668853
C      1.664776   -0.409830   -0.269957
C      2.552407   -0.598473   -1.215050
H      2.982273    0.246827   -1.778531
H      2.942099   -1.554571   -1.531366
H     -0.673701    1.754955    0.287866
H     -0.549697    0.568492   -1.877211
H     -1.166337   -0.959219   -1.066941
H     -2.157715    0.511108   -1.135433
