14

C      1.763274   -0.226167   -0.365320
C      0.584510   -0.024762    0.581369
H      0.938236    0.091679    1.623053
C     -0.220883    1.137808    0.140068
H      0.118801    2.166782    0.092548
C     -1.416914    0.690105   -0.180944
H     -2.212953    1.313076   -0.536225
C     -1.451179   -0.782873    0.034417
H     -2.220281   -0.992611    0.791559
H     -1.695155   -1.311242   -0.908312
O     -0.210687   -1.137980    0.493383
H      2.450711   -0.971916    0.084085
H      1.327774   -0.688193   -1.291275
H      2.244746    0.736292   -0.558405
