12

C     -1.261162   -0.063560    0.515400
C     -0.329930   -1.056494   -0.098900
C     -0.008844   -0.812487   -1.500648
O      0.802638    0.091912   -1.801486
C      1.381017    0.842509   -0.821902
C      1.905836    1.514187    0.030161
H      2.368439    2.120803    0.779870
H      0.570991   -1.117888    0.557523
H     -0.830101   -2.064582   -0.056376
H     -1.968060    0.349367   -0.250164
H     -0.732558    0.795835    0.986040
H     -1.898265   -0.599600    1.246894
