16

N      1.617215   -0.820393   -0.704645
C      0.704955   -0.319376    0.378273
O      1.445631   -0.138101    1.507683
H      1.963967    0.700910    1.488113
C      0.042870    0.919572   -0.129659
H      0.338232    1.813750    0.469444
H      0.301563    1.117327   -1.164256
C     -1.422056    0.624713   -0.075523
H     -1.919570    1.055899    0.831190
H     -1.946401    0.924292   -0.991046
C     -1.447670   -0.872597    0.021755
H     -2.282676   -1.222541    0.607826
H     -1.472409   -1.305321   -1.043204
O     -0.244365   -1.308930    0.545665
H      2.531289   -1.081425   -0.299459
H      1.789426   -0.087780   -1.442156
