17

C      2.055609   -0.198126    0.094251
C      0.653749    0.215801    0.279549
H      0.560701    0.681439    1.317632
C      0.128912    1.218078   -0.671838
H      0.820376    1.635266   -1.439910
O     -1.035588    1.530540   -0.598739
C     -1.835452    1.014077    0.236143
H     -2.498740    1.033204    0.967277
C     -1.616181   -0.534255   -0.242078
H     -2.450086   -1.170018   -0.133625
H     -1.437021   -0.459514   -1.383983
C     -0.318543   -0.962677    0.295326
H      0.173305   -1.772872   -0.280610
H     -0.464156   -1.349759    1.339108
H      2.189899   -0.939968   -0.717918
H      2.436145   -0.671883    1.025199
H      2.637070    0.730668   -0.085783
