14

C     -0.221249    1.445021    0.068966
C      0.167547   -0.001745    0.199348
C      1.479649   -0.306135   -0.392442
O      2.369113   -0.775755    0.315644
H      1.707132   -0.138357   -1.424300
O      0.154312   -0.318779    1.554418
H     -0.174443   -1.223437    1.692901
C     -0.898276   -0.866545   -0.460156
H     -0.792169   -1.934041   -0.191273
H     -0.849644   -0.726543   -1.562121
H     -1.888964   -0.542539   -0.060968
H     -0.405771    1.765433   -0.966437
H     -1.178522    1.576551    0.632382
H      0.531286    2.046871    0.594036
