16

C      2.133455    0.214419    0.230888
C      0.687815    0.216624    0.080833
C     -0.151151    1.234335    0.242467
H      0.114206    2.263900    0.533052
C     -1.511660    0.718696   -0.092839
H     -2.228779    1.221759    0.509783
H     -1.487861    0.967007   -1.232114
C     -1.456998   -0.727125    0.041474
H     -2.221471   -1.320319   -0.538033
H     -1.554512   -1.001162    1.149989
C     -0.044537   -1.027893   -0.355259
H     -0.033894   -1.121199   -1.477821
H      0.277833   -1.978786    0.126059
H      2.568638    1.128413    0.571049
H      2.541996   -0.150945   -0.739360
H      2.366919   -0.637724    0.949832
