9

N     -1.234299   -0.580331   -1.190410
C     -0.416620    0.337112   -0.488603
N      0.495357   -0.017161    0.509486
C      1.471653    0.365956    1.458775
H      2.108223    1.052305    2.009492
N      1.181335   -0.888102    1.354727
O     -0.517535    1.568676   -0.785452
H     -2.026763   -1.011784   -0.692600
H     -1.061351   -0.826671   -2.175416
