15

O      0.360143    1.373639    0.644415
C      0.333727    0.314266   -0.256381
C      1.246183   -0.804050    0.185173
C      2.664949   -0.318058    0.288252
H      3.072905   -0.233369   -0.724415
H      0.912460   -1.226274    1.158698
H      1.142905   -1.627440   -0.554699
C     -1.056722   -0.262782   -0.384506
H     -1.086001   -1.233038   -0.930188
C     -2.082397    0.121926    0.504214
H     -2.973779   -0.554969    0.651809
H     -1.951113    0.950637    1.221259
O     -2.072266    0.625051   -0.838114
H      0.662841    0.693648   -1.230464
H      0.826165    2.180812    0.264948
