18

C     -1.586494    0.144820   -0.098290
H     -2.513544    0.246542    0.466858
H     -1.751354    0.581751   -1.142192
C     -1.122658   -1.271165   -0.292203
H     -1.554076   -1.703363   -1.199224
H     -1.497169   -1.890298    0.588411
C      0.365507   -1.272354   -0.329893
H      0.667370   -1.214477   -1.389529
H      0.754426   -2.230285    0.084152
C      0.768257   -0.098483    0.521338
C      1.872389    0.733966   -0.163511
H      1.611980    1.052786   -1.180066
H      2.855090    0.205188   -0.135804
H      2.017189    1.640572    0.473471
H      1.118291   -0.389302    1.488756
C     -0.434892    0.815386    0.543845
N     -0.406899    1.990491    0.952207
H     -1.163412    2.658226    0.811675
