13

N      2.761800    2.243728    1.464378
C      2.030623    0.732186    0.734046
C      1.415814   -0.567649    0.135303
N      0.199741    0.296574   -0.424200
C     -1.060826    0.136543    0.233126
C     -2.116057    1.172153   -0.080779
H     -2.980913    1.150517    0.594493
H     -1.188101   -0.448618    1.144426
C     -0.695412   -0.707104   -0.974598
H     -0.433605   -1.781794   -0.820407
H     -1.175550   -0.527846   -1.938551
H      1.194256   -1.088460    0.865934
H      2.048231   -0.610230   -0.648685
