16

C     -2.264327    0.403240   -1.003043
C     -1.623814   -0.701292   -0.696041
C     -0.188051   -0.746783   -0.351906
H      0.346629   -1.732659   -0.493310
C      0.150381   -0.079405    1.001179
H     -0.653861    0.466642    1.510673
H      0.841539   -0.599113    1.666937
C      0.656473    0.454837   -0.323199
C      2.153179    0.254209   -0.519472
H      2.614786    1.269198   -0.615361
H      2.370455   -0.353447   -1.409062
H      2.629599   -0.221189    0.355473
H      0.237738    1.426459   -0.607251
H     -2.202673   -1.625371   -0.701382
H     -3.319657    0.439127   -1.256346
H     -1.748396    1.345547   -1.015011
