14

C     -0.769698   -1.397273   -0.018940
C     -0.192939    0.011052   -0.130671
C     -0.892527    0.954141    0.831873
O     -2.026640    1.500326    0.280433
H     -1.904045    2.427363   -0.034021
C      1.288951   -0.035446    0.196762
O      1.796945    1.264561    0.088395
H      2.445194    1.287460   -0.683120
H      1.767551   -0.718152   -0.510918
H      1.423805   -0.403914    1.247004
H     -0.329559    0.335754   -1.168350
H     -0.316284   -1.943263    0.826203
H     -0.427731   -1.940264   -0.942754
H     -1.863023   -1.342344    0.018106
