12

O     -1.970825    0.573451   -0.504224
C     -0.706468    0.413709   -0.090619
H     -0.375677    1.084684    0.736830
C     -0.369312   -1.079349    0.310440
H     -1.064166   -1.252544    1.225092
H     -0.513294   -1.729610   -0.460494
O      0.891980   -0.860591    0.915763
C      1.852395    0.082418    0.317560
H      2.564511    0.436877    0.714117
N      1.433579    0.320707   -0.867589
C      0.316367    0.670743   -1.186421
H     -2.059089    1.339503   -1.110454
