14

O      1.210434   -1.199375   -0.453731
C      0.069807   -1.407653   -0.902250
C     -0.978564   -0.578226   -0.236522
H     -1.992024   -0.941466   -0.272155
C     -0.728220    0.887870   -0.410379
H     -0.395373    1.198132   -1.409345
H     -1.523374    1.493244    0.020104
N      0.400250    0.737363    0.526835
C      1.471644    0.153832   -0.263107
H      2.463117    0.343143    0.128614
H      1.414903    0.585949   -1.305642
C     -0.414759   -0.303593    1.165599
H      0.153903   -1.140784    1.587938
H     -1.151745    0.171565    1.824040
