14

C      1.509523   -0.437369   -0.366704
H      2.436730   -0.345128    0.283580
H      1.815771   -0.723287   -1.354626
C      0.645590   -1.475473    0.310122
C     -0.502457   -0.623603    0.963199
H     -0.873751   -1.041567    1.870059
C     -1.443650   -0.354335   -0.195931
H     -1.365850   -0.918374   -1.098846
H     -2.460456   -0.233234    0.244269
C     -0.697957    0.953150   -0.280796
H     -1.191055    1.893372   -0.465473
N      0.043681    0.689830    0.905325
C      0.753711    0.875968   -0.327114
H      1.330171    1.740050   -0.487063
