13

C     -1.315778    0.621995    0.054578
C     -0.743393   -0.766616   -0.018668
C      0.765598   -0.728905    0.250152
H      1.223801   -1.643667    0.660197
C      1.611612    0.079772   -0.665972
H      2.063808    0.162045   -1.642730
C      1.355910    0.546136    0.600208
H      1.545175    1.368615    1.288214
H     -0.892874   -1.114066   -1.080206
H     -1.207297   -1.490110    0.642849
H     -0.597736    1.331117    0.533166
H     -2.267106    0.580211    0.608927
H     -1.541719    1.053473   -0.946229
