14

O     -2.218911    1.157749    0.276412
C     -1.924044   -0.065986    0.264768
C     -0.718424   -0.736098    0.020575
N      0.436405    0.028107   -0.227226
C      1.300497    0.580509    0.794260
C      1.742703   -0.637378    0.130596
H      2.377053   -0.665327   -0.782484
H      1.680127   -1.596642    0.645465
C      0.534860    1.436951   -0.223153
H     -0.126277    2.138426    0.286391
H      1.115621    1.918461   -1.047271
H     -0.853817   -1.478889   -0.821438
H     -0.486160   -1.405800    0.928066
H     -2.859634   -0.674085    0.564911
