10

O     -1.384702   -0.364769    0.858304
C     -1.456973    0.207079   -0.386762
H     -1.391288   -0.544499   -1.225154
H     -1.990718    1.146003   -0.573470
C     -0.237594    0.301022    0.441635
O      0.027858    1.459597    1.190564
H      0.808319    1.280065    1.776604
C      0.939302   -0.520004    0.135342
C      1.914331   -1.192733   -0.131034
H      2.771465   -1.771761   -0.360209
