16

C     -1.661927   -0.959099   -0.051797
C     -0.310569   -0.334444   -0.045270
C      0.878774   -1.223139   -0.059945
C      2.085664   -0.396559   -0.050263
C      3.088848    0.305398   -0.033488
H      3.961535    0.905495   -0.002628
H      0.926803   -1.865826    0.854050
H      0.870995   -1.890192   -0.968137
N     -0.176649    1.033353   -0.026089
C     -1.267362    1.814070    0.382772
H     -2.092733    1.740419   -0.376324
H     -0.977842    2.883717    0.394539
H      0.699487    1.461109   -0.253752
H     -2.416150   -0.346341   -0.579841
H     -2.002661   -1.140300    1.000461
H     -1.606213   -1.987661   -0.505825
