12

C      2.305357   -0.248476    0.223461
H      2.767904    0.766895    0.152604
H      2.553758   -0.812018    1.157592
N      1.726927   -0.822421   -0.879006
C      0.839091   -0.269884   -0.114314
C     -0.459229    0.081824    0.216407
C     -1.672505   -0.021468   -0.824727
H     -1.652177    0.828196   -1.548934
H     -1.697164   -1.012549   -1.271926
C     -1.602903    0.159216    0.674236
H     -2.319092   -0.072043    1.411519
O     -0.789967    1.422728    0.803087
