15

C     -1.912129   -0.123846    0.299456
C     -0.500917   -0.278152   -0.188025
O     -0.405987   -0.730645   -1.515803
H     -0.430324    0.101613   -2.067942
C      0.553878    0.652577    0.156383
H      0.361715    1.614071    0.705499
C      1.958558    0.368021   -0.303040
H      2.731704    1.050629    0.004346
H      1.974715    0.122634   -1.433047
C      1.899566   -0.998647    0.373905
C      0.517592   -0.638360    0.858899
H      0.170084   -0.827234    1.858241
H     -2.045572   -0.431356    1.361067
H     -2.288696    0.901182    0.178777
H     -2.584188   -0.782487   -0.288714
