10

N      1.670224   -0.035043    0.087976
C      0.263454   -0.325274    0.035199
N     -0.263837   -1.482551    0.117710
N     -1.639752   -1.369575    0.027371
N     -2.006774   -0.173307   -0.110487
C     -0.826158    0.653902   -0.123124
H     -0.735260    1.249010   -1.056210
H     -0.779948    1.320198    0.778072
H      1.978857    0.687272    0.754491
H      2.339195   -0.524632   -0.510997
