8

C     -1.591602    0.092806   -0.073266
N     -0.493260    0.692533    0.209307
C      0.741485    0.012323    0.389634
N      1.884977    0.555536    0.155420
H      2.796396    0.039450    0.293312
H      0.754468   -1.017718    0.741375
H     -2.525511    0.602265   -0.210175
H     -1.566953   -0.977195   -0.176772
