12

C      2.043575   -0.209806   -0.162330
C      0.696871   -0.220642   -0.154327
C     -0.180664    0.741685    0.534927
H     -0.102516    1.768522    0.085034
H      0.014044    0.793262    1.629129
N     -1.495363    0.272364    0.219027
H     -2.381608    0.746157    0.563633
C     -1.366605   -0.872907   -0.590626
H     -2.258889   -1.401854   -0.953535
N     -0.132284   -1.158585   -0.806554
H      2.614803    0.526685    0.350726
H      2.548635   -0.984882   -0.715104
