13

N      0.086290    1.507309   -0.370172
C     -0.192351    0.206529    0.200857
O     -0.651925    0.388565    1.513594
H     -1.545813   -0.004032    1.650798
C     -0.997012   -0.720028   -0.605906
H     -1.240371   -0.286711   -1.618911
H     -1.906588   -1.154697   -0.123938
O      0.064421   -1.603016   -0.660761
C      0.850182   -0.794170    0.076023
N      2.080348   -0.899014    0.500656
H      2.466791   -0.118815    1.066283
H      0.885041    1.983346    0.066691
H      0.100986    1.494735   -1.410727
