9

O     -1.943778    1.039793   -0.713077
C     -1.039335    0.026420   -0.478233
N     -0.842169   -0.884080    0.554611
C      0.053257   -0.953732   -0.542240
N      1.402224   -0.564295   -0.331687
N      1.823557    0.584623   -0.373067
H      2.820075    0.855148   -0.215737
H     -0.093491   -1.770733   -1.305091
H     -2.180339    1.666857    0.038864
