14

C     -1.482936    1.169783   -0.197300
N     -0.078394    0.862374   -0.324793
C      0.355816   -0.349592   -0.270725
O      1.737807   -0.533742   -0.405849
C      2.584052    0.211758    0.411375
O      2.077920    1.028743    1.220795
H      3.660894    0.146721    0.409243
C     -0.632648   -1.433767   -0.077829
H     -0.147782   -2.429401   -0.086945
H     -1.197017   -1.238087    0.864151
H     -1.319640   -1.412250   -0.975620
H     -2.161104    0.380287   -0.520798
H     -1.717923    1.548550    0.833116
H     -1.679044    2.048622   -0.878821
