14

C      1.498006    0.377311    0.384235
C      0.410616   -0.145262   -0.519150
H      0.787427   -0.208172   -1.562973
C     -0.190575   -1.416163   -0.084829
H      0.178129   -2.444996    0.079481
C     -1.397465   -0.937143    0.065339
H     -2.377258   -1.360673    0.380746
C     -0.942805    0.392646   -0.350932
O     -1.160263    1.348665    0.620427
H     -0.813326    2.241956    0.395488
H     -1.385782    0.737902   -1.307476
H      2.240980    0.979483   -0.151608
H      1.121887    0.954801    1.242165
H      2.030427   -0.520354    0.809087
