12

O      2.931564   -0.611232    0.166257
C      1.684627   -0.563571    0.015162
C      1.017514    0.719717   -0.011196
C     -0.265498    0.891170   -0.162625
C     -1.176814   -0.262761   -0.326699
O     -2.139147   -0.313613    0.686212
H     -1.727368   -0.672799    1.520419
H     -0.696815   -1.215225   -0.482511
H     -1.782298   -0.040494   -1.257318
H     -0.664106    1.926424   -0.166695
H      1.628095    1.644496    0.105016
H      1.190247   -1.502113   -0.086021
