14

O      2.134266    1.399186    1.079374
C      1.672358    0.094438    0.920855
C      0.439675    0.021885    0.099107
C     -0.709129   -0.469174    0.537315
C     -1.924308   -0.515846   -0.343460
O     -1.579543    0.018933   -1.576613
H     -1.433385    0.996814   -1.545247
H     -2.790477   -0.023876    0.127243
H     -2.152378   -1.603405   -0.530469
H     -0.756952   -0.845587    1.567923
H      0.462161    0.385995   -0.917328
H      1.480775   -0.344989    1.929351
H      2.448005   -0.554874    0.460098
H      2.708931    1.440500    1.893165
