16

C     -1.137768   -0.181852   -1.359773
C     -0.288914   -0.325609   -0.119116
C     -0.494984    0.948581    0.696427
H     -0.709625    1.822809    0.026588
H     -1.343668    0.818881    1.415259
H      0.403579    1.171060    1.314307
C      1.180591   -0.434950   -0.437061
C      1.643493    0.792388   -1.164475
H      2.630818    1.144791   -0.751709
H      1.718684   -0.472955    0.528712
H      1.438888   -1.312432   -1.030389
O     -0.708454   -1.373376    0.697435
H     -0.117392   -2.177597    0.616187
H     -2.195393   -0.404863   -1.034324
H     -0.879345   -0.895477   -2.147836
H     -1.140511    0.880600   -1.707355
