14

O     -0.121426    1.155109   -0.814500
C     -1.446315    0.703330   -0.314360
H     -2.032547    0.396837   -1.160916
H     -1.838182    1.692702    0.174908
C     -1.121509   -0.227812    0.703986
H     -1.032716    0.189538    1.746498
H     -1.934592   -1.075071    0.813778
C      0.209216   -0.773904    0.359173
H      0.790839   -1.074726    1.248852
H      0.063481   -1.753013   -0.368575
C      0.817648    0.291069   -0.450191
C      2.176898    0.145106   -0.610321
H      2.633774    0.886630   -1.169537
H      2.835431   -0.555797   -0.158796
