16

C     -1.899416    0.475400   -0.160313
C     -0.625483    0.176731   -0.908739
H     -0.842663    0.291601   -1.990515
O      0.348564    1.084162   -0.572697
C      1.515689    0.409578   -0.295138
O      1.896293    0.769109    1.007703
H      2.061840    1.755281    1.032301
H      2.331510    0.675314   -1.009933
N      1.258663   -1.000940   -0.310716
H      1.560595   -1.498801    0.546526
C     -0.127682   -1.204015   -0.612135
H     -0.683639   -1.697945    0.223411
H     -0.222319   -1.884158   -1.477013
H     -2.514664    1.205328   -0.737488
H     -1.623380    0.924042    0.815805
H     -2.433910   -0.480687   -0.008181
