15

C      2.294596   -0.013193    0.576579
N      1.315097    0.904934    0.084711
C      0.095832    0.637644   -0.148709
N     -0.770660    1.638510   -0.634501
H     -0.514563    2.306420   -1.404619
H     -1.751637    1.787848   -0.251789
C     -0.416048   -0.692009    0.080255
O      0.378129   -1.570301    0.514805
C     -1.852474   -1.030260   -0.188327
H     -2.155275   -1.802196    0.548912
H     -2.485713   -0.123407   -0.139354
H     -1.879263   -1.404326   -1.236938
H      2.005522   -0.344293    1.594716
H      3.261896    0.557631    0.730084
H      2.474562   -0.853004   -0.125824
