16

C      2.340645    0.172444   -0.166742
N      1.038976   -0.383959   -0.395571
C     -0.022003    0.506652   -0.036464
H      0.163781    1.483509    0.435286
C     -1.371589    0.093474   -0.512928
C     -2.491818    1.041614   -0.244148
H     -2.441608    1.837869   -1.032088
H     -1.368464   -0.197839   -1.585578
C     -1.253224   -1.101396    0.370586
H     -1.410428   -2.086357   -0.074637
H     -1.911976   -0.929787    1.279805
C      0.158870   -0.709402    0.705409
H      0.547391   -0.831804    1.718601
H      2.644997    0.206642    0.887704
H      2.323241    1.239133   -0.514984
H      3.053207   -0.340791   -0.834252
