12

O     -1.001052    1.500745   -0.306847
C     -0.403735    0.446328    0.401430
C     -0.942239   -0.890419   -0.066883
H     -0.695837   -1.647461    0.681694
H     -2.042842   -0.787918   -0.197393
H     -0.523080   -1.146070   -1.064162
C      1.059915    0.503923    0.387571
C      1.730383   -0.366975   -0.308544
O      2.507032   -1.184386   -0.815096
H      1.568336    1.263779    0.951507
H     -0.737478    0.566146    1.453859
H     -0.519402    1.742309   -1.117138
