12

C     -0.474779    1.082584    1.190834
C     -0.151863    0.132294    0.343768
C     -1.058625   -0.271750   -0.788079
O     -0.363699   -0.060386   -1.960648
H      0.196113    0.756405   -1.942611
H     -1.249637   -1.349874   -0.689806
H     -2.021755    0.266624   -0.738028
C      1.088095   -0.586192    0.439199
C      2.147818   -1.198516    0.499897
H      3.067678   -1.708927    0.550909
H     -1.397588    1.619596    1.122315
H      0.218243    1.318143    1.972251
