11

O      1.776295    0.691526   -0.674845
C      1.100047   -0.156031   -0.071507
C     -0.366965   -0.011015    0.061220
C     -0.977162    1.033007   -0.466781
H     -0.405102    1.764595   -0.985795
H     -2.043102    1.166330   -0.386901
C     -1.101855   -1.038551    0.780023
O     -0.513204   -2.018951    1.273597
H     -2.173380   -0.978299    0.904018
H      1.605226   -1.011436    0.360350
O      3.099202    0.558825   -0.793379
