15

C      2.720342   -0.388019   -0.239501
N      1.487990    0.004630   -0.094569
C      0.295788   -0.751649   -0.176467
H      0.295082   -1.819981   -0.385267
C     -0.785310   -0.019276    0.026496
C     -2.203326   -0.481475    0.014574
H     -2.537608   -0.581034   -1.022942
H     -2.294909   -1.505746    0.469904
H     -2.825113    0.177959    0.638325
C     -0.349603    1.362252    0.272470
H     -0.794293    2.106015   -0.399340
H     -0.617537    1.679390    1.314305
N      1.097225    1.316297    0.183464
H      2.977105   -1.413457   -0.454170
H      3.534168    0.314093   -0.147282
