12

C      2.001768    0.381950    0.133598
N      0.972167    0.563949   -0.617257
C     -0.265414   -0.054416   -0.292306
N     -1.247524    0.766825    0.328204
H     -1.325998    1.626574   -0.287482
H     -0.891363    1.039788    1.281724
H     -2.133354    0.223326    0.366233
C     -0.482986   -1.332320   -0.558342
O     -1.722563   -1.866156   -0.209234
H      0.218155   -1.980172   -1.018336
H      1.962047   -0.243969    1.032703
H      2.915068    0.874621   -0.159505
