10

O      2.522669    0.691816   -0.205439
C      1.594357   -0.331656   -0.254553
C      0.296163   -0.194255   -0.072694
C     -0.770438    0.829830    0.222254
H     -0.947236    1.602419   -0.536403
H     -0.677021    1.198347    1.264177
N     -1.073208   -0.531933    0.041824
H     -1.417952   -1.063976    0.859412
H     -1.486886   -0.878124   -0.860796
H      1.959552   -1.322468   -0.457782
