12

O      3.231326   -1.157923    0.775775
C      2.286041   -0.529817    0.232885
C      1.611777    0.472054   -0.262239
C      0.232561    0.675991    0.205108
C     -0.570546   -0.540077    0.282140
C     -1.850748   -0.513816    0.065457
N     -3.140657   -0.537693    0.087996
H     -3.570303   -0.116564    0.961221
H     -0.112346   -1.476984    0.521750
H      0.199108    1.161869    1.222475
H     -0.320721    1.406425   -0.453926
H      2.004507    1.156534   -0.990871
