13

O      0.473297    1.352891   -0.260205
C     -0.833353    1.020157   -0.117119
H     -1.151176    1.292106    0.958014
H     -1.518117    1.498486   -0.830562
C     -0.934091   -0.501856   -0.186212
H     -0.988538   -0.831697   -1.268043
H     -1.798203   -0.889258    0.381168
C      0.417277   -0.907379    0.368501
H      0.346539   -0.744931    1.474433
H      0.777468   -1.869681    0.081334
C      1.295143    0.238117   -0.105609
H      2.129111    0.359393    0.605758
H      1.784643   -0.016348   -1.101458
