14

O      2.596135    0.477634   -0.341457
N      1.724878    0.312447    0.676114
C      0.362800   -0.019902    0.280058
C     -0.651093    0.732630    0.019865
O     -0.805162    2.151365    0.025486
H     -1.410488    2.521090   -0.692942
C     -1.523603   -0.395707   -0.265523
H     -1.935245   -0.421136   -1.312453
H     -2.370100   -0.395167    0.494462
C     -0.379914   -1.241311    0.028080
H     -0.046854   -1.798847   -0.888160
H     -0.438492   -1.906543    0.927412
H      1.980279    0.409419    1.680160
H      2.896859   -0.425971   -0.631103
