13

C     -0.965427    1.455975    0.110545
C     -0.275709    0.116209   -0.005743
C      0.962132   -0.177035   -0.229393
O      2.117445    0.631875   -0.445797
H      2.609123    1.033378    0.333403
N      0.702159   -1.534454   -0.172364
H      1.324176   -2.368361   -0.279867
C     -0.654254   -1.287368    0.073218
H     -1.074671   -1.628377    1.050034
H     -1.363415   -1.518472   -0.768915
H     -0.667718    1.989175    1.019460
H     -0.662471    2.025432   -0.792030
H     -2.051371    1.262023    0.107448
