10

C      0.023775    0.037393   -0.816346
H      0.038415    0.141063   -1.831694
C      1.227066   -0.080211    0.178877
H      2.090474    0.568723   -0.018594
H      1.331441   -1.030760    0.716920
C     -0.118720    0.695735    0.391187
H     -0.268094    1.599669    0.840576
C     -1.156010   -0.440645    0.099212
H     -1.007402   -1.392911    0.624844
H     -2.160946   -0.098056   -0.184982
