15

C      2.139248   -0.633381    0.289505
C      1.242068    0.052119   -0.676877
O     -0.113131    0.026466   -0.333406
C     -0.777711    0.939900    0.148686
N     -2.147188    0.742428    0.437655
C     -2.725098   -0.568235    0.143863
H     -2.405510   -1.225430    0.987654
H     -2.268260   -0.883996   -0.820864
H     -2.766328    1.493803    0.852985
H     -0.346409    1.898634    0.361364
H      1.322558   -0.441007   -1.689486
H      1.617986    1.093173   -0.841401
H      1.607054   -1.197124    1.082393
H      2.788612   -1.374075   -0.252765
H      2.832112    0.076724    0.763791
