13

O      3.028773   -0.069019   -0.294824
C      1.818615    0.159545   -0.384397
C      1.037931    0.476116    0.838019
O     -0.287883    0.675199    0.472778
C     -0.870875   -0.436849   -0.112154
N     -2.246887   -0.159189   -0.463380
H     -2.357533    0.166497   -1.438592
H     -2.745889    0.416959    0.243186
H     -0.918381   -1.267021    0.652755
H     -0.380666   -0.788923   -1.036203
H      1.107157   -0.399238    1.549459
H      1.427139    1.395289    1.343679
H      1.388499    0.115119   -1.370328
