15

C      1.922757    0.047267    0.426255
C      0.918252    0.068332   -0.721365
N     -0.457977   -0.027542   -0.238300
C     -1.298101   -1.090702    0.142208
H     -0.933612   -1.742052    0.907678
H     -1.684120   -1.582613   -0.819170
C     -2.551551   -0.344075    0.647384
N     -2.362868    0.833492    0.471483
C     -1.206748    1.192555   -0.009767
H     -0.846785    2.166937   -0.252478
H      1.027414    0.976000   -1.285424
H      1.092434   -0.804210   -1.397088
H      2.347130    1.096872    0.510217
H      2.697111   -0.673925    0.283661
H      1.336664   -0.116338    1.334705
