13

C     -1.203479    0.093065    0.422762
H     -0.805167    0.024792    1.467176
H     -2.129778    0.721166    0.372889
C     -0.178216    0.341396   -0.589972
C      1.222789    0.653655   -0.078782
O      1.552107   -0.156853    0.986280
H      2.361483   -0.667461    0.815987
H      1.912179    0.426423   -0.915177
H      1.317542    1.732228    0.144993
H     -0.523502    1.087582   -1.354667
N     -0.395936   -0.947922   -1.041661
C     -1.259626   -1.202580   -0.213039
H     -1.870397   -2.105489   -0.016789
