16

C      1.703159   -0.112156    0.660765
H      2.806740   -0.194467    0.611247
H      1.351250    0.265273    1.638009
C      0.910953   -0.790348   -0.319005
H      1.419706   -1.541204   -0.976398
C     -0.574232   -0.942769   -0.260812
C     -1.064867   -1.562357    1.023766
H     -1.949093   -0.955853    1.344591
H     -0.947519   -1.591782   -1.085740
C     -1.174696    0.425808   -0.487713
H     -1.623647    0.540596   -1.488721
H     -1.993826    0.595041    0.256691
C     -0.009173    1.340255   -0.280194
H     -0.036935    2.255469   -0.894529
H     -0.006395    1.667139    0.798563
N      1.188575    0.601356   -0.540518
