13

C     -0.751012    0.210584   -0.921350
H     -1.638660    0.023027   -1.523007
H      0.148405    0.591415   -1.432319
C     -0.962624    0.920601    0.377197
H     -1.620984    1.751709    0.441712
O     -1.357756   -0.305932    0.918458
C     -0.414417   -0.883747    0.100533
H     -0.500670   -1.892900   -0.214454
C      0.917431   -0.366596    0.596990
O      1.774297   -0.305243   -0.475546
H      2.650190    0.041687   -0.235639
H      1.292533   -0.864412    1.479908
C      0.463266    1.079809    0.887517
