15

O     -1.722831   -1.107501    0.334831
C     -1.364270   -0.002476   -0.452015
C     -1.897831    1.259259    0.187526
H     -1.024086    1.908369    0.463703
C      0.127981    0.068023   -0.676539
H      0.438783    0.528365   -1.638623
C      1.071494    0.187376    0.444444
O      2.326265    0.753147    0.182575
H      2.377681    1.687490    0.529844
H      0.661257    0.359913    1.461437
C      0.879700   -1.167101   -0.192179
H      0.320805   -1.918335    0.399045
H      1.635158   -1.572284   -0.871657
H     -1.875324   -0.122168   -1.426077
H     -1.954783   -0.862078    1.253685
