14

C      2.163217   -0.206720   -0.147071
C      2.245646   -0.881591    0.983489
C      0.822365    0.003490   -0.734508
C     -0.167983    0.357702    0.355741
H      0.213868    1.014085    1.154889
C     -1.570918    0.593785   -0.135193
H     -2.101397    1.463432    0.296919
H     -1.858121    0.347773   -1.166935
C     -1.242164   -0.582700    0.730969
H     -1.283031   -1.615321    0.285415
H     -1.668193   -0.548558    1.736203
H      0.508150   -0.920775   -1.264082
H      0.872585    0.812708   -1.499479
H      3.065978    0.162689   -0.596357
