12

N      1.915885   -0.236554   -0.014356
C      0.476430   -0.181513   -0.032698
C     -0.316516    0.928599    0.197649
H      0.083888    1.909760    0.424661
N     -1.622328    0.598448    0.096359
H     -2.443103    1.232863    0.220184
C     -1.647246   -0.718223   -0.197376
O     -2.847013   -1.405906   -0.376028
N     -0.386229   -1.190322   -0.275690
H      2.336939    0.322917   -0.772945
H      2.176875   -1.240046   -0.204466
H      2.272417   -0.020022    0.934706
