11

N      2.223813    0.165953    0.075756
C      0.938035    0.196783    0.129925
C      0.150070   -0.800130   -0.627188
H      0.430180   -1.842903   -0.319635
H      0.370164   -0.763279   -1.716931
C     -1.269048   -0.637413   -0.467141
C     -1.867727    0.249703    0.237080
H     -2.953407    0.238971    0.254338
N     -1.109628    1.206632    0.963702
O      0.257918    1.138830    0.878808
H      2.829630    0.846853    0.591287
