12

C     -2.125998   -0.203980    0.257966
O     -0.730892   -0.384269    0.179877
C      0.054375    0.594320    0.162181
N      1.452851    0.449835    0.084774
C      2.042964   -0.871290    0.021461
H      1.915153   -1.329042    1.019683
H      3.152846   -0.784613   -0.142950
H      2.094556    1.298774    0.071542
H     -0.333382    1.602229    0.207177
H     -2.588860   -0.870856    1.022087
H     -2.317874    0.859216    0.509799
H     -2.615740   -0.360325   -0.745827
