15

C     -1.588374   -1.028326   -0.169562
C     -0.848477    0.220407    0.062205
C      0.522266    0.373655   -0.417654
N      1.434351   -0.589430    0.130648
C      2.674603   -0.369521    0.003462
H      3.034445    0.508677   -0.498137
H      3.392936   -1.063870    0.398674
H      0.952008    1.371258   -0.156186
H      0.559967    0.210443   -1.530273
C     -1.437021    1.197015    0.706993
H     -2.452908    1.110890    1.074169
H     -0.961318    2.155663    0.921576
H     -1.759797   -1.488834    0.848664
H     -2.564946   -0.855717   -0.664575
H     -0.957735   -1.752310   -0.710004
