16

C     -1.817210   -0.801279    0.560824
C     -0.668011   -0.571613   -0.389250
C     -0.124123    0.786955   -0.321728
O     -0.872608    1.929480   -0.588383
H     -0.879413    2.355326   -1.518589
C      1.146656    0.941869    0.010155
C      2.039068   -0.207437    0.315732
H      1.657965   -0.804824    1.174766
H      3.086218    0.114921    0.478569
H      2.095706   -0.926786   -0.552343
H      1.578780    1.925429    0.069429
H      0.125076   -1.320815   -0.211580
H     -1.020942   -0.767460   -1.443227
H     -2.080533    0.096976    1.149429
H     -1.549383   -1.610279    1.272789
H     -2.717246   -1.140463   -0.006591
