10

N      2.064368   -0.052031    0.055329
C      0.626103   -0.019464    0.013101
C     -0.217392   -1.072776    0.300129
N     -1.464990   -0.597903    0.133651
H     -2.366364   -1.126507    0.266814
C     -1.409658    0.678410   -0.236163
H     -2.285575    1.306015   -0.438578
O     -0.145156    0.992916   -0.298805
H      2.545561    0.211906    0.944311
H      2.653102   -0.320568   -0.739789
