17

C      1.987942    0.317388   -0.546969
C      0.915723   -0.461232    0.174408
H      1.199027   -1.545705    0.329652
C      0.241037    0.135435    1.370190
H      0.401502    1.206733    1.565025
H     -0.061397   -0.479965    2.215499
C     -0.457382   -0.128289    0.142148
C     -1.671729   -1.039509    0.027292
H     -2.009060   -1.561331    0.911975
H     -1.465346   -1.808904   -0.762593
C     -2.453015    0.079948   -0.627351
C     -1.207815    0.941287   -0.641575
H     -0.830986    0.992513   -1.683066
H     -1.252941    1.955404   -0.228223
H      1.866559    1.410404   -0.396842
H      1.836315    0.067569   -1.624862
H      2.961567   -0.081748   -0.224706
