12

C     -0.429322   -1.248484    0.024205
C      0.065272    0.192251   -0.121747
C     -1.129320    1.057862   -0.086031
O     -1.266194    1.909514    0.763450
H     -1.897182    0.927815   -0.834294
C      0.998274    0.550383    1.008123
O      2.295463    0.688563    0.572306
H      2.425836    0.358417   -0.346756
H      0.588913    0.234106   -1.100927
H     -1.072057   -1.283637    0.918407
H      0.443472   -1.929226    0.100872
H     -1.023154   -1.457563   -0.897609
