10

N     -1.929957   -0.488582    0.104886
C     -1.046804    0.615261   -0.046387
O     -1.246771    1.717149    0.511486
N      0.110226    0.467739   -0.861877
C      1.234833    0.129793   -0.348129
C      2.230858   -0.139994    0.486911
H      2.378969   -1.182475    0.658957
H      2.771403    0.679125    0.895635
H     -1.548108   -1.416227    0.397551
H     -2.954647   -0.381790   -0.073214
