13

C      2.680155   -0.518197    0.538017
O      1.459782    0.137068    0.558955
C      0.625038    0.053204   -0.383821
C     -0.639181    0.813205   -0.216072
H     -0.460324    1.828556    0.181503
O     -1.550360    0.704698   -1.275750
C     -2.445359   -0.050424   -0.548469
H     -3.417304   -0.528763   -0.690260
C     -1.640956    0.004938    0.497266
H     -1.674316   -0.383642    1.507062
H      0.787323   -0.521608   -1.263846
H      3.268207   -0.554512   -0.344227
H      3.007296   -0.984523    1.439643
