13

N      0.817365    1.538998    1.423415
C      0.874010    0.381087    0.600881
O      1.845658    0.248929   -0.170339
C     -0.239905   -0.595004    0.722719
O     -0.051269   -1.697579   -0.155048
C      0.018999   -1.393196   -1.503094
N     -0.890276   -0.651284   -2.003512
H     -0.890374   -0.390621   -3.002555
H     -1.649263   -0.299554   -1.395626
H     -0.213520   -0.978372    1.776610
H     -1.199838   -0.089080    0.583009
H      1.175484    1.528048    2.402652
H      0.402928    2.397629    1.005375
