15

C      1.997512   -0.566368    0.117074
O      0.905876   -0.062845    0.795424
C     -0.159285    0.272740   -0.018085
C      0.140711    1.330409   -1.063476
H     -0.264187    2.314017   -0.708481
C     -1.012107   -0.778889   -0.550796
H     -1.276151   -0.717408   -1.640847
H     -0.763382   -1.845511   -0.278499
O     -2.079009   -0.393799    0.198848
C     -1.373426    0.624834    0.764212
H     -1.225952    0.412882    1.870308
H     -1.779587    1.649976    0.587835
H      2.428816    0.113220   -0.619626
H      2.770181   -0.808275    0.876496
H      1.689989   -1.544983   -0.330387
