16

C      2.528797   -0.126459   -0.258542
C      1.079157   -0.067518    0.109788
C      0.191651   -1.003151   -0.162712
C     -1.120571   -0.588455    0.355902
C     -2.050841   -0.424447   -0.829173
H     -2.427564   -1.410719   -1.112896
H     -1.456040   -0.049775   -1.706193
H     -2.834040    0.333177   -0.639966
H     -1.539087   -1.302581    1.094700
C     -0.865541    0.735697    0.975043
H     -1.619833    1.335218    1.458222
N      0.500119    1.025526    0.805044
H      0.996893    1.896587    1.135621
H      3.118009    0.615062    0.307709
H      2.571315    0.186600   -1.340033
H      2.927574   -1.154761   -0.192514
