10

N     -1.084889   -0.921222   -0.171596
C     -0.413911    0.205208    0.364001
C      1.025052    0.296157    0.211700
N      1.730489   -0.596654   -0.387619
H      2.766177   -0.534409   -0.499026
H      1.515769    1.160889    0.626429
N     -1.088309    1.074552    0.945628
N     -1.723488    2.036029    1.420550
H     -0.771943   -1.906621   -0.019215
H     -1.954946   -0.813929   -0.765032
