19

C      3.048020    0.245249   -0.285605
C      1.782935   -0.571355   -0.150296
O      0.671125    0.232793    0.109264
C     -0.424988   -0.624305    0.212743
C     -1.705801    0.116627    0.494494
C     -2.816167   -0.906955    0.584953
H     -3.291937   -1.027892   -0.399452
C     -2.017004    1.164491   -0.523605
H     -3.048270    1.535808   -0.315716
H     -1.315757    2.022793   -0.390278
H     -2.003221    0.745684   -1.539906
H     -1.627894    0.633353    1.490920
H     -0.567591   -1.245042   -0.696572
H     -0.269465   -1.330094    1.057081
H      1.594852   -1.118578   -1.081701
H      1.885805   -1.243525    0.742553
H      2.780659    1.213665   -0.744584
H      3.773756   -0.259991   -0.956477
H      3.550943    0.417275    0.688293
