14

N      3.438769    0.735591    0.333458
C      2.349787    0.158134    0.023263
C      1.212270   -0.501991   -0.140743
C     -0.014826    0.253128    0.100809
C     -1.234859   -0.624912    0.248284
C     -2.423389    0.234729    0.489552
O     -2.318946    1.441350    0.541321
H     -3.416879   -0.175397    0.626999
H     -1.369957   -1.151568   -0.720599
H     -1.132173   -1.356627    1.079393
H     -0.196057    0.883101   -0.809043
H      0.102059    0.901060    0.998615
H      1.312542   -1.515121   -0.431403
H      3.691660    0.718522    1.361405
