14

C     -1.562203   -0.909805    0.374920
C     -0.456626    0.060670   -0.027814
C      0.899368   -0.515713   -0.227003
O      1.705575   -1.382480   -0.424411
C      2.379815   -0.246586   -0.308907
H      2.619707    0.436914   -1.168262
H      2.830492    0.047655    0.664484
N     -0.548369    1.372124    0.628415
H      0.364793    1.845737    0.854970
C     -0.817154    1.247002   -0.812081
H     -1.887955    1.424611   -1.052509
H     -2.318676   -0.906043   -0.428504
H     -2.039091   -0.560106    1.335843
H     -1.169676   -1.913979    0.590860
