13

O      1.712816   -0.294511   -0.787851
C      1.503965    0.004423    0.553437
C      0.038599    0.213628    0.826362
H     -0.136546    0.332695    1.909250
C     -0.535924    1.325081    0.033258
C     -1.502888    0.853335   -0.735499
H     -2.103996    1.455649   -1.429820
C     -1.671390   -0.582191   -0.542386
H     -2.374487   -1.246328   -1.023723
C     -0.775077   -0.905423    0.354001
H      1.836508   -0.836971    1.194220
H      2.037626    0.920855    0.863050
H      1.970796   -1.240241   -0.929814
