14

O      3.296873    0.408878    0.286290
C      1.908723    0.449838    0.137001
C      0.767625    1.007313    0.004094
N     -0.254187    0.050145   -0.062045
C     -1.302695   -0.705360   -0.075651
H     -2.069750   -0.317472   -0.813656
H     -1.854973   -0.759893    0.902378
H     -1.208908   -1.772518   -0.426228
C      0.989979   -0.733437    0.082060
H      1.085410   -1.236299    1.100260
H      1.185142   -1.451936   -0.739390
C     -0.565813    1.410165   -0.126297
H     -0.980917    1.738185   -1.050893
H     -0.996508    1.912390    0.782077
