18

C     -1.475209   -0.419317   -0.847450
N     -0.370555   -0.039727    0.029368
C     -0.487788   -0.750225    1.282824
H     -0.351180   -0.088678    2.161725
H     -1.514286   -1.169949    1.356191
C     -0.492276    1.406918    0.229895
H      0.397528    1.699441    0.820295
H     -0.508987    1.844901   -0.786536
H     -1.432137    1.561176    0.787230
C      0.878885   -0.235103   -0.607711
O      0.857706   -0.211440   -1.828874
C      2.168774   -0.458536    0.049740
H      2.993397    0.180880   -0.375381
H      2.524836   -1.509503   -0.123140
H      2.183762   -0.292686    1.128454
H     -2.262309    0.370660   -0.872334
H     -1.979731   -1.343612   -0.503489
H     -1.130431   -0.545200   -1.900806
