12

O     -0.782921   -0.530551   -0.018918
C     -0.099287    0.720920    0.003359
C      1.367661    0.511456   -0.002226
C      1.855266   -0.716987   -0.025448
H      2.927552   -0.899722   -0.030077
H      1.230992   -1.603804   -0.041068
H      1.999230    1.381543    0.013082
H     -0.445967    1.342452   -0.843274
H     -0.351418    1.178476    0.991265
C     -2.167740   -0.529952   -0.017297
O     -2.763301    0.571988    0.003711
H     -2.770067   -1.425819   -0.033109
