15

C      1.158450    0.539848   -0.467807
H      0.921920    0.725266   -1.581818
H      2.101510    1.012881   -0.194325
C      1.034736   -0.920190   -0.207406
H      1.914045   -1.261687    0.417221
H      0.860836   -1.589832   -1.050456
C     -0.149220   -0.646182    0.661320
H     -0.108890   -0.945485    1.708076
C     -1.437126   -0.949843   -0.057786
H     -1.834552   -1.921392   -0.208694
O     -1.943469    0.104683   -0.428158
C     -1.259924    1.236942   -0.134527
H     -1.561650    2.300749   -0.289479
C      0.008956    0.870257    0.444516
H      0.294377    1.443985    1.389324
