11

C     -0.956968   -0.746407    1.986229
N     -0.531576   -1.099485    0.623999
C     -0.329666   -0.147407   -0.216049
N      0.083626   -0.360900   -1.561882
N      1.015350    0.458281   -2.121810
C      1.822635    1.144636   -2.589530
H      2.560866    1.791574   -3.034599
H     -0.473877    0.883508    0.088208
H     -1.566006    0.196975    1.897070
H     -1.570290   -1.521252    2.445401
H     -0.054095   -0.599521    2.578792
