14

C      1.826115    0.462607    0.488077
C      1.025474   -0.506426   -0.378249
H      1.705706   -1.216090   -0.943223
O      0.087522    0.082012   -1.160629
C     -0.929764   -0.544637   -0.517921
C     -1.908816    0.386540    0.198160
H     -1.910928    1.391383   -0.250481
H     -1.606999    0.426974    1.268111
H     -2.896643   -0.113615    0.162390
H     -1.458162   -1.225151   -1.246271
C     -0.000329   -1.245009    0.395506
H      2.737522   -0.042425    0.812151
H      1.212452    0.815800    1.315979
H      2.116850    1.328038   -0.143599
