13

C      1.827499    0.851094    0.152020
N      1.458368   -0.486699    0.349122
C      0.043754   -0.616989    0.253240
O     -0.538695   -1.632318    0.714087
O     -0.729635    0.376026   -0.352856
C     -2.149077    0.236555   -0.444511
H     -2.507710   -0.577300    0.220404
H     -2.653134    1.168009   -0.066311
H     -2.468604    0.055477   -1.479781
H      1.883675   -1.191209   -0.276214
H      1.706800   -0.781937    1.338947
H      2.791297    1.182689    0.498441
H      1.335462    1.416603   -0.622100
