15

C      1.700945    0.399433   -0.390086
C      0.359929   -0.082690    0.044823
C     -0.809747    0.524961    0.228959
N     -1.096902    1.996142   -0.036412
H     -1.074981    2.666178    0.541482
H     -1.570836    2.073128   -1.033842
O     -1.716901   -0.270748    0.682641
N     -1.250292   -1.536320    0.597009
H     -1.810114   -1.776940   -0.399167
C      0.119726   -1.582824    0.462535
H      0.274740   -2.101778   -0.687496
H      0.722579   -2.009224    1.109440
H      2.439658   -0.417033   -0.448799
H      1.570518    1.127695   -1.162387
H      2.141677    0.990022    0.491298
