12

C     -0.929132    0.731478    0.608149
N     -0.981424    1.031602    2.037141
H     -0.448237    1.897375    2.227896
H     -0.565397    0.264539    2.608061
N     -0.659742   -0.684753    0.496022
C     -0.077916   -1.103313   -0.569442
C      0.602415   -1.210964   -1.692791
C      2.015574   -1.006815   -1.704352
N      3.158848   -0.822015   -1.719271
H      0.029521   -1.452435   -2.568399
H     -0.204883    1.367601    0.101739
H     -1.939629    0.987699    0.175247
