11

O      2.339234   -0.737664   -0.218074
C      0.991197   -0.399250   -0.120022
C      0.019274   -1.259182    0.112540
C     -1.299108   -0.579128    0.157230
H     -1.877012   -0.945449   -0.708996
H     -1.827362   -0.747314    1.132317
C     -0.989498    0.845006   -0.085490
H     -1.729134    1.634453   -0.120287
N      0.427409    0.900324   -0.248807
H      0.963525    1.767723   -0.434762
H      2.981477   -0.479521    0.534352
