14

C     -1.802130   -0.012136    0.712383
C     -0.935733    0.373639   -0.434492
C      0.530379    0.474866   -0.093019
N      1.043276   -0.778864    0.388014
C      2.277625   -0.822409    0.727805
H      2.643415   -1.774455    1.086793
H      2.938778    0.033908    0.667884
H      0.743459    1.231404    0.677442
H      1.061815    0.759425   -1.025195
H     -1.021906   -0.436035   -1.207592
H     -1.260806    1.308597   -0.916342
H     -2.144745   -1.083404    0.673082
H     -2.738486    0.608071    0.740469
H     -1.334941    0.117391    1.704082
