11

O      1.651622    0.183044   -0.184149
C      0.297535    0.448204   -0.033696
O     -0.035844    1.780931    0.158814
H      0.735737    2.270561    0.538040
C     -0.616840   -0.456979   -0.761655
H     -1.527362   -0.034906   -1.246283
H     -0.201094   -1.341155   -1.280310
C     -0.534533   -0.524814    0.740334
H     -1.467693   -0.164698    1.240608
H     -0.091175   -1.388785    1.245843
H      1.789646   -0.771402   -0.417545
