10

O      2.422360    0.260491    0.251090
C      1.025045    0.090223    0.112508
C      0.314968   -0.966856    0.282440
H      0.540696   -1.997159    0.566794
N     -0.859835   -0.307745   -0.032812
H     -1.248851   -0.655577   -0.956578
H     -1.599284   -0.288294    0.721835
C     -0.128457    0.887435   -0.234127
H     -0.290245    1.676782    0.555881
H     -0.176395    1.300698   -1.267031
