19

C      2.988421   -0.090036   -0.045949
C      1.612251    0.085650   -0.668170
C      0.604078   -0.141172    0.448763
C     -0.797615   -0.085448   -0.066970
C     -1.118457   -1.115547   -1.129396
H     -1.957940   -1.768042   -0.828247
H     -1.467817   -0.544963   -2.022274
H     -0.220833   -1.694701   -1.431624
C     -1.603859    1.137594   -0.087647
H     -1.124932    2.110738    0.143553
H     -2.427983    1.220204   -0.804916
C     -1.839748    0.157542    1.020400
H     -2.703804   -0.512848    1.026432
H     -1.491154    0.463856    2.027847
H      0.811224   -1.168334    0.856021
H      0.787109    0.557337    1.289115
H      3.403909   -1.060857   -0.354539
H      3.605157    0.756630   -0.435715
H      2.941992   -0.011491    1.063317
