11

C     -1.885848    0.402217   -0.053073
C     -0.414136    0.252144   -0.102409
C      0.453750   -0.639560    0.350957
H      0.337407   -1.560347    0.915072
C      1.576223    0.109522   -0.205352
N      2.848989   -0.047234   -0.231804
H      3.253931   -0.893410    0.238083
O      0.608736    1.010939   -0.655122
H     -2.220664    1.137866   -0.839131
H     -2.322945   -0.600722   -0.231956
H     -2.235445    0.828585    0.910566
