10

O      0.765961   -0.067671   -0.546125
C     -0.401366   -0.119408    0.207572
H     -0.275849   -0.280926    1.284775
C     -1.601856    0.519078   -0.287041
H     -2.504775    0.653367    0.330894
H     -1.581082    1.019753   -1.272886
O     -1.398813   -0.953212   -0.425681
C      2.007613   -0.212284    0.036184
O      2.122901   -0.395809    1.269527
H      2.867267   -0.162888   -0.597219
