12

O     -0.234868   -0.722204    1.735460
C     -0.724306   -0.562243    0.421667
C      0.047262    0.560983   -0.237534
C     -0.420531    0.763856   -1.592475
N     -0.777967    0.938929   -2.671708
C      1.485228    0.186764   -0.212404
O      2.068775    0.082603   -1.262569
H      1.967834    0.017824    0.759785
H     -0.084626    1.473843    0.403211
H     -1.813703   -0.357842    0.453102
H     -0.496922   -1.491051   -0.120759
H     -1.016176   -0.891462    2.324223
