14

O      0.267186    1.530771    0.753204
C      0.027085    0.339442    0.117128
C      1.223551   -0.262037   -0.621415
C      2.336622   -0.515407    0.365505
H      1.857164   -0.677358    1.352985
H      0.932075   -1.251218   -1.072792
H      1.491573    0.463712   -1.407889
C     -0.958530   -0.623962    0.678601
H     -0.744831   -1.705975    0.553532
H     -1.549773   -0.386001    1.587960
C     -1.332757    0.178795   -0.548746
H     -2.026719    1.030176   -0.442369
H     -1.365083   -0.377335   -1.512512
H     -0.157563    2.256397    0.196808
