10

N     -0.941107   -1.492424    2.223281
C     -0.733726   -0.732621    1.262850
C     -0.505861    0.135418    0.203918
C     -0.788017   -0.492336   -1.133097
O     -1.202981   -1.624596   -1.182957
H     -0.627718    0.049826   -2.045313
C      0.894762    0.636654    0.182424
C      2.019821    1.033280    0.145143
H      3.030689    1.408143    0.118529
H     -1.145861    1.078657    0.225222
