14

O      1.845590    0.237956   -0.549211
C      0.966589    0.750558    0.445931
H      1.409092    1.219709    1.329411
C     -0.343905    1.193803   -0.121522
H     -0.826649    2.016533    0.420571
H     -0.199684    1.520418   -1.183355
C     -1.185200   -0.050379   -0.105333
H     -1.860892   -0.016987   -0.993273
H     -1.800201   -0.094654    0.804449
C     -0.201585   -1.180320   -0.242178
H     -0.206408   -1.586160   -1.273333
H     -0.501522   -1.996975    0.454480
C      1.138188   -0.674882    0.204879
H      1.766586   -1.338620    0.808484
