11

C     -1.008154   -0.674598   -0.067905
C      0.122559    0.293532    0.268886
N      1.413249   -0.253315    0.067789
H      2.082069   -0.162629    0.838499
H      1.488264   -1.073973   -0.527859
N     -0.070267    1.500048   -0.460590
C     -0.215775    2.494587   -1.042918
H     -0.002587    0.574670    1.337138
H     -1.874270   -0.481644    0.609712
H     -0.654256   -1.713906    0.100983
H     -1.280833   -0.502772   -1.123736
