12

N      2.414847    0.176299   -0.049222
C      1.017142   -0.090046    0.011775
C      0.389072   -1.220008    0.263362
N     -0.996135   -1.016199    0.220020
H     -1.405434   -1.553007   -0.566429
H     -1.492732   -1.313597    1.081696
C     -1.171178    0.361543   -0.085466
O     -2.332796    1.085655   -0.244565
H     -2.312565    2.115556   -0.268771
N      0.001796    0.873722   -0.200709
H      2.764745    1.009194   -0.571100
H      3.123238   -0.429113    0.409409
