9

C      0.013027    0.436496    0.427510
C     -0.991039    0.014928   -0.582851
H     -0.444697   -0.359313   -1.469804
H     -1.527670   -0.876696   -0.154991
H     -1.713340    0.821211   -0.817238
O     -0.215190    1.375654    1.242410
C      1.279257   -0.253900    0.468348
O      1.558452   -1.183646   -0.307191
H      2.041199    0.025267    1.193807
