16

C      1.781131    0.098843    0.846806
C      0.586103   -0.664685    0.365271
C     -0.577202    0.246175    0.024723
C     -0.212288    1.206877   -1.045802
O     -0.805097    1.249543   -2.121476
H      0.592971    1.888695   -0.883334
C     -1.788713   -0.570970   -0.354017
H     -1.955513   -0.531426   -1.447445
H     -2.694518   -0.261319    0.209755
H     -1.589061   -1.638824   -0.053682
H     -0.837572    0.854855    0.919634
H      0.887298   -1.250837   -0.524624
H      0.233187   -1.400948    1.115496
H      1.744900    1.179178    0.643177
H      2.730349   -0.279648    0.365108
H      1.904024   -0.125509    1.940409
