13

O      1.774703   -1.634368   -0.043276
C      0.924282   -0.519969   -0.074825
C     -0.499767   -0.845691    0.044142
C     -1.003187    0.628579    0.146814
H     -1.000112    1.157137    1.191150
O     -0.301984    1.252844   -0.776209
C      1.067149    0.899415   -0.240178
H      1.609486    1.592172    0.272648
H      1.466302    0.900150   -1.442382
C     -1.903434   -0.524683    0.151127
H     -2.558293   -1.025245    0.800497
H     -2.337718   -0.623767   -0.964547
H      2.762572   -1.256573    0.384785
