17

C      2.145663    0.641301   -0.445283
C      0.690966    0.495961   -0.857358
C      0.023759   -0.392803    0.144958
C     -1.422400   -0.637629   -0.119228
C     -2.236977    0.591896   -0.128484
O     -3.432758    0.480764   -0.337897
H     -1.861703    1.595317    0.036227
H     -1.537170   -1.151768   -1.093441
H     -1.812000   -1.304424    0.665955
O      0.677745   -1.636989    0.098735
H      0.169295   -2.235066   -0.498299
H      0.181797    0.006316    1.169694
H      0.217990    1.497014   -0.878902
H      0.627781    0.052306   -1.861038
H      2.393021    1.714495   -0.325187
H      2.348787    0.152315    0.539867
H      2.826207    0.130995   -1.172343
