14

C     -0.052315    1.223836   -0.554014
H     -0.118550    2.193014   -0.977365
C      1.105774    0.823055    0.077005
H      1.952647    1.425558    0.193588
C      1.020552   -0.635955    0.384781
H      1.054972   -0.897639    1.431644
H      1.888204   -1.112310   -0.129729
C     -0.260071   -1.109045   -0.277423
H     -0.723545   -1.916994    0.300600
H     -0.034751   -1.467595   -1.314366
C     -1.039074    0.128558   -0.372078
O     -1.711279    0.311731    0.870822
H     -1.279742    0.901803    1.490471
H     -1.802822    0.131983   -1.123937
