14

C     -1.597874   -1.024148    0.655161
C     -0.298951   -0.670399    0.069464
N      0.535492   -1.509608   -0.432190
C      1.688902   -0.838400   -0.910277
H      2.525291   -1.328621   -1.371864
C      1.587633    0.451965   -0.709637
H      2.258953    1.262989   -0.938468
C      0.291496    0.651551   -0.060237
C     -0.252019    1.766115    0.333272
H     -1.220414    1.783318    0.802933
H      0.264318    2.720291    0.196117
H     -1.909955   -0.256705    1.420275
H     -2.354432   -0.980745   -0.158112
H     -1.518440   -2.027603    1.103564
