16

C      1.441744   -0.592652    0.726345
C      0.988052    0.288653   -0.391487
C     -0.466268    0.663979   -0.278081
C     -1.374123   -0.543211   -0.293974
O     -1.096118   -1.406804    0.762500
H     -1.515978   -1.080432    1.577531
H     -1.386399   -1.052227   -1.271125
H     -2.411958   -0.155203   -0.116061
C     -0.832759    1.600307   -1.405091
H     -0.259781    2.544175   -1.317504
H     -0.612333    1.192466    0.682801
H      1.567830    1.238793   -0.323983
H      1.241491   -0.154755   -1.368635
H      2.554728   -0.522816    0.797187
H      1.214300   -1.679836    0.536115
H      0.947571   -0.340437    1.683463
