14

C     -1.043554   -0.975028    0.317067
H     -1.768797   -1.569137   -0.293730
H     -1.506326   -0.858254    1.327962
C      0.283021   -1.595391    0.278086
C      1.436474   -0.598151    0.047277
H      2.374448   -1.026575    0.432216
H      1.637713   -0.635863   -1.131979
C      1.140628    0.803148    0.282217
H      1.938045    1.534583    0.606940
C     -0.043472    1.289331    0.056151
H     -0.260983    2.364183    0.231611
C     -1.116509    0.360556   -0.377822
H     -0.922564    0.142149   -1.462989
H     -2.148124    0.764450   -0.313007
