12

C      1.727383    0.086247   -0.195661
C      0.374694    0.529739    0.311845
H      0.459643    1.397279    0.991336
C     -0.297984   -0.552792    1.059781
N     -1.441073   -0.820731    0.539389
H     -2.165382   -1.535784    0.831164
C     -1.636327    0.036407   -0.578646
O     -2.661115    0.055932   -1.341223
O     -0.519082    0.849946   -0.698814
H      1.672317   -0.947761   -0.575088
H      2.056531    0.744854   -1.002207
H      2.430396    0.156665    0.658124
