13

C     -1.317655   -0.700974    0.217971
C     -0.148343    0.170536    0.258571
H     -0.135040    0.681478    1.324378
C      1.199460   -0.402840    0.242384
H      1.230615   -1.070589   -0.799969
H      1.519541   -1.009204    1.025538
O      2.056445    0.639097   -0.251819
C      1.313842    1.590624   -0.700287
N     -0.045539    1.222374   -0.687611
H     -0.766298    1.607932   -1.347849
H     -1.404242   -1.252239    1.180713
H     -1.277283   -1.418887   -0.623883
H     -2.225503   -0.057310    0.161863
