16

C      1.740356    0.498875   -0.482757
C      0.673131   -0.560200   -0.382923
C     -0.577526   -0.109060    0.224135
N     -1.653561    0.366532   -0.601471
C     -0.911546    1.291593    0.343022
H     -1.531961    1.659857    1.179418
H     -0.539093    2.131141   -0.283997
C     -1.845490   -0.921150    0.029132
H     -2.479175   -0.983077    0.948988
H     -1.780720   -1.807271   -0.630875
O      0.520725   -1.379502   -1.486434
H      1.319701   -1.131145   -2.105036
H      1.136160   -1.352225    0.348100
H      2.182278    0.626634    0.513322
H      1.304270    1.488431   -0.794885
H      2.442451    0.180569   -1.274862
