15

C      1.525031    0.986433    0.233664
C      0.808195   -0.290125    0.513230
H      1.549920   -1.142844    0.350529
O      0.123929   -0.384067    1.652672
C     -1.002539   -0.663882    1.601307
C     -1.454436   -0.817857    0.224020
H     -2.044167   -1.700764   -0.109483
C     -1.452913    0.341034   -0.684134
H     -1.471017    1.337015   -0.283405
H     -2.015181    0.184347   -1.660444
C     -0.203433   -0.454037   -0.615608
H      0.054718   -1.182147   -1.457208
H      1.265222    1.942426    0.605509
H      2.627718    0.784406    0.540555
H      1.688954    1.060064   -0.911204
