9

O      2.444646    0.165438    0.163565
N      1.849588   -0.550900   -0.862895
C      0.570285   -0.670437   -0.770567
C     -0.687288   -0.709820   -0.423031
C     -1.594741    0.416808   -0.539975
O     -1.843326    1.063421    0.512786
H     -2.064519    0.733767   -1.455213
H     -1.048587   -1.637033   -0.027343
H      2.373941    1.188755    0.037016
