12

O      2.225828    0.236012   -0.371959
C      1.014906   -0.132072    0.220516
H      1.056364   -0.701797    1.172906
C     -0.152719   -0.451237   -0.644140
H     -0.055384   -0.641016   -1.713743
C     -1.472297   -0.610929    0.054559
H     -1.518038   -1.425481    0.794670
H     -2.364605   -0.578196   -0.603283
O     -1.299382    0.636551    0.632275
C     -0.089715    0.851281    0.004525
H      0.087969    1.800436   -0.539176
H      2.567072    1.016449    0.146649
