9

N      1.902926   -0.518727    0.401586
N      0.576276   -0.131042    0.183363
C     -0.056750    0.964368   -0.066779
H      0.306147    1.978268   -0.186709
C     -1.349288    0.298231   -0.111950
H     -2.373445    0.590583   -0.279297
C     -0.672918   -0.808544    0.145108
H     -0.919663   -1.869121    0.286188
H      2.586713   -0.504018   -0.371510
