13

C      2.634047    1.287368    0.609337
N      1.552559    0.407443    0.494875
C      0.658391   -0.345981    0.402716
C     -0.441802   -1.269157    0.309678
N     -1.731407   -0.849340   -0.109173
C     -1.815613   -0.176836   -1.202262
O     -3.061433    0.248396   -1.639392
H     -3.801146   -0.445457   -1.642193
H     -2.539592   -1.107373    0.489238
H     -0.266000   -2.324438    0.572586
H      2.671274    1.726313    1.644206
H      2.531034    2.098153   -0.134215
H      3.609687    0.750909    0.489087
