14

C      1.477418   -0.076923    0.883002
C      0.943798    0.049911   -0.487880
O      1.747598   -0.059445   -1.416904
C     -0.497730    0.299419   -0.778878
C     -1.285343   -0.848553   -0.194578
H     -2.359208   -0.635392   -0.385205
H     -1.165123   -0.917686    0.901180
H     -1.040553   -1.814872   -0.639657
C     -0.886102    1.532322   -0.112375
N     -1.197128    2.522731    0.400289
H     -0.677428    0.314782   -1.872908
H      2.511290    0.361618    0.943089
H      0.861813    0.430504    1.649616
H      1.566697   -1.158415    1.111208
