12

N     -1.809882   -0.919745    0.115826
N     -0.457730   -0.556575    0.066015
C      0.582902   -1.430630   -0.021175
C      1.738031   -0.681778   -0.045134
H      2.746122   -1.053604   -0.109473
N      1.431003    0.625004    0.025022
H      2.100181    1.439987    0.027293
C      0.089833    0.663285    0.091294
O     -0.654389    1.837620    0.176911
H     -1.181462    2.173479   -0.598133
H     -2.348530   -0.749454    1.007820
H     -2.236080   -1.347591   -0.736267
