14

C      1.787087    0.481021   -0.176649
H      1.886449    1.357500    0.619154
H      2.693659    0.307587   -0.686505
C      0.823175   -0.467504    0.167032
H      1.111469   -1.520014   -0.149485
C     -0.367160   -0.328729    1.030121
H     -0.259847    0.639427    1.579406
H     -0.559666   -1.176776    1.705517
C     -1.475742   -0.212162    0.011434
H     -2.258678    0.513311    0.391925
H     -1.864012   -1.182801   -0.237008
C     -0.792553    0.379517   -1.164496
H     -1.230158    0.618936   -2.148640
C      0.505976    0.590688   -0.941805
