11

C      2.473487    0.109507    0.017340
C      1.164375    0.081400    0.072786
C     -0.111498    0.010520    0.022005
C     -1.364091   -0.673089   -0.428499
H     -1.563348   -1.651801    0.068701
H     -1.636920   -0.634918   -1.501099
C     -1.395776    0.572767    0.384285
H     -1.804209    1.486406   -0.125873
H     -1.680266    0.467206    1.451922
H      2.982122   -0.437646    0.785765
H      2.936124    0.669647   -0.781191
