14

C      1.658249    0.987622    0.370420
H      1.158026    1.635409   -0.366413
H      2.541617    1.447809    0.894906
C      1.742152   -0.470373    0.171961
H      2.595217   -1.063017    0.523161
H      1.313848   -0.878156   -0.791335
C      0.768269    0.112777    1.166294
C     -0.646164   -0.077367    0.844187
O     -1.136607   -0.154657   -0.249742
C     -2.511618   -0.336479   -0.300311
H     -2.837586   -0.124817   -1.313775
H     -2.937566    0.313039    0.479145
H     -2.725913   -1.395431    0.026170
H      1.018077    0.003642    2.246645
