12

N     -1.315382    0.982991   -0.252053
C     -0.819117   -0.370442   -0.065620
H     -1.538896   -1.176271    0.138637
C      0.480844   -0.385323    0.783742
H      0.474482   -0.982253    1.668424
C      0.464318   -0.778721   -0.612334
H      0.637021   -1.825982   -0.953970
N      1.480135    0.194135   -0.847751
C      1.495976    0.596042    0.382937
H      2.078345    1.356336    0.891916
H     -1.143654    1.345529   -1.205438
H     -2.294072    1.043958    0.071510
