12

C      1.811005    0.463005   -0.108153
H      1.737396    1.260091   -0.869761
H      2.643314    0.587398    0.628056
C      1.758641   -0.991325   -0.614248
C      0.661418   -0.371480    0.279182
C     -0.653087   -0.235759   -0.425772
H     -0.648062   -0.186713   -1.512690
O     -1.631015   -1.176111    0.146621
C     -1.878586    0.181590    0.270466
H     -2.720261    0.537133   -0.342024
H     -1.758179    0.701609    1.221973
H      0.677415   -0.769440    1.326350
