14

C      1.574449   -0.312054    0.174499
C      0.340952    0.237686   -0.507219
H      0.583253    0.532096   -1.537739
C     -0.783910   -0.760407   -0.407323
H     -1.239756   -0.988727   -1.402879
H     -0.473752   -1.676311    0.125573
C     -1.782710   -0.063048    0.414703
H     -2.741879   -0.461660    0.709415
O     -1.290789    1.172655    0.741122
C     -0.158376    1.393804    0.277669
H      0.365123    2.339375    0.453943
H      2.297040    0.485175    0.394775
H      1.252329   -0.875646    1.074547
H      2.058026   -1.022940   -0.511086
