10

O     -0.866827   -1.289512    0.028072
C      0.305281   -1.571258    0.060524
C      1.172093   -0.351086   -0.004236
H      2.159680   -0.409831   -0.467047
C      0.237999    0.735358   -0.044154
H      0.361756    1.716340   -0.509364
C     -1.110022    0.044171   -0.029438
H     -1.606009    0.260621   -0.990469
H     -1.663979    0.388322    0.851070
O      1.010028    0.476875    1.105041
