18

C     -2.469878    0.625912   -0.180126
C     -1.969648   -0.785787    0.000611
C     -0.586596   -0.748098    0.569221
O      0.308734   -0.052009   -0.295759
C      1.632852    0.081595    0.069366
N      2.044435   -0.266579    1.231955
H      3.059565   -0.170809    1.529787
C      2.592019    0.639271   -0.906931
H      3.421555    1.101626   -0.346386
H      2.112491    1.406954   -1.573997
H      2.968071   -0.190173   -1.516913
H     -0.168535   -1.751652    0.752208
H     -0.632371   -0.125498    1.502787
H     -2.615319   -1.329029    0.721475
H     -1.984219   -1.326651   -0.974024
H     -2.256038    1.176538    0.760887
H     -3.561002    0.600344   -0.368987
H     -1.896116    1.114044   -0.975174
