13

C     -1.944575    0.988245    0.031076
C     -1.057331   -0.229165    0.291511
O      0.245343    0.171558   -0.100609
C      1.348685   -0.693310   -0.006479
O      1.073298   -1.829575    0.448582
C      2.675712   -0.285487   -0.405756
C      3.673596   -1.131416   -0.298044
H      2.863018    0.697496   -0.789682
H     -1.133299   -0.521597    1.335769
H     -1.333256   -1.080677   -0.362252
H     -2.794892    1.028915    0.743693
H     -2.277463    0.960972   -1.026755
H     -1.338837    1.924041    0.138944
