12

N      0.623385    1.485980   -0.186368
H      0.644215    1.842892    0.794909
C      1.684927    0.524775   -0.342124
C      0.979972   -0.837452   -0.012146
H      1.564365   -1.697457   -0.260507
O      0.408677   -0.666459    1.248212
C     -0.804282   -0.342491    0.700923
H     -1.773799   -0.609492    1.054513
C     -0.664569    0.809410   -0.325387
H     -1.537880    1.333700   -0.685048
C     -0.314406   -0.575451   -0.644685
H     -0.810604   -1.267953   -1.342293
