12

C     -0.187058   -1.146330   -0.268723
H     -0.267986   -2.125645    0.134993
C      1.112841   -0.403621   -0.082931
H      1.382625   -0.600297    1.071711
H      1.909017   -0.686700   -0.678932
C      0.697152    1.000859    0.031231
H      1.447895    1.865051    0.195313
C     -0.583168    1.198242    0.131363
H     -1.152919    2.154176    0.228199
C     -1.184667   -0.145010   -0.072909
H     -2.141476   -0.318395    0.601500
O     -1.032256   -0.792329   -1.290815
