11

N     -0.086381    1.466941   -0.155388
C     -0.075279    0.078867    0.215671
O      0.969391   -0.487831    0.836520
C      1.995269   -0.867576    0.358448
H      2.294327   -0.833630   -0.671046
O     -1.301194   -0.170625    1.059888
C     -1.221549   -0.769224   -0.197598
H     -1.096201   -1.857539   -0.269823
H     -1.975781   -0.370754   -0.908311
H     -0.061629    2.123686    0.646890
H      0.559027    1.687685   -0.915251
