17

C      2.318568    0.302697    0.193412
C      0.954154   -0.290811    0.097130
C      0.369151   -1.156065    0.883640
H      0.825344   -1.590228    1.779089
O     -0.929563   -1.436243    0.523754
C     -1.285417   -0.513057   -0.484421
C     -2.010086    0.639496    0.273045
H     -2.667462    1.135843   -0.468322
H     -2.620709    0.233074    1.101434
H     -1.309525    1.403312    0.648271
H     -1.877492   -0.896054   -1.287251
C     -0.000788    0.074832   -0.965420
H     -0.001563    1.174807   -1.049309
H      0.326345   -0.399172   -1.911428
H      2.997906   -0.346667   -0.408925
H      2.579658    0.318843    1.264498
H      2.331479    1.345392   -0.189200
