19

C     -1.254980   -0.548193    1.372704
C     -1.470281   -0.432644   -0.099688
H     -2.433905   -0.900287   -0.415966
C     -1.002385    0.859069   -0.654842
H     -1.704898    1.469463   -1.271486
C      0.352784    1.330159   -0.298481
H      0.526455    1.428695    0.798500
H      0.638243    2.335527   -0.743851
C      0.916272    0.110292   -0.882190
C      1.953554   -0.647431   -0.204938
H      1.980983   -0.635082    0.905275
H      1.919843   -1.706116   -0.571010
H      2.977876   -0.226729   -0.527528
H      1.348404    0.430023   -1.916038
C     -0.427177   -0.403027   -1.138812
H     -0.636448   -0.868303   -2.139621
H     -0.229909   -0.445517    1.715120
H     -1.661816   -1.488102    1.754625
H     -1.792613    0.338205    1.849802
