15

C      2.592296   -0.077851    0.232080
C      1.293695    0.297318   -0.395312
N      0.235032   -0.186430    0.133197
C     -1.085578    0.091114   -0.367858
C     -1.996876   -0.950826    0.243036
H     -3.058029   -0.714506    0.156984
H     -1.710836   -1.923170   -0.207818
H     -1.735411   -1.008575    1.319324
C     -1.516609    1.439167    0.045528
N     -1.841931    2.512745    0.361691
H     -1.150302    0.051174   -1.464218
H      1.199873    0.940370   -1.251897
H      2.840111    0.687143    1.009833
H      3.430109   -0.069111   -0.495504
H      2.504457   -1.088562    0.680934
