14

C      2.231867    0.680842    0.504072
C      0.707334    0.844140    0.611069
C      0.129978   -0.400349    0.016086
C     -1.267120   -0.699846    0.448762
C     -2.225602    0.373564    0.094437
O     -3.396383    0.271128    0.381025
H     -1.847803    1.235715   -0.419981
H     -1.351803   -0.924572    1.526743
H     -1.596511   -1.615034   -0.086121
H      0.767615   -1.259810    0.301608
H      0.161948   -0.309286   -1.078750
H      2.419594   -0.382227    0.808012
H      2.504624    0.798137   -0.555464
H      2.762262    1.387597    1.149814
