13

N      1.723877   -1.023685    0.420981
C      0.481142   -0.402935    0.178290
C     -0.712528   -1.008991    0.117051
H     -0.838962   -2.059319    0.251533
C     -1.740818    0.005812   -0.155430
H     -2.258174   -0.154529   -1.141252
H     -2.501971   -0.003461    0.627360
N     -0.987642    1.221554   -0.235907
C      0.272783    1.026884   -0.051922
O      1.210362    2.049409   -0.081932
H      0.995069    2.858779   -0.653934
H      2.302410   -0.747667    1.224344
H      2.054451   -1.761852   -0.214694
