8

C      1.490860   -0.092803   -0.188601
O      2.443007   -0.823509    0.190519
C      0.361241    0.541475   -0.040907
C     -0.958042   -0.157444   -0.039524
H     -0.818711   -1.084821   -0.619666
H     -1.757321    0.490994   -0.408780
H     -1.119416   -0.484767    1.020613
H      0.358382    1.610875    0.086346
