14

C     -0.853885    1.302308    0.112434
C     -0.328875   -0.129439    0.108858
C      1.104559   -0.276324    0.548002
C      2.000872    0.507235   -0.360325
H      2.940008    0.013504   -0.620692
H      1.347123   -1.373036    0.537375
H      1.224472    0.103323    1.579342
C     -0.989303   -1.118762   -0.670980
H     -0.442431   -2.005048   -1.052025
H     -1.896355   -0.840156   -1.277395
O     -1.177214   -1.087353    0.709971
H     -1.421726    1.497235   -0.829738
H     -1.513956    1.382251    1.003394
H      0.006709    2.024262    0.211779
