12

C      1.706290    0.102727    0.191627
N      0.254908    0.024835    0.014557
C     -0.813225    0.780293   -0.502841
H     -1.040662    1.673857    0.130648
H     -0.788460    1.010904   -1.594565
C     -1.641261   -0.334247   -0.094201
H     -2.712075   -0.594465   -0.128278
C     -0.630373   -0.998536    0.371319
H     -0.522321   -2.004864    0.866541
H      2.083166    1.106755   -0.146394
H      2.210373   -0.704836   -0.368671
H      1.893639   -0.062425    1.260257
