10

C     -1.297288    0.181888    0.327183
C     -0.036271   -0.629453    0.483492
C      1.117527   -0.004569   -0.119270
C      2.085926    0.544050   -0.627908
H      2.922115    1.027365   -1.055165
H     -0.167012   -1.676486    0.153639
H      0.168025   -0.692518    1.588892
H     -1.937778    0.075136    1.248683
H     -0.994049    1.251263    0.312150
H     -1.861196   -0.076676   -0.585876
