13

C     -1.261398   -0.656255   -0.518163
C     -0.506670    0.234693    0.433589
O     -1.116247    1.488011    0.451768
H     -0.503433    2.204863    0.141221
C      0.881686    0.373414   -0.075291
C      1.826644   -0.476953    0.277805
H      2.835916   -0.366005   -0.099607
H      1.590938   -1.282550    0.943170
H      1.086528    1.200115   -0.747253
H     -0.543501   -0.147691    1.474110
H     -0.913422   -1.703978   -0.447575
H     -2.344207   -0.561399   -0.288028
H     -1.032834   -0.306266   -1.545745
