13

C      1.685736   -0.011302   -0.023891
H      1.662864   -0.833069   -0.795065
H      2.576838   -0.089796    0.649857
C      0.447206    0.247062    0.700506
C     -0.730158   -0.636591    0.276133
H     -0.940093   -1.501549    0.933613
C     -1.797533    0.007319   -0.432789
H     -1.644650    1.040750   -0.819701
H     -2.796842   -0.385035   -0.617363
O     -0.801957   -0.880629   -1.100257
H      0.516392    0.285585    1.824996
O      0.425238    1.440854    0.147032
C      1.396959    1.316401   -0.458584
