12

O      0.701119   -1.630035   -0.347059
C      0.283266   -0.520658    0.361442
C      1.121435    0.675541    0.006803
H      1.087739    1.470626    0.766913
H      2.173695    0.340995   -0.094759
H      0.822503    1.072008   -0.997856
C     -1.159860   -0.261970    0.249469
C     -1.596980    0.858335   -0.248021
H     -2.065271    1.741958   -0.640142
O     -2.076833   -1.212267    0.674259
H      0.487857   -0.741070    1.442918
H      0.221331   -1.793462   -1.173967
