11

N     -1.071863    1.085677    0.148674
C     -0.315105   -0.046067   -0.283214
C     -0.754675   -1.272168    0.429823
O     -0.266659   -2.367727    0.240988
H     -1.546324   -1.207520    1.156327
C      1.126069    0.132431   -0.105682
C      2.329499    0.283784    0.023904
H      3.377117    0.409776    0.118953
H     -0.476401   -0.161510   -1.393922
H     -1.937833    1.196989   -0.424664
H     -0.463826    1.946336    0.088813
