14

C     -1.421899    1.212080    0.162396
C     -0.518053    0.091141    0.143689
C      0.790336   -0.051305   -0.129130
N      1.877901    0.792082   -0.495511
H      2.235771    1.496636    0.099819
H      2.328330    0.686125   -1.442406
C      0.655478   -1.568177    0.069648
H      1.520002   -2.045624    0.476436
C     -0.641652   -1.299852    0.378039
H     -1.316107   -1.722212    1.103288
O     -0.281404   -2.211439   -0.684780
H     -1.481754    1.674338   -0.900700
H     -2.540074    0.969500    0.319730
H     -1.206874    1.976708    0.899483
