10

C     -1.277094   -0.182718    0.010698
C     -0.016127    0.588897   -0.129145
C      1.274676   -0.116130    0.075466
H      1.383696   -0.282144    1.162872
H      2.116116    0.468963   -0.345156
H      1.248462   -1.112178   -0.415801
O      0.019216    1.771629   -0.403169
H     -1.482040   -0.639052   -0.992607
H     -1.179898   -1.022483    0.723809
H     -2.087006    0.525215    0.313034
