15

C     -2.209779   -0.551576    0.006486
N     -0.888120    0.058343    0.049003
C     -0.560483    1.428858    0.145853
H     -1.339227    2.205377    0.201205
N      0.718999    1.595780    0.157015
C      1.398661    0.371898    0.070032
C      2.714018    0.149651    0.053629
H      3.089643   -0.857068   -0.017824
H      3.431452    0.942321    0.109364
C      0.357435   -0.669693   -0.003170
H      0.454238   -1.200497   -0.969255
H      0.491524   -1.346239    0.868139
H     -2.128357   -1.639423    0.174239
H     -2.599940   -0.441786   -1.045423
H     -2.930065   -0.045946    0.653805
