9

C     -1.318024   -0.067877   -0.261497
C     -0.547697    0.072163    0.794745
N      0.842764   -0.208982    0.791640
C      1.553746   -0.024554   -0.275022
H      2.620135   -0.276913   -0.158174
H      1.144529    0.339237   -1.186306
H     -0.991483    0.418112    1.712085
H     -2.371504    0.163776   -0.192453
H     -0.932465   -0.414963   -1.225017
