10

O      2.325473   -0.373670   -0.431552
C      1.433478    0.197328    0.447546
C      0.008259   -0.035106    0.330197
C     -0.833857    0.789537   -0.230370
C     -2.092128    0.387687   -0.233553
H     -2.957294    0.889062   -0.632863
O     -2.086917   -0.849153    0.398896
N     -0.784495   -1.135210    0.760668
H      1.879198    0.822673    1.218994
H      3.108282   -0.693147    0.097857
