10

C      2.015551   -0.720405    0.216047
N      0.824882   -0.324296    0.397284
N      0.393022    0.999294    0.285050
C     -0.805317    1.284594   -0.080406
N     -1.673510    0.179598   -0.366101
N     -1.983395   -0.554830    0.619068
H     -2.605410   -1.390812    0.556045
H     -1.186266    2.291983   -0.181950
H      2.242422   -1.757030    0.326482
H      2.778021   -0.008096   -0.045701
