13

N      1.978891   -1.331894   -0.216308
C      0.775263   -0.812401   -0.147302
O     -0.433051   -1.566363   -0.017796
C     -1.472725   -0.660256    0.119500
H     -1.366844   -0.555671    1.395075
H     -2.500642   -0.913967    0.027497
C     -0.993249    0.734959   -0.213595
H     -1.463369    1.562986    0.226418
H     -1.297202    0.727465   -1.376055
C      0.459839    0.577334   -0.120243
N      1.301510    1.549321    0.173601
H      2.264616    1.328210    0.424231
H      2.746962   -0.639724   -0.275023
