16

C      0.119502    1.604838   -0.536319
C      0.007616    0.314387    0.234917
C     -1.412798   -0.056253    0.536415
C     -2.203030   -0.229175   -0.742480
H     -2.286646   -1.297922   -1.018080
H     -1.390013   -1.053620    1.039616
H     -1.921301    0.633300    1.232231
O      0.549782   -0.697351   -0.556484
C      1.639652   -1.265858    0.081000
H      1.327129   -1.700652    1.057707
H      2.366501   -0.449153    0.278957
H      2.093274   -2.038812   -0.572043
H      0.571496    0.422650    1.176944
H      1.177935    1.934987   -0.464151
H     -0.110377    1.475348   -1.613327
H     -0.528722    2.403285   -0.134903
