17

C      1.458578   -0.654604   -0.592744
H      1.465596   -0.433347   -1.674325
H      1.630496   -1.726740   -0.284460
C      2.005926    0.325104    0.432976
H      2.973330    0.718751    0.785760
C      0.603146    0.087112    0.257917
C     -0.326843   -0.605594    1.186751
H     -0.596761   -0.085107    2.121010
H      0.045736   -1.629494    1.440609
C     -1.584738   -0.702526    0.343475
H     -1.710928   -1.653783   -0.122658
C     -1.561921    0.422355   -0.639901
H     -2.425183    1.090878   -0.588813
H     -1.371456   -0.002620   -1.696489
C     -0.263336    1.238220   -0.316060
H     -0.552405    1.926615    0.492990
H      0.210764    1.684779   -1.146036
