12

O      3.634310    0.917205    0.104221
N      2.349930    0.548363   -0.047968
C      1.235060    0.246131   -0.172364
C     -0.176995   -0.115325   -0.315187
H     -0.503575   -0.337343   -1.347295
C     -1.146127    0.829786    0.340249
H     -0.667564    1.743427    0.750451
H     -2.031568    1.101133   -0.299398
C     -1.492252   -0.231060    1.361229
C     -0.531575   -1.171183    0.713304
H      0.288755   -1.482033    1.369188
H     -0.958399   -2.049100    0.191340
