11

O     -0.102051    1.765597    0.355972
C     -0.020201    0.404208    0.069131
C      1.287833   -0.203981    0.099450
N      2.388074   -0.795572    0.173124
H      3.212837   -0.383674   -0.286576
C     -0.971371   -0.067588   -0.965777
H     -0.710924   -0.765923   -1.753907
C     -1.172718   -0.484169    0.453305
H     -0.929970   -1.553590    0.710670
H     -1.966432    0.029843    1.031808
H     -1.015077    2.054850    0.208629
