8

C     -1.430519   -0.207592    0.237851
C      0.014807    0.084953    0.263415
N      1.155935    0.303466    0.285585
N      2.499997    0.553061    0.322146
H      3.055336    0.133676   -0.464996
H     -1.769258   -0.561142    1.229703
H     -1.924468    0.727118   -0.072302
H     -1.601830   -1.033541   -0.472569
