10

N     -0.337916   -0.350653   -0.530002
C     -0.828324    0.978220   -0.624930
O     -0.808334    1.705595    0.410089
H     -1.205790    1.337287   -1.573764
C      0.163699   -0.813345    0.749922
C      1.277258    0.072819    1.101456
N      2.165598    0.779663    1.402249
H      0.522223   -1.877188    0.633138
H     -0.614317   -0.837342    1.523371
H     -0.334097   -0.995054   -1.365710
