16

C     -1.636598    1.398362   -0.503166
C     -1.080528    0.217955    0.265192
N     -1.599825   -0.700615    0.860207
C     -0.413196   -1.288906    1.245922
H     -0.311676   -2.322768    0.811716
H     -0.219789   -1.392134    2.346572
C      0.266284   -0.205864    0.544617
C      1.102569   -0.581336   -0.635016
C      2.204719    0.075447   -0.868442
H      2.813657   -0.203578   -1.733851
H      2.577776    0.897912   -0.258890
H      0.782255   -1.378361   -1.262583
H      0.829390    0.448006    1.270590
H     -2.642445    1.156868   -0.906383
H     -0.977033    1.611608   -1.360217
H     -1.695559    2.267403    0.183733
