10

N     -0.366238    1.194794   -0.121088
C     -0.212927   -0.190673    0.269108
N      0.918834   -0.849307   -0.317190
N      1.954867   -0.217728   -0.509110
N      3.163609    0.022919   -0.558044
N     -0.586681   -0.559098    1.622354
C     -1.362073   -1.028379    0.566168
H     -2.239147   -1.645839    0.505927
H      0.085133    1.819138    0.584285
H     -1.355376    1.454173   -0.316590
