13

C     -1.876678   -0.075069   -0.218505
C     -0.487689   -0.340256    0.087328
H     -0.484087   -1.446338    0.532292
O      0.479563   -0.455657   -0.946024
C      1.618635    0.254691   -0.563150
O      2.836588    0.466801   -1.209758
H      3.642663   -0.099841   -0.889136
C      1.348355    0.735156    0.632292
C      0.134501    0.484856    1.104151
H     -0.258193    0.815288    2.005951
H     -2.308077   -0.953423   -0.839017
H     -2.218726    0.887988   -0.490760
H     -2.426855   -0.274196    0.794336
