16

C      0.406606   -1.188162   -0.612543
H      0.082082   -1.861242    0.178402
H      0.586334   -1.665476   -1.582864
C     -0.170893    0.257326   -0.626116
N     -1.356115    0.363910    0.133342
C     -2.576297    0.891932   -0.347443
O     -2.572225    1.281338   -1.526585
H     -3.457117    0.941989    0.304949
H     -1.345844    0.026041    1.143888
H     -0.325331    0.643454   -1.664809
C      1.187187    0.063624   -0.229991
C      1.742682    0.011256    1.164793
H      2.021235    1.025927    1.550299
H      1.089108   -0.537248    1.877219
H      2.704562   -0.550376    1.206712
H      1.984024    0.295708   -0.969254
