12

O     -2.425923    0.314059   -1.142073
C     -2.025281   -0.513322   -0.296678
C     -0.669409   -0.555993    0.215997
C      0.276787    0.457014   -0.314292
C      1.659339    0.309710    0.296906
H      1.627421    0.119632    1.372962
H      2.184165    1.269210    0.109893
H      2.223267   -0.486053   -0.226646
H     -0.141905    1.447455   -0.146006
H      0.393059    0.291859   -1.409261
O     -0.365689   -1.417959    1.056769
H     -2.735830   -1.235613    0.068840
