16

N      3.899036    0.178270   -0.756923
C      2.732070   -0.328562   -0.779729
C      1.506710   -0.805064   -0.611655
C      0.395772    0.136747   -0.657383
C     -0.852003   -0.364834    0.039006
C     -1.932300    0.695739   -0.074901
O     -3.108394    0.292737    0.548075
H     -3.493495   -0.524065    0.195663
H     -2.135268    0.895647   -1.143913
H     -1.611218    1.634489    0.396085
H     -0.659130   -0.627754    1.083193
H     -1.253285   -1.270373   -0.460264
H      0.702044    1.095512   -0.244303
H      0.120337    0.302261   -1.717681
H      1.462224   -1.862187   -0.455018
H      4.226898    0.551436    0.182625
