11

C     -0.884588   -0.883443    0.291649
C      0.080358    0.170688   -0.252100
C      1.481056   -0.120676    0.069068
O      2.304029   -0.252890   -0.778545
H      1.770401   -0.211891    1.120362
N     -0.232308    0.873828   -1.439221
C     -0.423499    1.542439   -0.272799
H     -0.713105    2.425534    0.270378
H     -0.319609   -1.854340    0.396453
H     -1.602308   -1.069302   -0.568441
H     -1.460428   -0.619947    1.163196
