13

N     -1.941084   -0.832249   -0.030107
C     -0.653457   -0.457299    0.526201
H     -0.582721   -0.763652    1.605823
C     -0.455706    1.007691    0.523649
H     -1.074353    1.778819    0.992357
N      0.722390    1.270020   -0.220063
H      1.164586    2.216859   -0.426190
C      1.226033    0.023773   -0.654895
O      2.400066   -0.086426   -1.428019
H      3.203810   -0.556524   -1.065387
C      0.474681   -0.967643   -0.251493
H     -1.868751   -1.813748   -0.364793
H     -2.615496   -0.819621    0.792916
