13

C      2.339919   -0.239031   -0.143700
C      1.062336    0.131656    0.040876
O      0.342496    1.267900   -0.210302
C     -0.804361    0.722258    0.299755
H     -1.269465    1.239472    1.174504
C     -1.727492   -0.006862   -0.597163
H     -1.748866    0.298230   -1.661192
H     -2.754036   -0.061605   -0.127373
C     -0.997252   -1.279810   -0.295661
C     -0.084552   -0.536602    0.589946
H     -0.088142   -0.789066    1.667637
H      2.695709   -1.207640    0.136327
H      3.033706    0.461100   -0.589167
