15

C      1.415578   -1.106196    0.293398
C      0.820942    0.246162    0.565681
H      1.159128    0.701744    1.512415
N      0.705070    1.145811   -0.553477
H      0.927668    0.842634   -1.513983
C     -0.496871    0.637017    0.065885
C     -1.373975   -0.328306   -0.673934
H     -1.749089    0.063405   -1.639942
H     -2.256387   -0.533426   -0.024669
H     -0.902477   -1.297612   -0.888201
N     -1.220607    1.637048    0.765529
C     -1.824116    2.451158    1.340136
H      0.633408   -1.908786    0.310405
H      2.011742   -1.132790   -0.652400
H      2.149985   -1.417864    1.093157
