12

N      2.156066   -0.420443    0.046946
C      0.779279   -0.035739    0.077028
N     -0.203705   -0.848304    0.152272
C     -1.433222   -0.090601    0.158656
O     -2.226654   -0.498002   -0.927259
H     -2.468112   -1.440409   -0.737173
H     -1.964470   -0.351870    1.097889
N     -1.026500    1.265376    0.077121
C      0.253022    1.317653    0.028896
H      0.892383    2.201691   -0.037612
H      2.628943   -0.668366    0.940381
H      2.612972   -0.430985   -0.877146
