10

N      0.356279   -0.435254   -0.236238
C      1.772755   -0.423761   -0.063369
C      2.289479   -1.422747    0.628189
H      2.428055    0.318429   -0.445052
C     -0.460711    0.584419    0.316652
C     -1.746650    0.418670    0.524531
H     -2.380042    1.179308    0.941992
H     -2.178858   -0.529307    0.260623
H     -0.041512    1.540089    0.586158
H     -0.038794   -1.229846   -0.787667
