13

N     -1.918954    1.271558    0.207758
C     -0.890194    0.567352   -0.030487
O      0.354089    1.227675   -0.271573
C      1.519393    0.476299   -0.464967
H      2.370934    1.089227   -0.092800
H      1.683801    0.266393   -1.561271
C      1.503797   -0.776907    0.357687
N      0.318754   -1.327421    0.737551
H      0.129213   -1.536866    1.689945
C     -0.788344   -0.901839   -0.083081
H     -1.724421   -1.378994    0.360612
H     -0.648545   -1.290172   -1.084526
H     -1.909524    2.313695    0.235151
