13

N      2.492795    1.283738    0.256611
C      1.778350    0.232642    0.363828
C      0.877686   -0.715877    0.577073
C     -0.096861   -0.943484   -0.485052
C     -1.390971   -0.186315   -0.262291
O     -1.035582    1.180451   -0.223167
H     -1.660226    1.609170    0.411677
H     -1.818162   -0.461949    0.724255
H     -2.104436   -0.323491   -1.095613
H      0.301980   -0.633918   -1.473741
H     -0.349169   -2.030283   -0.549649
H      0.959835   -1.216996    1.509856
H      2.044761    2.206314    0.530700
