11

C      2.025339   -0.435517   -0.252540
C      1.138462    0.590550    0.343238
C     -0.296214    0.379016    0.258809
C     -1.486041    0.188927    0.173792
N     -2.864629   -0.033880    0.060067
H     -3.457524   -0.404550    0.835877
H     -3.346057    0.175623   -0.841783
O      1.629607    1.607992    0.901469
H      1.552311   -0.730542   -1.231787
H      2.092814   -1.357246    0.337699
H      3.011933    0.019626   -0.489011
