12

C      1.731398   -0.220952    0.518290
C      0.473914   -0.035319    0.120921
C     -0.095779    1.099673   -0.626598
H      0.003672    1.996447    0.037278
H      0.404093    1.267047   -1.602142
O     -1.451770    0.761752   -0.764487
C     -1.705270   -0.444123   -0.173185
H     -2.677124   -0.941250   -0.134336
C     -0.618239   -0.966381    0.365668
H     -0.559673   -1.914292    0.891391
H      1.986750   -1.101587    1.054181
H      2.508029    0.498985    0.313018
