12

O      2.856904    0.028770    0.112197
N      1.718305    0.771367    0.202836
C      0.526276    0.272476    0.237680
C     -0.783468    0.970955    0.334619
H     -0.974470    1.594799   -0.558518
H     -0.874522    1.512442    1.293988
N     -1.397691   -0.340166    0.302991
H     -1.933980   -0.495028    1.201323
H     -2.014332   -0.411169   -0.556096
C     -0.154839   -0.987163    0.211739
H      0.133236   -2.015490    0.149264
H      2.898581   -0.901793   -0.284251
