13

C     -0.324954    1.061213    0.431992
H     -0.360768    1.461321    1.469644
H     -0.711280    1.773996   -0.336479
C     -0.933979   -0.290627    0.327865
O     -1.980087   -0.381719   -0.591245
H     -2.066471   -1.263940   -0.990735
H     -1.206986   -0.693742    1.336279
C      0.377541   -0.806976   -0.120212
H      0.329725   -1.095430   -1.213763
H      0.845426   -1.599295    0.506577
C      0.962255    0.527936   -0.012762
N      2.165988    0.984420   -0.241222
H      2.903589    0.322843   -0.565938
