9

O     -1.466469   -0.662855   -1.664684
C     -1.300372    0.000098   -0.478206
C      0.112125    0.193447   -0.205912
C      1.313588    0.372232    0.042590
N      2.565683    0.552316    0.279269
C      3.764838    0.726871    0.512453
H     -1.751929    1.039679   -0.578455
H     -1.815516   -0.589286    0.306803
H     -1.421947   -1.632501   -1.579516
