12

C      1.448704   -0.228966    0.192978
N      0.240523    0.184147   -0.488870
H      0.453345    0.590745   -1.429994
C     -0.605330   -0.930511   -0.711671
C     -1.754032   -0.741057   -0.114715
H     -2.577799   -1.466674   -0.141596
N     -1.691494    0.513373    0.520752
C     -0.552922    1.038449    0.305552
H     -0.225698    2.004046    0.673978
H      2.366053    0.218721   -0.240936
H      1.404390    0.161745    1.247458
H      1.494262   -1.344017    0.187064
