15

N      2.884809   -0.532092   -0.450993
C      1.767171    0.004316    0.240115
N      1.262281    1.088165    0.834397
C      0.406915   -0.069219    0.837785
C     -0.687411   -0.225172   -0.158628
H     -0.397519   -0.755250   -1.099040
C     -2.111790   -0.315940    0.213096
H     -2.791480   -0.853017   -0.473187
H     -2.459225   -0.318674    1.259758
C     -1.594652    0.998908   -0.283233
H     -1.764482    1.313127   -1.325706
H     -1.482506    1.816642    0.440811
H      0.380563   -0.665419    1.786302
H      3.208068   -0.150202   -1.359375
H      3.379258   -1.336173   -0.009004
