12

N     -1.786178    0.495306    0.080632
C     -0.418819    0.152598    0.025089
C      0.613044    0.972524    0.037897
H      0.568780    2.050992    0.093844
C      1.836165    0.171911   -0.036814
H      2.869859    0.517793   -0.048053
C      1.470511   -1.099759   -0.091135
N      0.070479   -1.202641   -0.057310
H     -0.307238   -1.682442    0.777540
H     -0.276240   -1.606348   -0.956854
H     -2.460810    0.024274   -0.559223
H     -2.179553    1.205792    0.734386
