11

C     -1.238845   -0.464194    0.420700
C     -0.616136    0.585017   -0.440257
C      0.700120    0.670119   -0.580843
C      1.551461   -0.272596    0.113864
O      2.779551   -0.187297   -0.022006
H      1.138215   -1.036361    0.738390
H      1.112769    1.448709   -1.216987
H     -1.208792    1.304428   -0.973603
H     -0.700439   -0.439291    1.395023
H     -1.208399   -1.454927   -0.030340
H     -2.309506   -0.153605    0.596058
