10

O     -0.358735   -1.023767    1.308978
C     -0.186775    0.123724    0.440856
C      1.115606    0.108077   -0.259857
C      2.175602    0.083309   -0.836075
H      3.110007    0.044491   -1.353012
C     -0.591831    1.413080    1.034328
N     -0.895593    2.419947    1.478806
C     -1.145637   -0.857139    0.174139
H     -2.222115   -0.729320    0.412804
H     -1.000529   -1.582401   -0.675147
