15

N      2.699880    0.097994   -0.054677
C      1.419550    0.071938    0.558915
O      1.341423    0.256765    1.804895
C      0.239868   -0.170833   -0.293940
N     -0.980017   -0.164508    0.492623
H     -0.908712   -0.684379    1.373118
C     -1.890697    0.950426    0.350629
H     -1.619818    1.804997   -0.293818
C     -2.193655   -0.335380   -0.297853
H     -2.944733   -1.036376    0.115195
H     -2.100661   -0.367795   -1.406018
H      0.206468    0.519623   -1.135678
H      0.336017   -1.218489   -0.691359
H      3.003257   -0.500099   -0.850315
H      3.391831    0.776115    0.328281
