13

C      1.741796   -0.161874   -0.095756
C      0.385021   -0.081670    0.556034
H      0.527428    0.105271    1.642964
N     -0.398114   -1.265213    0.365629
C     -1.514584   -0.970288   -0.179783
H     -2.340605   -1.646070   -0.459752
C     -1.571143    0.462752   -0.403396
H     -2.407097    1.017558   -0.857936
C     -0.451258    0.998351    0.028781
H     -0.249085    2.077129   -0.028899
H      2.396018    0.563849    0.449857
H      2.154785   -1.165178    0.147672
H      1.726840    0.065381   -1.165412
