15

C     -1.104950    1.205782    0.655350
C     -0.138410    0.195232   -0.003068
C     -0.785828   -0.731304   -1.010711
H     -0.278600   -0.752632   -1.993130
H     -1.885224   -0.755891   -1.013281
C     -0.181074   -1.225032    0.217343
H     -0.816662   -1.738798    0.969356
O      1.164127   -1.650233    0.225306
C      1.985281   -0.561962    0.055633
H      3.062269   -0.510522    0.009667
C      1.285475    0.572424   -0.082995
H      1.680442    1.555613   -0.225921
H     -0.515881    2.120780    0.769470
H     -1.597288    0.837575    1.549090
H     -1.873675    1.438966   -0.122109
