11

C      0.063901    0.646956   -0.153784
H      0.173953    1.734281   -0.003589
C      1.180659   -0.272760   -0.356642
H      1.055059   -1.091297   -1.078459
H      2.198509    0.096380   -0.205275
C      0.315115   -0.357565    0.875188
H      0.799664   -0.205480    1.832014
O     -0.978397   -0.815980    0.765722
C     -1.318561    0.042536   -0.267115
H     -2.146387    0.721287   -0.140446
H     -1.343517   -0.498358   -1.267615
