8

N      1.459257    0.420104   -0.681247
C      0.892911   -0.313565    0.185419
N     -0.528022   -0.290064    0.374040
N     -1.694107   -0.927891    0.592992
C     -1.802645    0.333221    0.484417
H     -2.308672    1.286244    0.459331
H      1.497478   -0.964781    0.788208
H      2.483801    0.456731   -0.874325
