9

C     -0.614218    0.814355    0.126991
O     -1.621947    1.543773    0.283819
C     -0.690362   -0.641267   -0.048631
H     -1.110351   -1.035717    0.918839
H     -1.326594   -0.948456   -0.903385
O      0.644690   -1.032759   -0.185046
C      1.440914    0.082893   -0.098997
H      2.516635    0.059670   -0.172658
N      0.761232    1.157508    0.079068
