11

O     -1.644001    1.001396    0.208835
C     -0.553479    0.464278   -0.432054
H     -0.534310    0.479688   -1.522252
C      0.724119    0.644000    0.307289
H      1.189884    1.509461    0.540509
O      0.170329   -0.224979    1.260000
C     -0.111567   -0.882157    0.078654
H     -0.618769   -1.744885   -0.033453
C      1.226455   -0.535397   -0.340831
O      2.152483   -1.021312   -0.903114
H     -2.001144    0.309907    0.836417
