12

O      2.889679    0.565015   -0.544790
C      1.879896    0.627989    0.375634
C      1.029734   -0.355971    0.346564
C      0.155931   -1.345959    0.226045
N     -0.887544   -1.099518   -0.661495
C     -1.865839   -0.340965   -0.290234
C     -2.730188    0.354671    0.392754
H     -2.660306    1.408914    0.573696
H     -3.570530   -0.165235    0.806324
H      0.386270   -2.178092    0.825821
H      1.684117    1.369005    1.118912
H      3.688780    1.160146   -0.521459
