14

C     -1.659399   -0.678540    0.222077
C     -0.429372   -0.169525   -0.497932
H     -0.166789   -0.700098   -1.426215
C     -0.000251    1.233648   -0.398972
H      0.550002    1.679737   -1.262567
H     -0.631672    1.983447    0.120222
C      0.691388    0.241419    0.453423
C      2.002776   -0.319922    0.090865
O      2.787142   -0.715058    0.923134
H      2.277045   -0.382829   -0.947682
H      0.481282    0.273157    1.539679
H     -1.350578   -1.593507    0.767198
H     -2.080822    0.088106    0.905291
H     -2.470752   -0.940033   -0.488521
