15

C     -1.710200    0.814422    0.117736
C     -1.014227   -0.504367   -0.031951
H     -1.664997   -1.349706   -0.328339
C      0.222528   -0.401858   -0.895578
H      0.267793   -1.196788   -1.652376
H      0.405965    0.626950   -1.257344
C      1.084566   -0.755890    0.288181
C      1.959064    0.377279    0.714414
O      3.155743    0.213369    0.697278
H      1.507882    1.307274    1.024894
H      1.592970   -1.729314    0.230572
C     -0.142720   -0.859444    1.152808
H     -1.061665    1.683486   -0.168321
H     -2.555767    0.829511   -0.603019
H     -2.046935    0.945076    1.164143
