12

N      3.442445    0.202643    0.590043
C      2.252736    0.278763    0.337381
C      0.751290    0.363762    0.003638
C     -0.204356    1.120968   -0.379541
H      0.209033    2.228481   -0.855372
C     -1.451299    0.600904    0.002365
H     -2.351324    1.187314    0.000350
C     -1.195369   -0.639530    0.457251
H     -1.776042   -1.127752    1.188097
C      0.052615   -1.048160   -0.225009
H     -0.267782   -1.262275   -1.304024
H      0.538054   -1.905118    0.184821
