10

C     -0.507489    0.818446   -0.008711
H     -1.255129    1.434019   -0.441467
H     -0.373605    1.171521    1.140836
O      0.836087    0.961917   -0.341108
C      1.460277   -0.254215   -0.161425
H      2.571255   -0.382920   -0.142500
N      0.608944   -1.181773    0.009337
C     -0.737455   -0.670446   -0.063065
H     -1.251416   -1.046781    0.911696
H     -1.351468   -0.849769   -0.903592
