14

C     -2.218066    0.032659    0.723755
C     -0.933155    0.217863   -0.044324
O      0.182415   -0.170655    0.707034
C      1.311711    0.037442   -0.084972
C      2.559033   -0.344534    0.619649
C      2.941305   -1.611373    0.619357
H      3.124625    0.428333    1.117070
H      1.352890    1.118781   -0.400006
H      1.235073   -0.593412   -1.000954
H     -0.986792   -0.459488   -0.923628
H     -0.833607    1.285676   -0.342375
H     -2.591066   -1.007036    0.689179
H     -3.010092    0.657195    0.246777
H     -2.134274    0.408551    1.774751
