15

C      1.173167   -0.076257    0.902942
H      1.241552   -0.863710    1.691148
H      1.593697    0.919192    1.204497
C      1.387104   -0.418973   -0.558394
H      2.019417    0.270823   -1.149100
H      1.684703   -1.453853   -0.697408
C      0.039406   -0.093098   -0.050591
C     -1.137699   -1.013659   -0.032407
H     -0.987735   -1.898184    0.574972
H     -1.535230   -1.158824   -1.079991
C     -2.145559   -0.014714    0.586859
O     -1.785959    1.122466    0.364159
C     -0.610307    1.240550   -0.325973
H     -0.884015    1.363907   -1.423819
H     -0.052542    2.074335   -0.006897
