10

N      0.860198    0.289321    0.421960
C      1.933888   -0.272511   -0.321027
O      1.724292   -0.992326   -1.327061
H      2.964839   -0.066627   -0.000123
C     -0.486920    0.083001    0.089674
N     -1.248427   -0.631127   -0.927236
C     -1.952219    0.135284    0.112161
H     -2.433225   -0.534819    0.848958
H     -2.400997    1.094924   -0.165605
H      1.038571    0.894879    1.268299
