15

C     -2.446708   -0.360784   -0.278128
C     -0.952072   -0.633741   -0.223174
C     -0.221125    0.592398    0.173484
N      1.184603    0.525866    0.277062
C      2.344076    1.184805    0.566400
H      2.732289    2.139048    0.872836
C      2.447298   -0.190888    0.182517
H      2.778611   -0.503885   -0.847437
H      2.546340   -1.004150    0.909908
H     -0.748159    1.509284    0.377150
H     -0.625109   -1.003076   -1.238708
H     -0.783220   -1.430814    0.508846
H     -2.553979    0.703680   -0.615844
H     -2.886570   -1.083165   -0.969914
H     -2.816273   -0.444577    0.758100
