15

C      2.497424    0.379963    0.049158
N      1.170642   -0.117387    0.048372
C      0.225434    0.292743   -0.720971
H      0.345546    1.075196   -1.462521
C     -1.027200   -0.455681   -0.441250
C     -2.077331    0.508994    0.053908
H     -1.781128    1.572570   -0.170407
H     -2.107665    0.450502    1.163180
H     -3.072475    0.295769   -0.360713
H     -1.330167   -0.985199   -1.369534
N     -0.620996   -1.353073    0.614595
C      0.608727   -1.137946    0.862557
H      1.151371   -1.703626    1.636329
H      3.356026   -0.264687    0.096243
H      2.661791    1.441863    0.001052
