17

C      2.058507   -1.780506    0.848534
C      1.444539   -0.631323    0.637784
C      0.020126   -0.408239    1.080070
C     -0.758247   -0.092885   -0.192801
H     -0.858375   -1.012414   -0.848488
C     -0.241682    1.100900   -0.866544
H      0.059417    0.981563   -1.943420
H      0.556636    1.618275   -0.268021
C     -1.551238    1.673435   -0.631206
H     -1.970303    2.685039   -0.894935
C     -1.986794    0.621640   -0.044538
H     -2.995197    0.436329    0.393012
H     -0.042767    0.438606    1.790593
H     -0.313088   -1.341045    1.541351
H      1.990022    0.170531    0.130208
H      1.509475   -2.566190    1.351268
H      3.078970   -1.893718    0.513874
