14

O     -1.284120    0.397127   -0.013714
C     -0.489494   -0.093325   -1.076586
H     -0.903143   -1.054925   -1.481294
C     -0.257142    0.944859   -2.079124
H     -0.800560    1.292979   -2.975980
N      0.813848    1.302928   -1.530745
C      2.039404    1.639956   -0.821347
H      2.863566    2.230658   -1.050485
C      1.537402    0.773160    0.301689
H      2.308452    0.162754    0.799960
H      0.848948    1.233862    0.997643
C      0.903541    0.019981   -0.835127
H      1.620526   -0.663585   -1.373175
H     -2.206163    0.572422   -0.351585
