15

C      1.747787    0.398839   -0.600788
C      0.820015    0.173527    0.564517
H      1.413404   -0.022154    1.478941
C     -0.198551    1.246874    0.793311
C     -1.286882    0.218586    0.618532
O     -2.103909    0.494459   -0.475638
H     -2.372904    1.460263   -0.492950
H     -1.831691    0.097891    1.581331
C     -0.242925   -0.845890    0.390875
O     -0.364488   -1.407815   -0.886106
H     -1.313142   -1.675432   -0.974647
H     -0.287762   -1.652986    1.156517
H      1.667788    1.468225   -0.907207
H      1.531748   -0.212266   -1.474530
H      2.821515    0.257879   -0.319060
