19

C     -3.344394    0.283131   -0.404152
C     -2.078250   -0.348675    0.181887
O     -1.027535   -0.139514   -0.726604
C      0.101061   -0.730807   -0.150605
C      1.291696   -0.550383   -1.072188
C      2.506585   -0.333105   -0.214578
C      2.848275    1.138667   -0.082618
H      2.774862    1.653141   -1.076287
H      3.900242    1.177265    0.314303
H      2.128443    1.598094    0.649292
H      3.353971   -0.904010   -0.626744
H      2.317444   -0.703149    0.820752
H      0.318354   -0.204218    0.811770
H     -0.023204   -1.807715    0.036523
H     -2.200993   -1.454810    0.243807
H     -1.850696    0.109362    1.161129
H     -3.222439    0.473057   -1.476818
H     -4.178710   -0.444249   -0.275532
H     -3.614714    1.187919    0.182773
