11

C      1.748128    0.350694   -0.064026
C      0.742022   -0.304380    0.784737
C     -0.274905   -0.876509    0.154455
N     -1.408899   -1.109925   -0.415646
C     -2.345265   -0.036944   -0.515095
O     -2.734055    0.452246    0.586184
H     -2.723114    0.362965   -1.420341
H      0.818738   -0.318642    1.844242
H      1.349710    0.734344   -1.019769
H      2.533280   -0.427869   -0.286140
H      2.294359    1.174020    0.447229
