10

O      2.009834   -0.367484   -0.102446
C      0.612256   -0.194174   -0.085916
C     -0.052154    0.941421   -0.069337
H      0.398458    1.946775   -0.065879
N     -1.445063    0.670126   -0.056539
H     -2.189851    1.422798   -0.042263
C     -1.615438   -0.751033   -0.066469
N     -0.286749   -1.284745   -0.085240
H     -0.009634   -2.326308   -0.096864
H      2.578340   -0.057375    0.670954
