10

O      1.663135    0.044342    1.135552
C      0.875732   -0.542070    0.155458
H      1.401199   -1.344563   -0.392032
C      0.413394    0.507421   -0.774705
C     -0.886115    0.689470   -0.780701
H     -1.419863    1.397641   -1.380102
N     -1.382231   -0.251999    0.169740
H     -2.381524   -0.349660    0.389076
N     -0.356718   -0.992364    0.736798
H      2.072993    0.841782    0.740915
