14

C     -2.371865    0.665918    0.254147
O     -1.147778    0.516933   -0.378708
C     -0.364155   -0.372374    0.350378
C      0.956341   -0.596221   -0.242157
C      2.031504   -0.293419    0.467343
O      3.309314   -0.478280   -0.028026
H      3.876079    0.375005   -0.118798
H      1.960974    0.116798    1.477639
H      1.129531   -0.995569   -1.229134
H     -0.966551   -1.296157    0.463904
H     -0.271986    0.055980    1.367713
H     -2.944707   -0.256747    0.356450
H     -2.926147    1.459944   -0.324187
H     -2.270553    1.098190    1.284750
