15

C      1.912800   -0.240704    0.298646
C      0.834127    0.289126   -0.619809
C     -0.506490    0.229018   -0.019330
N     -1.130465   -0.971879    0.407920
O     -1.910329   -1.757922   -0.359810
H     -2.618688   -1.268782   -0.820733
H     -0.966684   -1.258615    1.391813
C     -1.213470    1.350567    0.152092
H     -2.201098    1.371334    0.586272
H     -0.797167    2.301572   -0.151814
H      1.082876    1.330876   -0.848206
H      0.887010   -0.265136   -1.592853
H      2.670291    0.529100    0.556392
H      2.491534   -1.055461   -0.219428
H      1.465754   -0.583093    1.238846
