14

N     -1.699876   -1.037967    0.631014
C     -1.085019   -0.063880   -0.174992
O      0.191057   -0.267654   -0.634272
C      1.268746    0.098563    0.209908
C      2.575154   -0.178395   -0.416827
O      2.612098   -0.660973   -1.521098
H      3.483578    0.047563    0.105273
H      1.163369   -0.380018    1.209996
H      1.132271    1.202898    0.400447
C     -1.730026    1.029015   -0.482628
H     -2.754849    1.206956   -0.121571
H     -1.328898    1.826523   -1.096819
H     -1.126755   -1.573468    1.319200
H     -2.700850   -1.249164    0.572369
