15

C      2.588107   -0.527597   -0.269658
N      1.265093   -0.048838   -0.090174
C      0.925729    1.227329    0.166420
H      1.583488    2.081988    0.276661
N     -0.416546    1.271087    0.267803
H     -0.977961    2.137087    0.464951
C     -0.925639    0.046496    0.079658
C     -2.351783   -0.401163    0.097177
H     -3.055819    0.434311    0.116664
H     -2.502135   -0.956079   -0.865942
H     -2.525858   -1.151890    0.911923
C      0.134047   -0.791325   -0.147029
H      0.063793   -1.870456   -0.339160
H      3.378559    0.089867   -0.656520
H      2.816924   -1.540817   -0.012774
