14

C      1.984924   -0.151239    0.204263
C      0.529821    0.230674    0.278470
C      0.102058    1.451914    0.526620
H      0.756312    2.316511    0.704757
O     -1.268641    1.500357    0.532992
C     -1.764731    0.222422    0.270896
H     -2.435508    0.201405   -0.621504
H     -2.309458   -0.159772    1.177201
N     -0.601053   -0.592816    0.107495
O     -0.558636   -1.934146   -0.166156
H     -1.388911   -2.392011    0.095654
H      2.111900   -1.236493    0.408596
H      2.324072    0.136497   -0.805454
H      2.517852    0.406697    0.987483
