14

C      2.268959    0.240456    0.046410
C      0.839632   -0.207604    0.201437
C     -0.110505    0.017018   -0.686736
H     -0.065995    0.533248   -1.644496
C     -1.340755   -0.591419   -0.130608
N     -2.365709    0.396670    0.133858
H     -2.403787    1.146783   -0.594131
H     -2.296207    0.802340    1.096254
H     -1.748393   -1.393257   -0.786226
C     -0.864276   -1.148996    1.158908
O      0.348293   -0.902528    1.280920
H      2.900218   -0.320588    0.737566
H      2.305027    1.354366    0.219260
H      2.533496    0.073511   -1.032417
