11

N      0.628122   -0.529295    0.813405
C      1.559072    0.531186    0.629957
O      1.362503    1.339007   -0.295168
H      2.412157    0.616331    1.290158
C     -0.512306   -0.667230   -0.046633
C     -1.404225    0.496885   -0.015653
O     -2.403433    0.517521   -0.690962
H     -1.171936    1.337613    0.609070
H     -0.207550   -0.816217   -1.112223
H     -1.038230   -1.617656    0.232645
H      0.775826   -1.208146    1.576293
