12

C      0.588788   -1.488071   -0.031349
H      0.955478   -2.453347    0.324019
C     -0.656203   -1.446883   -0.429693
C     -1.435783   -0.439561   -0.129505
H     -2.488138   -0.631034    0.016237
N     -1.094515    0.931608    0.042202
H     -1.849698    1.611153    0.283639
C      0.230351    1.462574   -0.093038
H      0.337799    2.538358    0.068998
C      1.356048    0.873206   -0.382252
C      1.529299   -0.364736   -0.018753
H      2.526573   -0.593267    0.349495
