13

C      1.416212   -0.688992   -0.570365
C      0.802889    0.564923   -0.178886
C     -0.428910    0.604871    0.251815
C     -1.174842   -0.639881    0.330612
H     -0.986421   -1.338108   -0.537762
H     -1.025849   -1.242253    1.231041
H     -2.265886   -0.399565    0.284655
C     -1.061137    1.854454    0.649097
N     -1.553629    2.847676    0.980154
H      1.406138    1.472923   -0.256735
H      1.058067   -1.594595   -0.077884
H      1.295412   -0.792806   -1.689972
H      2.517955   -0.648646   -0.415769
