13

C      1.247608   -0.607929    0.386048
H      1.626456   -1.601173    0.048557
H      1.763193   -0.222370    1.290983
C      0.004446   -0.038394    0.007862
C     -1.293190   -0.519634   -0.295711
H     -1.856378   -0.243655   -1.216507
H     -1.715070   -1.444684    0.170629
C     -1.036685    0.650927    0.699840
H     -1.384163    0.462608    1.730285
H     -1.316173    1.668428    0.335028
C      1.114337    0.408061   -0.784182
H      1.474435    1.447483   -0.582045
H      1.371183    0.040332   -1.790786
