13

C      1.747580   -0.190532    0.204713
N      0.266925   -0.236476    0.083433
C     -0.571469    0.615830   -0.311199
O     -0.426389    1.941276   -0.789496
H      0.342504    2.478618   -0.428473
C     -1.700089   -0.249725   -0.095704
H     -2.451397    0.087369    0.656311
H     -2.174325   -0.586335   -1.056310
C     -0.707873   -1.195984    0.348337
H     -0.653291   -2.232051    0.737976
H      2.161570    0.384790   -0.651065
H      2.026936    0.390421    1.115313
H      2.139318   -1.207201    0.186165
