16

C      2.873525    0.433373   -0.768844
O      1.809434   -0.444918   -0.933385
C      0.717510    0.089600   -0.278087
C     -0.497465   -0.823230   -0.414296
N     -1.575929   -0.164037    0.308285
C     -2.803224   -0.233738   -0.014094
O     -3.797157    0.414312    0.708438
H     -3.558997    1.140489    1.395709
H     -3.077676   -0.818628   -0.881042
H     -0.260198   -1.784745    0.049991
H     -0.750697   -0.997314   -1.481387
H      0.921555    0.139393    0.826207
H      0.505667    1.100332   -0.650832
H      3.746906   -0.027355   -1.312024
H      2.686810    1.404672   -1.308300
H      3.059935    0.571794    0.296538
