12

C      1.988635   -0.047007    0.231152
C      0.721987    0.365080   -0.524682
H      0.897689    0.982500   -1.381224
C     -0.336062    0.949566    0.409722
H     -0.913411    1.779791   -0.092604
H     -0.064578    1.156590    1.420256
C     -1.096415   -0.357906    0.214382
H     -2.168001   -0.409445    0.341306
C     -0.177312   -0.842741   -0.646694
H     -0.224751   -1.383718   -1.615640
O     -0.375346   -1.534737    0.534193
H      1.747566   -0.657974    1.109832
