12

O     -2.001146   -0.043681    0.880400
C     -1.481213    0.055661   -0.393937
N     -0.061418    0.313737   -0.288727
C      0.604021    1.315480   -0.725222
N      1.856019    1.326816   -0.513130
N      2.155753    0.154329    0.185808
H      3.112119   -0.162239    0.527160
C      0.910785   -0.515069    0.337931
H      0.754799   -1.463979    0.834125
H     -1.940731    0.870608   -0.960386
H     -1.586961   -0.897375   -0.957028
H     -2.322028   -0.954288    1.073008
