10

N      0.847373   -0.161042    1.091823
C     -0.241118    0.408050    0.371410
O     -1.008384    1.437638    0.933440
H     -1.686565    1.891535    0.344476
C     -0.480972   -0.079978   -0.831628
C      0.326601   -1.147027   -1.394850
N      0.972856   -2.006486   -1.826168
H     -1.298525    0.332926   -1.397460
H      0.831524   -1.074061    1.554972
H      1.737209    0.398445    1.153986
