11

C     -1.158187    0.066529   -0.863756
C     -0.237843    0.047629    0.300241
C      0.989689   -0.724578    0.189559
N      2.197520   -0.098749    0.481448
N      3.161985    0.417708    0.728907
H      0.966399   -1.777946   -0.117262
N     -0.486392    0.682872    1.388908
H     -1.378522    1.253539    1.490428
H     -0.529476    0.012800   -1.779992
H     -1.776387    0.985186   -0.895354
H     -1.748787   -0.864990   -0.827298
