12

N     -0.488359   -1.187513    0.615731
H     -1.221037   -1.835895    0.282862
C     -1.033518    0.022778    1.207730
C     -0.960822    0.958202    0.034339
H     -1.801769    0.669758   -0.646376
H     -1.116957    2.011339    0.290723
N      0.261628    0.647694   -0.621137
C      0.439278   -0.766975   -0.403155
H      0.501242   -1.338504   -1.340324
C      1.440288    0.205362    0.041063
H      1.611446    0.350427    1.114495
H      2.368580    0.263325   -0.575951
