13

C     -1.812943   -0.532540   -0.141170
C     -0.733221    0.442426    0.133983
O     -0.978735    1.782242    0.443749
H     -0.869582    2.535120   -0.219882
C      0.545123    0.060539    0.093450
C      1.994904    0.257164    0.197635
H      2.508634    0.743656   -0.631044
H      2.489367    0.331822    1.188214
N      1.468914   -1.081420   -0.142299
H      1.604422   -2.068443   -0.372282
H     -1.918717   -1.232592    0.736743
H     -2.766379   -0.025381   -0.293258
H     -1.531787   -1.212592   -0.993839
