19

C     -3.144374    0.345441    0.253673
C     -2.023004   -0.535831   -0.175325
C     -0.792221   -0.288976    0.236773
C      0.375177   -1.137880   -0.159987
C      1.367290   -0.259647   -0.893229
C      1.852690    0.859553   -0.049391
C      3.152385    0.943857    0.202764
H      3.843837    0.214191   -0.196884
H      3.509988    1.761371    0.819553
H      1.144078    1.581758    0.342509
H      2.199022   -0.832175   -1.321725
H      0.803449    0.181107   -1.761018
H      0.050081   -1.952822   -0.838456
H      0.824806   -1.620582    0.731130
H     -0.605179    0.556900    0.887310
H     -2.187874   -1.372807   -0.815231
H     -3.828229    0.430684   -0.619880
H     -2.801208    1.327379    0.613705
H     -3.740714   -0.201520    1.039818
