13

C      1.026454   -1.548123   -0.212473
O      0.665589   -0.290457   -0.786541
C      0.377525    0.798393    0.026493
O      1.390268    1.671552    0.469691
H      1.599861    2.426591   -0.186440
C     -0.865774    1.019757    0.390660
N     -1.869039    0.119893   -0.072877
H     -2.166778   -0.699902    0.501247
H     -2.315287    0.282039   -1.003162
H     -1.128436    1.874379    1.034931
H      1.214439   -2.275346   -0.999535
H      1.909239   -1.461914    0.442899
H      0.161940   -1.916861    0.395106
