14

C     -2.345426   -0.151927   -0.241370
O     -1.177019    0.552361    0.130178
C     -0.073613   -0.266826   -0.201400
C      1.199068    0.383975    0.149826
O      1.514525    1.595205   -0.431269
H      2.342975    1.595523   -1.026258
C      2.036533   -0.159218    0.999151
H      1.779658   -1.105924    1.447140
H      2.975055    0.304288    1.268601
H     -0.130276   -0.498947   -1.303891
H     -0.223071   -1.230851    0.311920
H     -3.246857    0.444712   -0.003870
H     -2.326622   -0.318725   -1.334026
H     -2.324933   -1.143644    0.235269
