10

C     -1.164991   -0.532103    0.141779
C     -0.046484    0.417291    0.191418
O     -0.107261    1.768401    0.136804
H     -0.475585    2.338194   -0.605062
C      1.158298   -0.124389    0.302626
N      2.323650   -0.627993    0.169925
H      2.655238   -0.803849   -0.819046
H     -0.900805   -1.460777   -0.405984
H     -1.362075   -0.838901    1.209448
H     -2.079986   -0.135874   -0.321907
