13

C      0.692643    0.782640   -0.072694
H      0.405094    1.250437    0.905646
H      1.070418    1.523929   -0.817844
C      1.570973   -0.391646    0.126069
H      1.851900   -0.637076    1.174243
H      2.488090   -0.444993   -0.497664
C      0.491911   -1.299361   -0.382943
C     -0.397102   -0.111252   -0.584172
C     -1.627895   -0.183935    0.295783
H     -2.509520   -0.502178   -0.315597
H     -1.516636   -0.890732    1.129866
H     -1.855196    0.827109    0.705509
H     -0.664680    0.077058   -1.666200
