14

O     -0.365504   -0.315518   -1.346993
C      0.055384    0.594090   -0.440906
C      1.422934    0.346626    0.176229
O      1.475970   -0.856394    0.846361
H      2.306924   -1.334910    0.573149
H      2.163141    0.434317   -0.624854
H      1.614018    1.188660    0.893651
H     -0.036624    1.644062   -0.856979
C     -1.043507    0.254802    0.494123
H     -0.686287   -0.216694    1.439569
H     -1.723238    1.120783    0.657969
C     -1.405701   -0.699279   -0.564414
H     -2.376461   -0.400754   -1.035552
H     -1.401048   -1.759791   -0.211354
