16

C      2.897931   -0.421205    0.042411
N      1.701377   -0.369413    0.447611
C      0.657982    0.085116   -0.419518
C     -0.641991    0.190092    0.369682
C     -0.606070    1.149136    1.549477
H     -0.758261    2.170168    1.150475
C     -1.867777    0.240071   -0.536971
H     -1.753538    0.047382   -1.609263
H     -2.574178    1.051107   -0.295888
C     -1.619475   -0.896874    0.382389
H     -2.241174   -1.000413    1.318240
H     -1.417568   -1.902022   -0.060857
H      0.862431    1.135915   -0.777382
H      0.504681   -0.592118   -1.282225
H      3.156946   -0.122024   -0.970699
H      3.698684   -0.764918    0.692519
