16

C      2.183728   -0.438918   -0.541755
C      0.682408   -0.355494   -0.792432
C      0.032063    0.631231    0.150465
C     -1.434796    0.720262   -0.087047
C     -2.180275   -0.530240    0.094161
O     -1.747882   -1.603993    0.414916
H     -3.261461   -0.474022   -0.085623
H     -1.911988    1.520951    0.525069
H     -1.607738    1.047427   -1.149075
H      0.313667    0.450755    1.194510
H      0.460691    1.639013   -0.131174
H      0.224810   -1.355772   -0.790906
H      0.542007    0.050419   -1.827639
H      2.750847    0.072162   -1.338866
H      2.427405    0.117148    0.406718
H      2.526513   -1.490927   -0.498444
