8

O     -1.921775   -1.337626    0.005444
C     -0.765490   -0.575413    0.005193
N      0.463052   -1.060093    0.096807
N      1.328294   -0.075951    0.067249
H      2.352019   -0.171881    0.121731
N      0.645404    1.040722   -0.043811
N     -0.664146    0.757892   -0.084722
H     -1.437359    1.422350   -0.167891
