12

N     -1.791599   -0.980966   -1.247622
C     -0.790302   -0.472869   -0.617352
N      0.559145   -0.916652   -0.674691
C      1.315497   -0.197373    0.070953
O      2.694977   -0.402986    0.211631
H      3.067377   -1.352006    0.251078
C      0.471993    0.797085    0.682940
H      0.797460    1.564358    1.371589
N     -0.880613    0.638857    0.255883
H     -1.195845    1.506736   -0.223175
H     -1.496280    0.408737    1.067519
H     -2.751810   -0.592920   -1.148754
