14

O      1.394896   -0.063813    1.176171
C      1.073591   -0.700134   -0.022407
H      1.831844   -1.435725   -0.337479
C      1.110831    0.656075   -0.064237
H      1.919294    1.322961   -0.412640
C     -0.287302    1.236923   -0.004862
H     -0.453746    1.821267   -0.913347
H     -0.380086    1.817417    0.937046
C     -1.188463    0.035238    0.077409
H     -1.923832    0.082758   -0.762241
H     -1.720747   -0.027860    1.054372
C     -0.344058   -1.187413   -0.162170
H     -0.556377   -1.939384    0.603927
H     -0.475844   -1.618310   -1.169541
