9

N      2.422961   -0.205730   -0.767679
C      1.214911    0.005733   -0.270510
C     -0.133152   -0.516292    0.029448
H     -0.351454   -0.948736    1.024317
C     -1.261490    0.249725   -0.662055
H     -2.159959    0.416248   -0.039136
H     -0.994514    1.013111   -1.404460
O     -0.893797   -1.037846   -1.015242
O      2.156494    1.023786   -0.260342
