16

C      2.561707    0.624504    0.295493
C      1.435914    0.028533   -0.492484
C      0.077579    0.570345   -0.075941
C     -0.840347   -0.616213    0.093497
C     -2.283642   -0.220377    0.254280
O     -2.667100    0.476592   -0.885218
H     -3.436872    1.030404   -0.643925
H     -2.875031   -1.155673    0.289755
H     -2.469645    0.351351    1.183312
H     -0.468713   -1.201642    0.955086
H     -0.777842   -1.196759   -0.865580
H      1.493225   -1.085820   -0.343043
H      1.584362    0.161902   -1.600788
H      3.482420    0.602553   -0.354190
H      2.831264   -0.004280    1.178604
H      2.352722    1.634580    0.689603
