9

C      0.463133   -0.709405   -0.590172
C     -0.898325   -0.228998   -0.330737
N     -1.221518    0.957439   -0.143141
N     -1.511304    2.158967   -0.078629
H     -1.695326   -0.960798   -0.297944
C      1.451388    0.303786   -0.249703
N      2.232391    1.125207    0.008348
H      0.669107   -1.648353   -0.011127
H      0.510453   -0.997844   -1.672554
