11

O     -1.778571   -0.825827   -0.211550
C     -0.512810   -0.521549    0.056861
H     -0.276052   -0.955086    1.151640
O      0.547243   -1.122178   -0.601362
C      1.650088   -0.217186   -0.458663
H      2.643612   -0.526985   -0.694310
N      1.276926    0.885088    0.010017
C     -0.141042    0.931056    0.160641
H     -0.586026    1.499941    0.935052
H     -0.467618    1.346221   -0.889496
H     -2.355751   -0.493495    0.541171
