10

C     -1.465385    0.393651    0.448152
O     -0.731938   -0.755843    0.832350
C      0.482476   -1.094148    0.268134
C      1.190983   -0.211811   -0.419878
N      2.151893    0.550016   -0.751041
H      2.544311    1.192609   -0.019321
H      0.820191   -2.105705    0.416498
H     -2.388780    0.436515    1.041790
H     -0.859469    1.323884    0.528702
H     -1.744283    0.270832   -0.619567
