10

O     -0.548591    1.594515    0.733431
C     -0.394673    0.387096    0.148254
C     -1.503146   -0.485119    0.017404
O     -2.671757   -0.208986    0.422340
H     -1.379660   -1.441896   -0.446565
C      0.760553    0.025078   -0.292458
C      1.923119   -0.424977   -0.641433
H      2.533668   -0.930566    0.030116
H      2.205136   -0.252523   -1.625008
H     -0.924648    1.737377    1.653919
