8

N     -1.324478   -0.335826   -0.013621
C     -0.246585    0.572464    0.036881
O     -0.475017    1.813408    0.595637
C      0.902971    0.196837   -0.442840
O      2.074161   -0.264556   -0.495931
H      2.532455   -0.606060    0.360381
H     -2.019883   -0.363484   -0.807727
H     -1.443624   -1.012784    0.767219
