14

C     -0.962698    1.116097    0.180958
C     -0.256267   -0.110479   -0.355849
C      1.101046   -0.272011    0.313774
O      1.896527    0.827403    0.027953
H      2.657117    0.596045   -0.574257
H      1.549067   -1.224172   -0.031790
H      0.933957   -0.276203    1.425502
N     -1.030812   -1.280670   -0.020362
H     -0.455200   -2.140520    0.067394
H     -1.875512   -1.397140   -0.618992
H     -0.090972    0.004652   -1.448296
H     -1.593567    1.513785   -0.623602
H     -1.613162    0.791420    1.042549
H     -0.259526    1.851794    0.615018
