14

C      2.026016   -0.042460    0.495276
C      0.824352    0.047727   -0.436207
H      0.967697   -0.495032   -1.393637
O      0.267861    1.256731   -0.539769
C     -0.418913    0.380868    0.192375
C     -1.809216    0.556848   -0.232563
H     -2.443800    1.111891    0.507286
H     -2.146568    0.738086   -1.266297
C     -1.296373   -0.736832    0.101880
H     -1.609327   -1.176748    1.084045
H     -1.310646   -1.523614   -0.688425
H      2.418068   -1.069482    0.493113
H      1.755893    0.260347    1.537161
H      2.774957    0.691671    0.145761
