14

C     -1.322634   -0.794166   -0.145823
C     -0.239829    0.215552    0.204959
C      1.157557   -0.355998    0.131685
H      1.541457   -0.669750    1.143651
C      1.743469   -0.899335   -1.016281
H      2.049553   -1.511482   -1.842248
N      2.125060    0.417904   -0.612241
C     -0.474638    1.171624    1.287954
H     -0.577297    1.512644    2.304005
C     -0.523893    1.598591   -0.080670
H     -0.694168    2.485104   -0.657071
H     -1.772716   -0.514816   -1.110607
H     -2.094992   -0.834715    0.646516
H     -0.916931   -1.821157   -0.253828
