12

C      1.378673   -0.590638    0.170911
H      2.319587   -1.146704    0.348538
C      1.355856    0.636927   -0.229319
H      2.287974    1.140104   -0.445935
O      0.187840    1.423591   -0.362418
C     -0.953834    0.712174    0.144022
H     -0.944572    0.810714    1.271498
H     -1.827054    1.222972   -0.254181
C     -1.011666   -0.707184   -0.150090
H     -1.130339   -0.951145   -1.239596
H     -1.819643   -1.183553    0.415383
O      0.157179   -1.367259    0.331188
