15

C      0.044203    1.511264   -0.348806
C     -0.112767    0.190507    0.404115
C      0.882896   -0.829135   -0.106808
C      2.236956   -0.338278    0.086183
N      3.302492    0.040124    0.231616
H      0.754378   -1.733462    0.542398
H      0.677918   -1.116001   -1.139024
N     -1.463868   -0.246520    0.172808
C     -1.783434   -1.491837    0.818935
H     -2.884258   -1.643902    0.699856
H     -1.742338   -0.205280   -0.828504
H      0.023507    0.370375    1.472088
H     -0.915796    2.062933   -0.195827
H      0.137319    1.295831   -1.423230
H      0.842790    2.133380    0.067298
