13

N      1.932719    0.488249    0.007060
C      0.634046   -0.131525   -0.032517
C     -0.508683    0.473202    0.242735
O     -0.574508    1.839087    0.617454
H     -0.858411    2.540424   -0.062604
N     -1.553801   -0.433597    0.100889
H     -2.298018   -0.137348   -0.571998
H     -2.030566   -0.591001    1.042023
C     -0.969723   -1.655920   -0.286019
C      0.336598   -1.518231   -0.377180
H      1.067061   -2.274709   -0.652891
H      2.521947    0.374376   -0.835836
H      2.301338    1.026993    0.808882
