12

C     -1.559964    0.761992    0.072018
C     -1.176935   -0.446494    0.455659
C      0.228614   -0.892870    0.358978
H      0.358518   -1.961379    0.036905
C      1.050961    0.018319   -0.441828
H      1.089706    0.322857   -1.472791
C      1.754075    0.328582    0.653356
H      2.579133    0.979251    0.850351
O      1.009020   -0.519677    1.465205
H     -1.901659   -1.137859    0.853151
H     -0.852530    1.478709   -0.331764
H     -2.578939    1.068569    0.148531
