11

C      1.523604   -0.510032    0.084393
H      2.450341   -0.771135    0.462682
C      1.511691    0.373158   -0.926281
C      0.738557    1.407589   -0.668593
C     -0.145005    1.569916    0.216051
C     -1.153622    0.682236    0.447784
H     -1.937150    0.941301    0.971300
C     -0.909145   -0.648249   -0.160139
H     -0.695130   -0.614672   -1.188102
H     -1.693238   -1.374660    0.162049
O      0.309096   -1.055452    0.598855
