10

N      1.888136   -0.105763   -0.176911
C      0.446775   -0.012411   -0.165416
C     -0.482460   -0.076762    0.752618
H     -0.391647   -0.231484    1.840292
C     -1.542685    0.125623   -0.216571
H     -2.036017    1.131880   -0.166067
H     -2.255646   -0.713602   -0.364951
O     -0.500078    0.183076   -1.138893
H      2.505939    0.728545   -0.108232
H      2.367683   -1.029103   -0.255869
