10

O      2.255550    0.323551    0.122938
C      0.899746   -0.001690    0.343881
C      0.126009    0.795722   -0.641296
O     -1.107139    0.794590   -0.762846
C     -1.924416    0.034472    0.021368
O     -1.452819   -0.709126    0.915172
H     -2.991603    0.083865   -0.141201
H      0.618419    0.256679    1.400423
H      0.745005   -1.096805    0.224346
H      2.831249   -0.481257    0.243035
