11

N      2.800939    0.355514    0.300882
C      1.531382    0.197335    0.173753
C      0.550520   -0.841775    0.031761
H      0.602869   -1.932898   -0.015398
C     -0.428382    0.035096   -0.018584
C     -1.922280   -0.062288   -0.163948
H     -2.143588    0.328635   -1.182102
H     -2.378478    0.609206    0.588316
H     -2.244588   -1.098310   -0.116118
O      0.468727    1.080474    0.115820
H      3.162880    1.329010    0.381447
