14

C      2.156729    0.061744    0.245513
O      0.839063    0.156408    0.699387
C     -0.018092   -0.112323   -0.349990
C     -1.456871   -0.023756    0.085449
C     -1.755830    1.401691    0.454194
H     -2.055390    1.947895   -0.481961
O     -1.736040   -0.921163    1.087875
H     -1.790681   -1.825369    0.682665
H     -2.080258   -0.290040   -0.797808
H      0.148747    0.654064   -1.156215
H      0.167925   -1.105488   -0.782068
H      2.327320   -0.969492   -0.134110
H      2.363858    0.759454   -0.596140
H      2.889519    0.266374    1.043208
