17

C      1.882908    0.185669   -0.100071
C      0.721519   -0.384827    0.652777
N     -0.534657   -0.005007    0.057870
C     -0.706407    1.301264   -0.498505
H      0.087672    1.970343   -0.104131
H     -0.726671    1.265622   -1.603550
H     -1.673470    1.788501   -0.173207
C     -1.324526   -1.102781   -0.452912
H     -0.894320   -2.139750   -0.415142
H     -1.844201   -0.895840   -1.385720
C     -1.717441   -0.495770    0.768471
H     -1.566046   -0.831524    1.789403
H      0.845899   -1.492826    0.661934
H      0.754004   -0.089478    1.740214
H      2.616514    0.700450    0.586842
H      1.573395    0.846133   -0.934972
H      2.505829   -0.620179   -0.589299
