13

N      2.794538    0.590618    0.004009
C      1.592445   -0.169662    0.078314
O      0.615317    0.232395   -0.563564
C     -0.646584   -0.364085   -0.624378
H     -0.789463   -1.053901   -1.474054
C     -1.770448    0.437858   -0.076089
H     -2.720049    0.403998   -0.659597
H     -1.552209    1.385309    0.419398
C     -1.326922   -0.802399    0.639034
H     -0.703056   -0.698013    1.548932
H     -1.974821   -1.693161    0.656174
H      3.282879    0.761577    0.917752
H      3.198374    0.969467   -0.865930
