14

C      1.881098   -0.312919   -0.763717
C      1.004935   -0.064993    0.187345
O      1.291723    0.725435    1.278430
H      1.795993    1.592344    1.213806
C     -0.371807   -0.644225    0.122945
C     -1.345422    0.508566    0.101360
O     -2.662921    0.087921    0.041763
H     -2.668775   -0.844256   -0.259079
H     -1.230422    1.185994    0.957825
H     -1.152276    1.081210   -0.839334
H     -0.512017   -1.231652   -0.802358
H     -0.490828   -1.274163    1.023772
H      1.598980   -0.939467   -1.594060
H      2.861740    0.130206   -0.668699
