16

C      1.753333   -0.656775    0.352167
C      0.882808    0.478510    0.006512
C     -0.399965    0.163573   -0.673368
C     -1.341402   -0.709442    0.064228
C     -1.700587   -0.022195    1.373889
H     -2.416533    0.785345    1.112251
H     -1.006896   -1.747417    0.217678
H     -2.286719   -0.768001   -0.516659
O     -1.071295    1.349072   -0.980130
H     -0.437918    2.102637   -0.938285
H     -0.196200   -0.321627   -1.673823
H      0.637674    1.035670    0.954362
H      1.442489    1.208336   -0.614500
H      2.709931   -0.619910   -0.249608
H      1.333337   -1.659300    0.152135
H      2.097945   -0.618476    1.413152
