17

C      1.394947   -0.455808    0.463138
C      2.636801    0.287899    0.751648
O      2.726099    1.444787    0.414295
H      3.456588   -0.179609    1.253153
C      0.431808    0.441449   -0.238967
C     -0.871525   -0.221710   -0.579845
H     -0.930406   -0.646394   -1.613080
C     -1.738246   -0.783138    0.487333
H     -2.413231   -1.616352    0.195130
H     -1.381293   -0.775588    1.531781
C     -2.105618    0.536868   -0.179450
H     -2.017453    1.455640    0.442903
H     -2.988159    0.563156   -0.854920
H      0.293519    1.349526    0.373011
H      0.916278    0.779233   -1.185059
H      0.991373   -0.787200    1.461317
H      1.598520   -1.392757   -0.125645
