12

N      2.637873    0.029004    0.780740
C      1.352172   -0.444751    0.474855
O      0.721712   -0.047741   -0.543534
C     -0.557095   -0.505762   -0.865957
H     -0.705171   -1.064027   -1.829146
C     -1.521485   -0.850606    0.177083
H     -1.814117   -1.606755    0.916079
C     -1.718530    0.317926   -0.413297
O     -2.545838    1.439307   -0.437591
H     -2.163627    2.323723   -0.082747
H      3.309276   -0.553933    1.343795
H      3.004828    0.963615    0.479719
