14

C      1.732067   -0.146084   -0.654477
H      1.619066    0.349124   -1.655070
H      2.423848   -1.014947   -0.710722
C      1.756694    0.706767    0.561514
H      2.414982    0.482700    1.411338
H      1.585893    1.801766    0.362581
C      0.586124   -0.238773    0.266526
O     -0.624413    0.358139    0.037283
C     -1.704929   -0.236321    0.622436
C     -2.935662    0.579954    0.242699
H     -3.871300    0.061853    0.442751
H     -1.659538   -0.321954    1.717793
H     -1.860542   -1.238891    0.148851
H      0.537708   -1.143334    0.907809
