13

C      2.059523    0.693804    0.493250
C      0.948497   -0.176123    0.095175
C      0.153962   -1.134779   -0.250201
N     -1.215270   -0.839370   -0.494143
C     -1.785591    0.418015   -0.050273
H     -2.155424    0.934772   -0.952998
H     -2.683746    0.183560    0.562362
H     -1.054311    1.033825    0.478172
H     -1.867756   -1.490070   -0.990993
O      0.551408   -2.459510   -0.402862
H      1.663545    1.503627    1.130756
H      2.850046    0.139307    1.049345
H      2.535118    1.192941   -0.383104
