13

N      1.474785   -0.534877    1.261551
C      0.507777   -0.497798    0.205501
C     -0.287632    0.706566    0.012716
O     -0.098459    1.802707    0.854559
H     -0.203229    2.753779    0.558900
C     -1.189874    0.751034   -0.966908
C     -1.338197   -0.451590   -1.824614
H     -1.981561   -1.189710   -1.284725
H     -1.793129    1.632036   -1.131716
N      0.322487   -1.504422   -0.580473
H      0.894582   -2.369099   -0.440884
H      2.479611   -0.302649    1.101452
H      1.212839   -0.795977    2.234640
