15

C      2.834697    0.342472   -0.137034
C      1.805781   -0.085513    0.575937
C      0.567635   -0.632179   -0.094077
O     -0.475758    0.163456    0.297006
C     -1.696613   -0.160918   -0.200423
C     -2.722293    0.770619    0.297656
O     -2.411066    1.662130    1.039840
H     -3.741114    0.646128   -0.006296
H     -1.978941   -1.180512    0.195501
H     -1.749717   -0.259705   -1.296712
H      0.700190   -0.577731   -1.192726
H      0.472221   -1.693219    0.203183
H      1.881025   -0.030711    1.657392
H      2.788266    0.300309   -1.207505
H      3.725690    0.735376    0.321357
