15

C     -2.130892   -0.753487   -0.395175
N     -1.110866   -0.310566    0.534939
C     -0.094604    0.588854    0.137854
N     -0.031050    1.869028   -0.239187
H     -0.750393    2.609993   -0.365726
O      1.257856    1.771666   -0.372886
C      1.259988    0.511413   -0.009049
C      2.263188   -0.553485    0.172285
H      3.271707   -0.223053   -0.185082
H      1.967564   -1.491134   -0.324261
H      2.334168   -0.821723    1.274296
H     -1.096509   -0.649198    1.529797
H     -1.796965   -1.668194   -0.896626
H     -3.035694   -0.953259    0.228043
H     -2.307498    0.073147   -1.089221
