11

C      2.466957    0.554427   -0.184747
O      1.646702   -0.537547    0.185353
C      0.273280   -0.385900    0.074733
C     -0.642081   -1.338433    0.183497
N     -1.831607   -0.939818    0.041387
H     -2.680577   -1.520663    0.089841
C     -1.739234    0.453827   -0.194323
H     -2.599205    1.081743   -0.355912
N     -0.473066    0.804234   -0.177243
H      3.529641    0.364639    0.139936
H      2.049189    1.463490    0.293309
