16

C      2.344460    0.443656   -0.927125
C      1.407520   -0.257186   -0.007197
H      1.526392   -1.346690    0.072602
O      0.856310    0.390842    1.089091
C      0.004743    0.341480    0.023862
C     -1.082734   -0.676142   -0.088071
C     -2.412042    0.012416   -0.047509
H     -3.182020   -0.733786    0.238205
H     -2.632810    0.535478   -0.993643
H     -2.339391    0.818140    0.732698
H     -0.986173   -1.152304   -1.105634
H     -1.007360   -1.487389    0.653252
H     -0.174646    1.285839   -0.504743
H      3.247636   -0.185371   -1.127982
H      1.831520    0.562771   -1.919552
H      2.598595    1.448247   -0.545376
