12

C     -1.096869   -0.781821    0.171637
C     -0.226516    0.400647    0.156488
O      1.058994    0.358795    0.649921
C      2.027402   -0.487243    0.143276
O      1.724625   -1.248706   -0.804764
H      3.010405   -0.465200    0.578916
C     -0.657762    1.535044   -0.332171
H     -1.659816    1.604686   -0.727467
H     -0.048479    2.424059   -0.360393
H     -1.135812   -1.312639   -0.817718
H     -2.172691   -0.505283    0.373672
H     -0.823481   -1.522339    0.968603
