12

C     -1.298284   -0.027505    0.544119
C     -0.281067    0.028980   -0.530725
C      1.120027   -0.445792   -0.362583
H      1.574191   -0.851618   -1.292077
C      1.888233    0.218015    0.666727
H      2.461206    0.946459    1.204076
N      1.409606   -1.037700    0.856891
N     -0.614509    0.507961   -1.659887
H     -1.535682    0.858010   -1.881301
H     -2.183457   -0.566883    0.108445
H     -1.571901    0.980551    0.921277
H     -0.968363   -0.610478    1.425037
