15

O     -2.415483    0.827211    0.144370
C     -1.607486   -0.029243   -0.675038
C     -0.413222   -0.382935    0.181486
H     -0.777776   -0.790514    1.167836
O      0.459712   -1.266383   -0.302347
C      1.720307   -0.748455   -0.288828
H      2.219923   -1.309151    0.599304
H      2.348033   -0.923627   -1.175177
C      1.627603    0.634467    0.194686
H      2.485197    1.299848    0.288081
C      0.373288    0.862888    0.479603
H     -0.027503    1.786353    0.860700
H     -2.173473   -0.914602   -0.963118
H     -1.280483    0.593878   -1.562596
H     -2.538637    0.360264    1.051038
