16

C      1.937691   -0.576071    0.538287
C      1.339689    0.597529   -0.178087
C     -0.136393    0.489416   -0.334259
C     -0.848598   -0.535989    0.112587
C     -2.325339   -0.629893   -0.051305
H     -2.593128   -1.082564   -1.031476
H     -2.817726   -1.143951    0.802306
H     -2.792954    0.397951   -0.070631
H     -0.296795   -1.323456    0.615260
C     -0.825283    1.609255   -1.035128
H     -0.416059    2.548150   -0.593432
H      1.776778    0.686386   -1.180843
H      1.585819    1.540434    0.371968
H      3.002784   -0.340562    0.729784
H      1.470327   -0.803511    1.491211
H      1.939186   -1.433124   -0.186241
