14

C     -2.086841   -0.898469    0.250777
C     -1.258852   -0.145406   -0.439584
C     -0.066905    0.512726    0.193143
C      1.082570   -0.429504    0.184462
C      2.279789   -0.111334   -0.282529
H      2.498633    0.869346   -0.692982
H      3.085803   -0.834569   -0.266608
H      0.911602   -1.411561    0.581198
O      0.234522    1.702496   -0.458878
H     -0.043959    2.469170    0.096043
H     -0.348902    0.680676    1.268014
H     -1.423001    0.018121   -1.497162
H     -1.936537   -1.069603    1.300949
H     -2.927920   -1.352088   -0.236843
