15

C      3.373482    1.006663   -0.252870
C      1.893308    0.463016   -0.326995
C      0.536215   -0.044078   -0.419291
C     -0.523646   -0.445618   -0.480104
C     -1.076960   -1.281442    0.715562
O     -2.215083   -0.971993    1.042082
C     -3.083810   -0.007512    0.510381
H     -3.353073    0.328960   -0.447538
H     -3.672770    0.604126    1.289517
H     -0.465636   -1.983175    1.116919
H     -1.105696   -0.992871   -1.393765
H     -1.376373    0.473681   -0.521082
H      3.445086    1.300411    0.856277
H      3.664337    1.580717   -1.006765
H      3.960617   -0.030884   -0.229230
