8

O      2.490208   -0.967763   -0.558624
C      1.782485    0.020955   -0.243838
N      0.994727    0.717994    0.465143
C     -0.410954    0.688303    0.256150
C     -1.130490   -0.389401    0.440755
H     -0.675011   -1.305851    0.762606
H     -2.192300   -0.392540    0.277605
H     -0.858664    1.628302   -0.070963
