19

C     -2.340191    0.293441   -0.659219
C     -1.845071   -0.545466    0.485606
C     -0.429842   -1.015490    0.234902
C      0.472168    0.203596    0.081685
C      1.896047   -0.182052   -0.170108
H      2.130236   -1.074191   -0.786287
C      2.860935    0.947612   -0.334707
H      2.473904    1.986232   -0.156262
H      3.685606    0.900743   -1.053223
C      2.921909    0.115105    0.908447
H      0.090286    0.759276   -0.807191
H      0.396830    0.816580    0.993240
H     -0.436647   -1.607667   -0.705776
H     -0.091615   -1.666181    1.050254
H     -1.875633    0.060169    1.422192
H     -2.485354   -1.432622    0.613705
H     -1.875807    1.288616   -0.678807
H     -2.088517   -0.223831   -1.611004
H     -3.459243    0.376130   -0.531337
