8

O      2.435036   -0.475214   -0.228824
C      1.237196   -0.124885   -0.082057
O      0.798885    1.119708    0.273918
C     -0.425056    1.180383    0.343385
C     -0.984101   -0.153000    0.006580
H     -1.584052   -0.567219    0.855203
H     -1.630578   -0.029209   -0.909589
O      0.152671   -0.950564   -0.258616
