17

C     -1.839109    0.456789   -0.058988
C     -2.456784   -0.746598    0.491344
O     -1.913903   -1.831835    0.522098
H     -3.454278   -0.681220    0.897844
C     -0.459769    0.280383   -0.595208
C      0.553728   -0.190817    0.390647
C      1.861146   -0.306267   -0.323351
C      2.916171    0.377582    0.035155
H      2.922268    1.071103    0.866711
H      3.844099    0.265234   -0.508196
H      1.892904   -0.991197   -1.161224
H      0.312378   -1.193206    0.786393
H      0.649706    0.497478    1.278961
H     -0.415645   -0.398847   -1.470588
H     -0.134124    1.285083   -0.986131
H     -1.809245    1.253429    0.722378
H     -2.469546    0.852905   -0.887844
