11

O     -1.127830    1.370746   -0.471188
C     -0.714109    0.365135    0.382225
H     -0.630684    0.728719    1.430437
C     -1.455573   -0.887465    0.245298
H     -2.442301   -1.265147    0.350465
O     -0.246826   -1.433632   -0.108412
C      0.457274   -0.402621   -0.013710
N      1.855606   -0.127341   -0.220691
H      2.426272   -0.714919   -0.845591
H      2.266136    0.675103    0.275726
H     -0.387966    1.691421   -1.024559
