11

C      1.899891    0.182909   -0.027073
C      0.559339    0.223868   -0.067516
C     -0.506842   -0.690544    0.260001
H     -0.599133   -1.008234    1.323979
H     -0.521398   -1.552901   -0.457763
C     -1.392411    0.401651   -0.171269
H     -2.079175    0.165405   -1.028172
H     -1.954737    0.817719    0.711527
O     -0.299658    1.177031   -0.445486
H      2.361609   -0.722202    0.325272
H      2.532515    1.005298   -0.327669
