10

C      0.069107    0.724018    0.082632
C     -1.099190    0.020009   -0.443844
O     -1.303998   -1.128132    0.354976
H     -1.106701   -0.911191    1.318317
H     -1.977184    0.679751   -0.414776
H     -0.996613   -0.342830   -1.478452
C      1.296253    0.386870   -0.196708
N      2.510003   -0.048771   -0.234025
H      2.673791   -0.944690    0.274598
H     -0.065469    1.564965    0.737282
