14

C      2.254702    0.219571    0.006563
C      0.761028    0.171556   -0.021911
C      0.061472   -0.998419    0.202921
H      0.635095   -1.888970    0.402569
C     -1.317846   -1.064865    0.181180
H     -1.877619   -1.975544    0.355807
C     -2.036235    0.085848   -0.076179
H     -3.127555    0.104791   -0.108216
C     -1.306860    1.238458   -0.296642
H     -1.892180    2.139437   -0.498746
N      0.036950    1.272924   -0.269178
H      2.589562    0.768808   -0.893148
H      2.573023    0.730919    0.957275
H      2.646463   -0.804515    0.057704
