13

C     -0.770829   -1.034823   -0.076315
H     -1.408511   -1.843864    0.212545
H     -0.729362   -1.228988   -1.238369
C     -1.337930    0.305073    0.142346
H     -2.351636    0.507020    0.349591
C     -0.519455    1.329229   -0.009414
H     -0.948490    2.355732    0.167900
N      0.932314    1.199639   -0.149435
H      1.437736    1.981459   -0.500676
C      1.388410   -0.150317    0.118676
H      2.545632   -0.181770    0.210425
C      0.668041   -1.126216    0.205694
H      1.094079   -2.112172    0.567034
