14

O      3.041467    0.125709   -0.346465
C      1.827426    0.578456    0.181909
C      0.746529   -0.457662    0.060817
C     -0.608462    0.190820    0.079828
C     -1.774549   -0.717322   -0.032446
H     -1.556708   -1.419699   -0.881734
H     -2.690006   -0.148652   -0.247067
H     -1.858926   -1.272602    0.931676
C     -0.747778    1.505225    0.191188
H     -1.736946    1.937298    0.201448
H      0.082106    2.190474    0.274445
H      0.843577   -1.068782   -0.859288
H      0.828377   -1.171002    0.909661
H      3.603892   -0.272261    0.345900
