12

C      1.546100   -0.073143   -0.004415
N      0.083440    0.018240   -0.016350
C     -0.916314   -0.957248   -0.141676
H     -1.031138   -1.550662    0.867440
H     -0.853200   -1.638144   -0.940362
C     -2.187214   -0.142153   -0.064314
N     -1.812887    1.028537    0.024343
C     -0.585094    1.275685    0.099153
H     -0.145606    2.272402    0.256495
H      1.981171   -0.279218    0.985778
H      2.003815    0.889031   -0.354122
H      1.916927   -0.843326   -0.711971
