14

C     -1.784309   -0.158682    0.270085
C     -0.462684   -0.074019   -0.515396
H     -0.781932    0.444464   -1.528597
C      0.602661    0.862192    0.017953
H      0.291349    1.285113    1.030355
H      0.910699    1.629004   -0.707066
C      1.721404   -0.161152    0.201377
H      1.889947   -0.441562    1.321851
H      2.639639    0.168842   -0.306518
C      1.245198   -1.446667   -0.464941
O      0.046445   -1.282692   -0.813377
H     -2.595305   -0.599695   -0.341956
H     -1.607805   -0.990431    1.101873
H     -2.115308    0.765285    0.734357
