17

C      2.757742    0.206067   -0.498204
C      1.322541    0.329583   -0.970732
C      0.455105   -0.450706   -0.043069
C     -0.950674    0.014883    0.041293
C     -1.827157   -0.783311    0.986654
H     -2.058034   -0.082932    1.841404
H     -2.802172   -1.049653    0.538530
H     -1.298185   -1.635029    1.433291
C     -1.467921    1.236043   -0.487145
H     -0.821887    2.080898   -0.795557
H     -2.482783    1.561758   -0.182680
O     -1.522035    0.105072   -1.331192
H      0.903643   -0.465506    0.971623
H      0.492157   -1.525746   -0.387117
H      3.208640   -0.728702   -0.917745
H      3.357991    1.108080   -0.795789
H      2.733027    0.079201    0.596435
