17

C      2.607761   -1.013762    0.146516
O      1.220866   -1.140329   -0.202736
C      0.352024   -0.086200    0.107898
C      0.407250    1.240851    0.108610
H      1.211982    1.911264   -0.154974
C     -0.971370    1.491945    0.581217
H     -1.047788    1.887565    1.603396
H     -1.663831    1.923558   -0.164417
C     -1.033127   -0.007570    0.579673
C     -2.007516   -0.593380   -0.404155
H     -2.912238    0.060946   -0.518673
H     -2.284004   -1.611894   -0.071695
H     -1.510093   -0.634824   -1.413544
H     -1.178682   -0.459476    1.582897
H      3.162857   -1.919003   -0.160432
H      2.643381   -0.970221    1.255115
H      3.002527   -0.079471   -0.277956
