14

O      2.783043    0.856451    0.875364
C      2.535197   -0.374857    0.312558
N      1.330830   -0.358962   -0.449070
C      0.186061    0.156224    0.156925
C     -1.088544   -0.918616    0.025491
C     -2.038724   -0.107638    0.338766
C     -3.085046    0.776353    0.673489
H     -3.935438    1.503575    0.966199
H     -0.898892   -1.295034   -0.865785
H     -0.857514   -1.617953    0.868663
H     -0.202460    1.023858   -0.399030
H      0.325900    0.483172    1.182604
H      1.213400   -1.089206   -1.151042
H      3.732187    0.962633    1.166182
