10

O      1.984543   -0.554761    0.543662
C      0.654710   -0.275337    0.305133
C     -0.253174   -1.078585   -0.160544
C     -1.455360   -0.607528   -0.309492
H     -2.352830   -1.111348   -0.681322
O     -1.379372    0.710138    0.110441
C     -0.058876    1.005467    0.521662
H      0.013216    1.241596    1.593434
H      0.309568    1.808162   -0.136980
H      2.537576   -1.137804   -0.060175
