14

C     -0.662506    1.532099   -0.005075
C     -0.043215    0.167611   -0.068334
C     -0.988707   -0.958706   -0.381162
H     -0.870061   -1.373568   -1.390730
H     -2.041241   -0.623030   -0.218808
H     -0.819743   -1.776784    0.366587
O      1.188967    0.198190   -0.831129
C      1.214006   -0.173506    0.582832
O      1.524453   -1.523443    0.692837
H      2.334615   -1.670411    0.143045
H      1.664617    0.560124    1.252943
H     -0.156861    2.225564    0.686074
H     -0.599933    1.971515   -1.037705
H     -1.744391    1.444345    0.208624
