13

C      2.455760    0.415724    0.497958
N      1.432627   -0.320011    1.236746
C      0.418521   -0.717741    0.538922
C     -0.473226   -1.007087   -0.357773
C     -1.482139   -0.042250   -0.709657
O     -1.378658    0.538457   -1.835261
N     -2.580422    0.317252    0.088019
H     -2.512768    0.807404    1.003352
H     -3.535031    0.080082   -0.253405
H     -0.450829   -1.957256   -0.831793
H      2.074793    1.466010    0.422936
H      3.428332    0.411422    1.008817
H      2.603039    0.007994   -0.524375
