8

O      0.378940   -0.866847   -0.297670
C     -0.891872   -0.403022    0.085704
N     -1.119195    0.854058   -0.146923
H     -2.057416    1.226630    0.128384
H     -1.652885   -0.997963    0.536426
C      1.503416   -0.178529    0.173328
O      1.321738    0.824390    0.903399
H      2.517273   -0.458718   -0.053813
