12

C     -1.822818    0.453903    0.241228
C     -0.697921   -0.468938   -0.060304
O     -0.902932   -1.496117   -0.661608
C      0.652696   -0.111296    0.382322
O      1.601563   -1.019342    0.056869
C      2.765287   -0.679887    0.048512
H      3.109116    0.320852    0.288196
H      0.619060    0.079740    1.477176
H      0.928216    0.864121   -0.102787
H     -2.219568    0.278824    1.254211
H     -1.429510    1.491219    0.224237
H     -2.603188    0.286920   -0.500281
