10

N      1.393134   -0.133293   -1.190455
C      0.040491   -0.299536   -1.588329
O     -0.853582   -0.369662   -0.724309
C     -0.680684   -0.301543    0.655276
C     -1.230089    0.937528    1.233423
N     -1.677096    1.903663    1.698874
H      0.403789   -0.403414    0.913832
H     -1.229691   -1.138886    1.138716
H      1.714530    0.490613   -0.436786
H      2.119199   -0.685470   -1.700243
