14

C      1.784960   -0.180150   -0.042973
C      0.357646   -0.029805   -0.502268
H      0.325552    0.521619   -1.452282
C     -0.589077    0.562070    0.497553
C     -1.458654    1.665412   -0.080208
H     -1.613294    1.484608   -1.156312
H     -0.168832    0.798278    1.494001
C     -1.239691   -0.774786    0.364262
H     -2.293807   -0.716643   -0.018824
H     -1.255953   -1.372189    1.305885
O     -0.312645   -1.228439   -0.555528
H      1.865500   -0.488091    1.016295
H      2.347214    0.751706   -0.224869
H      2.251082   -0.993590   -0.644732
