15

C     -1.946074   -0.772127   -0.567293
O     -1.584898    0.538604   -0.447391
C     -0.323328    0.727460    0.057533
O      0.051666    2.085117    0.176915
H     -0.719877    2.675392    0.206486
C      0.647648   -0.322332    0.058716
C      2.125217   -0.076718    0.343703
H      2.734854   -0.436708   -0.508818
H      2.320437    0.997411    0.561825
H      2.469558   -0.642034    1.236654
H      0.421462   -1.330269   -0.272821
O     -0.081613    0.008805    1.334985
H     -1.275321   -1.300055   -1.267411
H     -2.996752   -0.889318   -0.900950
H     -1.842978   -1.263229    0.440965
