11

C     -1.565534   -0.210328    0.284541
H     -2.263032   -1.006271   -0.041616
H     -1.966046    0.832661    0.378083
C     -0.142851   -0.428730    0.020079
C      0.825941    0.725819   -0.084168
C      2.208092    0.190354   -0.359919
H      2.118595   -0.831920   -0.740036
H      0.786487    1.376746    0.817758
H      0.526332    1.327575   -0.968838
H      0.175554   -1.330078   -0.524458
O     -0.703539   -0.645826    1.314404
