13

C      0.016772    1.106625    0.689068
C      0.421059   -0.060387   -0.109993
N     -0.459147   -0.876677   -0.521518
C     -1.839552   -0.687822   -0.225549
H     -2.493945   -0.986377   -1.071570
H     -2.118790    0.336181    0.056115
H     -2.121201   -1.371568    0.619235
C      1.801537   -0.336455   -0.461842
C      2.949525   -0.581234   -0.742466
H      3.966760   -0.789626   -1.005646
H     -0.735504    0.870350    1.471721
H     -0.321431    1.955593    0.030708
H      0.933917    1.421397    1.271738
