12

C     -1.506631    0.407154   -0.083400
C     -0.090117   -0.020668   -0.104922
C      0.845944    0.876004   -0.324411
O      2.166341    0.451259   -0.339950
H      2.563873    0.153927    0.533310
H      0.544299    1.898804   -0.481987
C      0.208099   -1.435665    0.121160
O      1.411859   -1.835191    0.109140
H     -0.566139   -2.154290    0.298705
H     -1.926265    0.554171   -1.107382
H     -2.119629   -0.291010    0.515598
H     -1.531635    1.395504    0.450551
