13

C      1.662019   -0.012990    0.373701
C      0.472904   -0.486316   -0.450072
H      0.807009   -0.987382   -1.384446
C     -0.370830   -1.379805    0.404662
N     -1.600670   -0.659907    0.559736
H     -2.448005   -0.957970    1.094890
C     -1.511280    0.567308   -0.141701
H     -2.335830    1.306516   -0.176167
C     -0.346621    0.692039   -0.723543
H     -0.031839    1.542556   -1.321320
H      1.283627    0.226756    1.396288
H      2.415241   -0.794820    0.428092
H      2.004276    0.944014   -0.060121
