12

N      3.365352   -0.003953    0.193928
C      2.149782    0.017842   -0.178556
C      0.852666    0.072228   -0.067567
C     -0.075118   -1.054436    0.173779
H      0.063848   -1.833347   -0.610256
H      0.162917   -1.515799    1.163538
N     -1.384038   -0.535005    0.221337
H     -2.067832   -0.990539   -0.446888
C     -1.326167    0.843664    0.024522
H     -2.165796    1.572865    0.000031
N      0.033212    1.217366   -0.151702
H      0.391174    2.209113   -0.322168
