11

C      2.082645    0.447644    0.374657
C      0.855827    0.323284   -0.080492
O      0.247620   -0.932607   -0.178341
C     -1.159366   -0.999826    0.057166
H     -1.622262   -1.998555   -0.024383
C     -1.913607    0.168080   -0.456114
H     -2.335053    0.776668   -1.238442
N     -1.734285   -0.002929    0.867101
H      0.335336    1.229175   -0.376179
H      2.669089   -0.413542    0.690741
H      2.574055    1.402609    0.460116
