15

C     -1.418604   -1.525337   -0.265019
C     -0.402217   -0.502043   -0.173137
C      0.992905   -0.846050   -0.328528
C      1.881413    0.327515   -0.202157
C      2.610338    1.303191   -0.100661
H      3.238881    2.149543   -0.001193
H      1.256129   -1.610455    0.452896
H      1.227968   -1.347257   -1.301377
C     -0.712886    0.732524    0.046634
C     -1.087021    1.963565    0.180358
H     -1.291974    2.549142   -0.653875
H     -1.170442    2.328446    1.149605
H     -1.565966   -1.948212   -1.282509
H     -2.407761   -1.179845    0.156127
H     -1.150764   -2.394729    0.407231
