17

C     -2.819409    0.114714    0.366859
C     -1.987159   -0.589784   -0.598726
C     -0.653952   -0.489041   -0.493008
C     -0.135821    0.322789    0.586785
C      1.156009    0.492519    0.786163
C      2.133605   -0.139465   -0.085195
C      3.437398    0.067815    0.164404
H      3.760108    0.689364    0.992767
H      4.219301   -0.366796   -0.437252
H      1.905883   -0.767810   -0.924808
H      1.504484    1.125037    1.628687
H     -0.779796    0.835926    1.290927
H     -0.043452   -1.000213   -1.193795
H     -2.446114   -1.186709   -1.390941
H     -3.901580    0.048841    0.062608
H     -2.741128   -0.352666    1.383503
H     -2.608376    1.195476    0.457762
