12

O      3.054278   -0.751503   -0.398871
C      2.531129    0.126437    0.349924
C      1.252933    0.843660    0.033601
H      1.388484    1.892626   -0.305543
C      0.243089   -0.035474   -0.606164
N      0.062134    0.621866    0.690703
C     -1.220211   -0.125954    0.711954
H     -1.486946   -0.633949    1.563317
H     -1.920201    0.871248    0.633368
C     -1.106392   -0.618709   -0.651850
H     -0.970851   -1.831388   -0.601703
H     -1.827447   -0.358860   -1.354662
