17

C     -2.086651   -0.048225    0.524362
C     -1.256179   -0.085046   -0.721550
H     -1.798783   -0.537834   -1.595580
C     -0.508231    1.158323   -1.054458
H     -0.462754    1.540404   -2.097186
H     -0.503256    1.967127   -0.292956
C      0.196230   -0.150509   -0.734064
C      1.054438   -0.146840    0.482495
C      2.528336   -0.225186    0.121194
O      3.312368   -0.202179    1.271331
H      4.171176    0.268773    1.027839
H      0.909936    0.794599    1.045922
H      0.821647   -0.968429    1.191328
H      0.683134   -0.666664   -1.612143
H     -2.571435   -1.035030    0.678528
H     -2.936605    0.668282    0.347998
H     -1.553371    0.265174    1.416939
