11

N      2.326902    0.249365   -0.294985
C      1.068021   -0.002296   -0.152107
C      0.037961    1.003115    0.084686
H      0.243186    2.058144    0.161759
N     -1.194672    0.313276    0.180697
H     -1.523189    0.418624    1.164519
H     -1.886778    0.657100   -0.517788
C     -0.862270   -1.049421    0.001529
H     -1.600405   -1.875766    0.018126
N      0.381044   -1.247634   -0.183797
H      3.010198   -0.524507   -0.462641
