11

O      2.098676    0.211979    0.445182
C      0.737351    0.133908    0.261409
C     -0.105313   -1.040870    0.088452
H     -0.044710   -1.611521    1.090406
H      0.131839   -1.683860   -0.732304
C     -1.496636   -0.465866   -0.023260
H     -2.350809   -1.032509   -0.223334
C     -1.335421    0.820991    0.153111
C     -0.160571    1.290880    0.276008
O      0.243183    2.624838    0.412068
H      2.282410    0.752030    1.243152
