15

O      3.463358    0.031431    0.026547
C      2.185512   -0.474346   -0.192347
C      1.135746    0.298669   -0.400367
C     -0.173501   -0.327080   -0.622088
C     -1.195195    0.087561    0.414635
H     -0.785652    0.151971    1.450863
C     -2.529807   -0.537527    0.205770
H     -3.297901   -1.293158    0.141305
C     -2.356436    0.890490    0.043203
H     -2.873791    1.793377   -0.199063
H     -0.551825    0.008366   -1.610644
H     -0.073644   -1.414745   -0.563145
H      1.232735    1.359299   -0.407993
H      2.113666   -1.570678   -0.179322
H      3.706735    0.996369    0.027124
