16

C      1.966335    0.631345   -1.190474
N      1.310978   -0.220781   -0.252806
C      1.312325   -0.872402    0.831674
H      1.871732   -1.169678    1.735035
C      0.092902   -0.939496    0.051513
C     -1.062997   -0.084474    0.385244
O     -0.804171    1.120116    0.950842
H     -1.117740    1.870229    0.392540
C     -2.262279   -0.214075   -0.454921
H     -2.069698   -0.998544   -1.235620
H     -2.486897    0.737380   -0.951116
H     -3.115378   -0.603141    0.140832
H     -0.096074   -1.838815   -0.554143
H      1.236871    1.243983   -1.774069
H      2.643493    1.345246   -0.666236
H      2.580599   -0.006891   -1.865417
