10

O     -1.202883    1.073542    0.088180
C     -0.647233   -0.045606   -0.535615
C      0.520575   -0.610986    0.256046
N      1.488366    0.393066    0.353039
C      2.289830    1.243463    0.449575
H      0.227676   -0.899658    1.287053
H      0.875072   -1.496455   -0.308499
H     -1.372308   -0.830717   -0.759175
H     -0.211955    0.321336   -1.498700
H     -1.967141    0.852016    0.668096
