8

C      0.913240    0.541292   -0.067614
O      1.750191   -0.265195    0.650111
H      2.200249   -1.063874    0.178009
C     -0.355725    0.214334   -0.057887
C     -1.598933   -0.189617   -0.035934
H     -1.880567   -0.864241   -0.791611
H     -2.170580    0.226969    0.761109
H      1.142125    1.400332   -0.636183
