11

C     -1.293083   -0.383278   -0.111538
C     -0.434835    0.795483   -0.019267
C      0.855877    0.734358    0.097682
N      1.489422   -0.514121    0.140591
H      2.402241   -0.613379   -0.361256
H      1.142486   -1.365179    0.626106
H      1.456842    1.632768    0.163139
H     -0.902590    1.770098   -0.050342
H     -0.784179   -1.339929   -0.122160
H     -2.065586   -0.413494    0.711485
H     -1.866595   -0.303326   -1.074442
