11

N      1.812530   -0.948712    0.002019
C      0.702021   -0.277390    0.015925
C     -0.682068   -0.777294   -0.102958
H     -0.794977   -1.236371   -1.126868
H     -0.926729   -1.532672    0.672620
C     -1.506071    0.434567   -0.019918
H     -2.596068    0.451608   -0.071703
N     -0.763932    1.464036    0.121423
N      0.587615    1.131036    0.153835
H      1.421613    1.780352    0.260942
H      2.746066   -0.489159    0.094683
