10

C      1.656614   -0.063979   -0.359098
C      0.368490    0.002958   -0.090984
C     -0.975295    0.671387   -0.113933
H     -0.958070    1.620514    0.461233
H     -1.487050    0.773090   -1.086716
C     -0.890435   -0.614020    0.516116
H     -0.824561   -0.692854    1.607108
H     -1.246215   -1.521270    0.004849
H      2.113586    0.749258   -0.877389
H      2.242936   -0.925084   -0.061187
