15

C     -1.654692    0.683150   -0.288659
C     -0.944796   -0.634621   -0.553919
C      0.099360   -0.784540    0.556726
C      1.027720    0.374467    0.465323
C      2.328221    0.199302    0.254720
H      2.759673   -0.788561    0.142177
H      3.011691    1.037654    0.186752
H      0.637705    1.379825    0.572270
H     -0.382436   -0.782004    1.552631
H      0.645708   -1.732487    0.405411
H     -0.444383   -0.522751   -1.535036
H     -1.663747   -1.456837   -0.554425
H     -0.983021    1.483912   -0.661707
H     -2.588799    0.766248   -0.888335
H     -1.848204    0.777244    0.799170
