10

N      2.181054    0.235330    0.115639
C      1.069887   -0.627982    0.236245
N      0.541752   -1.771611    0.372615
N     -0.347034   -0.731688    0.282544
C     -1.629514   -0.141984    0.250757
N     -1.806318    1.088919   -0.068778
H     -2.766607    1.521885   -0.090232
H     -2.499385   -0.734813    0.501346
H      2.535884    0.833813    0.904435
H      2.720280    0.328131   -0.778750
