13

N      3.251478    0.763239    0.961846
C      2.378887    0.177277    0.486634
C      1.275030   -0.554321   -0.112542
C      0.211337    0.391392   -0.585358
H      0.258460    0.675020   -1.677175
C     -0.488413    1.291172    0.262427
H     -0.613254    2.205343    0.827113
N     -1.114455    0.121594   -0.062351
C     -2.263856   -0.680525    0.079352
H     -2.663019   -1.146670   -0.793231
H     -2.737695   -0.831353    1.021359
H      0.856226   -1.289006    0.599549
H      1.649274   -1.123163   -1.007623
