12

N     -1.052325    1.539028    0.625535
C     -0.708495    0.251511    0.128060
C     -1.405999   -0.852210    0.068009
H     -2.425633   -0.954071    0.415219
O     -0.627811   -1.846927   -0.505601
N      0.505704   -1.438856   -0.806747
C      0.614367   -0.064553   -0.451399
N      1.668953    0.071287    0.534742
H      2.492872   -0.488189    0.263499
H      1.881801    1.057376    0.749242
H      0.874765    0.602442   -1.291746
H     -1.818201    2.123163    0.271186
