11

C      2.952494    0.351147    0.412561
C      1.758654    0.355990    0.246185
C      0.314068    0.385216    0.054999
C     -0.399417   -0.719174   -0.060655
H     -0.009563   -1.734626   -0.028174
C     -1.805808   -0.298485   -0.239348
H     -2.155931   -0.675573   -1.221858
H     -2.453798   -0.632387    0.593802
C     -1.695879    1.170026   -0.196894
O     -0.511274    1.466465   -0.034035
H      4.006456    0.331400    0.569246
