13

C     -1.749623   -0.303244    0.089010
H     -2.296302   -0.852464   -0.658823
H     -2.278543   -0.274619    1.069931
C     -1.151512    1.004289   -0.308685
H     -1.115608    1.350523   -1.382295
H     -1.119049    1.865297    0.369905
C     -0.293283   -0.222388    0.090149
N      0.555251   -0.049553    1.197671
C      1.765644   -0.244322    0.830136
H      2.649694   -0.186767    1.457160
C      1.788481   -0.614523   -0.588033
H      2.683621   -0.880639   -1.189939
N      0.561227   -0.591589   -0.976187
