14

C      1.178791   -0.839410    0.137719
H      1.833775   -1.609492    0.319798
C      1.442893    0.424047    0.165229
H      2.438295    0.801137    0.443655
C      0.423174    1.491177   -0.030691
H      0.702695    2.463161   -0.440722
C     -0.835418    1.115431    0.083995
H     -1.583173    1.873655   -0.067772
C     -1.246786   -0.279656    0.299118
H     -2.194530   -0.439096   -0.274185
H     -1.373996   -0.591976    1.324462
C     -0.223952   -1.177930   -0.345382
H     -0.404498   -2.246264   -0.143430
H     -0.157270   -0.984785   -1.471795
