13

O      2.882041    0.394247    0.372138
C      1.710135   -0.337566    0.510425
C      0.636268    0.090357   -0.117153
C     -0.660089   -0.623139   -0.030131
H     -0.619434   -1.686510    0.287921
C     -1.872754    0.175124    0.186744
H     -2.793809   -0.269778    0.623080
H     -1.725492    1.270693    0.312609
N     -1.578291   -0.392257   -1.132621
H     -1.314160    0.290551   -1.862829
H      0.689766    0.989618   -0.718020
H      1.642656   -1.236354    1.106610
H      3.003162    1.335015    0.745713
