14

O      3.691518    0.112172    0.570995
C      2.578103    0.467712    0.863908
C      1.417649   -0.255487    0.312568
C      0.102713    0.305354    0.768845
C     -0.977397   -0.256284   -0.134320
C     -2.350742    0.209396    0.267330
H     -2.500680    1.259485   -0.032941
H     -2.555147    0.027622    1.347625
H     -3.082831   -0.394896   -0.301761
H     -0.920523   -1.354534   -0.050680
H     -0.765626    0.084741   -1.152682
H      1.470973   -1.356984    0.531854
H      1.457687   -0.149347   -0.807868
H      2.434302    1.301049    1.518440
