11

C      1.242187   -0.800305    0.549168
C      0.422700    0.174083    0.237741
N      0.805545    1.531438    0.423347
O      0.536687    2.033653    1.538711
C     -0.919848   -0.101222   -0.313949
O     -0.997351    0.485024   -1.554887
H     -1.489544   -0.018501   -2.228433
H     -1.126388   -1.181055   -0.432921
H     -1.661364    0.284099    0.415136
H      0.975437   -1.830984    0.417991
H      2.211940   -0.576231    0.948098
