16

C      1.891604    0.316318    0.213732
C      0.512037   -0.355062    0.408183
H      0.418288   -0.706081    1.489935
C     -0.669049    0.646480    0.225306
O     -0.196923    1.486454   -0.830574
H     -0.848159    2.197014   -0.927637
H     -0.929610    1.208466    1.078558
C     -1.700754   -0.285795   -0.376765
H     -2.591295    0.167720   -0.764851
H     -2.006368   -0.899191    0.593381
C     -0.959411   -1.328291   -1.129343
N      0.298030   -1.442844   -0.471315
H      0.155440   -2.317617    0.134130
H      2.533329   -0.464853   -0.297049
H      1.789737    1.145872   -0.520670
H      2.303105    0.631413    1.174980
