12

N      2.203665   -0.407391   -0.094076
C      0.794850   -0.142641   -0.036163
C      0.268289    0.921425    0.659602
H      0.931369    1.579868    1.179298
N     -1.056313    1.154559    0.703008
C     -1.924637    0.348724    0.061844
H     -2.989342    0.564522    0.116584
N     -1.418855   -0.696405   -0.622567
H     -2.121695   -1.316803   -1.119272
C     -0.101193   -0.964052   -0.690706
H      2.609934   -0.918527    0.715638
H      2.803929   -0.123279   -0.873190
