16

C     -0.858662   -1.664487    0.137780
C     -0.468057   -0.314003    0.729048
H     -0.236249   -0.320163    1.800529
C     -1.154359    0.844850    0.074865
H     -1.440305    1.655645    0.790680
H     -1.930036    0.682968   -0.694408
C      0.273397    0.665524   -0.163078
O      0.788746    0.071782   -1.308449
O      1.630358   -0.873482   -0.877881
H      2.536489   -0.720724   -1.277690
N      1.192239    1.604784    0.456600
H      0.640851    2.493527    0.629714
H      1.953147    1.887720   -0.198505
H     -1.965876   -1.811819    0.154144
H     -0.566245   -1.698879   -0.926349
H     -0.395436   -2.503242    0.673000
