14

C     -2.108131   -0.554690   -0.076356
N     -0.708453   -0.736273   -0.449637
C      0.207225    0.070177   -0.023498
N     -0.230785    1.125285    0.816587
H     -0.815969    1.872237    0.398890
H      0.020152    1.160677    1.822273
C      1.607137   -0.065821   -0.363805
O      2.514474    0.839714    0.135578
H      3.503250    0.651118    0.227718
N      2.008410   -1.012205   -1.118794
H      1.383436   -1.737183   -1.536138
H     -2.560882   -1.567970   -0.073468
H     -2.193697   -0.199476    0.991345
H     -2.626168    0.154411   -0.750694
