11

N      2.184468   -0.114203    0.408610
C      0.930764   -0.155159    0.026332
C      0.069247    1.026568    0.044048
H      0.167076    1.510123   -0.968004
H      0.450044    1.765857    0.827061
N     -1.319974    0.775346    0.281807
C     -1.790292   -0.391808   -0.113005
H     -2.854717   -0.578079    0.045581
N     -0.902964   -1.435241   -0.480958
N      0.365641   -1.385583   -0.423449
H      2.700707   -1.017821    0.351977
