12

C     -1.748679   -0.042088   -0.138252
N     -0.418295   -0.531853   -0.464046
C      0.714297    0.178717    0.029370
N      1.852099   -0.543098    0.461167
O      2.195432   -1.722550   -0.087113
H      2.451010   -0.170269    1.219639
C      0.623455    1.477741    0.050132
H      0.821106    2.529028    0.177500
H     -0.245305   -1.376323   -1.040154
H     -2.050672   -0.540535    0.815954
H     -1.731656    1.046857   -0.060450
H     -2.462792   -0.305627   -0.963746
