17

C     -1.966884   -0.036927    0.601430
C     -1.207808   -0.158623   -0.690981
H     -1.777324   -0.727618   -1.473049
C     -0.535385    1.123624   -1.132789
H     -0.679146    1.446503   -2.179075
H     -0.519482    1.983410   -0.424438
C      0.236658   -0.098869   -0.786567
C      1.158964   -0.010873    0.390394
O      2.470837    0.031135   -0.002335
C      3.403830   -0.114389    0.738590
H      3.296561   -0.295920    1.806596
H      0.924862    0.907384    0.965814
H      1.063733   -0.857361    1.099801
H      0.707953   -0.619226   -1.669921
H     -2.461034   -0.996317    0.860795
H     -2.768147    0.719800    0.450466
H     -1.348191    0.301008    1.445268
