14

C     -0.905543   -1.356283    0.651392
C     -0.560775    0.123499    0.732024
H     -0.713685    0.560825    1.744046
C      0.697454    0.487208    0.042880
C      1.559250   -0.695203   -0.386887
H      2.062220   -0.532089   -1.341232
H      0.920261   -1.604867   -0.426894
H      2.307982   -0.837532    0.418039
H      1.299696    1.211454    0.690195
O      0.035055    1.125485   -0.944304
C     -1.170600    0.851136   -0.404621
H     -1.881743    0.254144   -1.035402
H     -1.670913    1.818453   -0.106191
H     -1.978658   -1.406230    0.366956
