10

C     -1.333406    0.455183    0.096570
H     -2.422361    0.557308   -0.033592
C     -0.739590   -0.710297   -0.112712
H     -1.325988   -1.564725   -0.412467
N      0.675096   -0.795848    0.068290
H      1.152844   -1.709808   -0.094105
C      1.350426    0.385020    0.463217
H      2.402737    0.346690    0.604249
N      0.738155    1.463674    0.647914
C     -0.497913    1.572803    0.498456
