12

O     -2.093910   -0.700206    0.527767
C     -1.475265    0.061215   -0.466033
C     -0.002438   -0.009976   -0.213262
N      0.874147   -0.908426   -0.692026
N      2.101777   -0.674511   -0.265823
H      2.974635   -1.230707   -0.493811
C      2.026987    0.413889    0.518639
N      0.745048    0.821327    0.552561
H      0.379124    1.652101    1.087354
H     -1.643656   -0.341175   -1.472899
H     -1.765661    1.117072   -0.444859
H     -2.120787   -0.200605    1.362392
