16

C     -0.720838    1.065973    0.735526
C      0.020377   -0.092586    0.051553
C     -0.960663   -0.829779   -0.828490
H     -1.859062   -1.042328   -0.228990
H     -1.229680   -0.227779   -1.711763
H     -0.509220   -1.790806   -1.104494
C      0.603951   -1.011348    1.041730
O      1.810972   -1.220391    1.088351
H      0.005167   -1.546525    1.774635
C      1.124992    0.549942   -0.732207
H      1.672346   -0.192638   -1.365308
H      0.774078    1.378249   -1.389402
H      1.844308    0.976939    0.001597
H     -0.878860    1.863286   -0.037122
H     -0.028064    1.406684    1.537496
H     -1.669804    0.713109    1.166887
