14

C     -0.402073    1.498319    0.649521
C     -0.304707    0.196413   -0.098303
C      0.936459   -0.578016    0.259685
O      2.100690    0.120309   -0.053782
H      2.830863   -0.315475    0.439659
H      0.887712   -1.540325   -0.291188
H      0.890650   -0.757558    1.362011
O     -1.373019   -0.585387    0.253626
C     -1.522201   -1.704596   -0.207055
H     -2.371175   -2.299749    0.085806
H     -0.376272    0.377284   -1.200836
H     -0.557416    2.373851   -0.032578
H     -1.278835    1.507623    1.337567
H      0.539327    1.707308    1.197180
