14

C      2.166192   -0.192430   -0.076697
O      1.112557    0.314609   -0.856528
C     -0.172475    0.198844   -0.356466
C     -1.087659    1.049861   -0.797636
C     -2.436208    0.943966   -0.286206
N     -3.518834    0.862747    0.134211
H     -0.846506    1.813873   -1.525277
C     -0.573188   -0.824703    0.642926
H     -1.662810   -1.013427    0.529794
H      0.000531   -1.770150    0.472953
H     -0.423453   -0.422832    1.668131
H      3.123368   -0.019921   -0.618225
H      2.256372    0.331847    0.910652
H      2.062114   -1.272284    0.158367
