11

C     -0.595130    1.297181    0.017536
C     -0.171242   -0.112740    0.059376
C     -0.956346   -1.270060   -0.249226
O     -1.279091   -2.032560    0.719789
H     -1.306568   -1.568665   -1.218724
C      1.084249   -0.327083    0.424496
N      2.341769   -0.523590    0.546895
H      2.903005   -0.504247   -0.347220
H     -0.307773    1.779497    0.983274
H     -1.678297    1.418465   -0.154126
H     -0.034576    1.843800   -0.782069
