14

C     -1.747492   -0.166879   -0.076896
C     -0.333666   -0.562910    0.327473
H     -0.233946   -1.649534    0.681757
C      0.781237   -0.014838   -0.486283
N      1.830601   -0.682114   -0.965095
H      2.055653   -0.864108   -2.003638
H      2.645769   -1.102665   -0.297169
C      0.505739    1.224011   -0.463205
C      0.377045    1.505817    0.902113
H      0.626928    2.400016    1.383712
O     -0.106545    0.397429    1.468731
H     -1.783486   -0.162112   -1.128020
H     -2.168551    0.681386    0.439328
H     -2.449286   -1.003499    0.217192
