12

C     -1.330204   -0.710386   -0.192380
C     -0.494632    0.458172    0.187788
O     -1.092486    1.487342    0.588604
O     -0.416212    2.593610    0.954180
C      0.950563    0.460338    0.117064
C      1.657994   -0.583914   -0.294381
H      2.729216   -0.559087   -0.338447
H      1.168577   -1.485684   -0.595103
H      1.493943    1.346414    0.409589
H     -2.327720   -0.350895   -0.523350
H     -0.819652   -1.292891   -0.997671
H     -1.519387   -1.363019    0.684107
