12

N     -1.140851   -0.789687    0.760654
C     -0.684607    0.177189   -0.182979
C      0.641662   -0.078426   -0.808050
C      1.636741   -0.124806    0.295945
O      2.104336    0.891671    0.797254
H      1.938817   -1.108428    0.647473
H      0.838353    0.770066   -1.497161
H      0.681634   -1.031736   -1.361185
C     -1.419524    1.211081   -0.452907
O     -1.988212    2.311484   -0.406209
H     -1.145628   -1.791864    0.536035
H     -1.462722   -0.436544    1.671130
