16

C     -1.460803    0.651569    0.710493
C     -0.278390    0.087971   -0.021399
C     -0.549478   -1.049571   -0.939229
H     -1.656240   -1.234631   -0.968208
H      0.003796   -1.950750   -0.585599
H     -0.175522   -0.761996   -1.955594
N      0.878886    0.044926    0.794021
H      0.989109   -0.489746    1.596264
C      1.698990    0.052273   -0.341906
H      1.666882   -0.774910   -1.043292
H      2.716352    0.465126   -0.112137
C      0.660893    1.163036   -0.607566
O      0.880964    1.383323    0.782884
H     -1.692850    1.658206    0.290651
H     -1.294400    0.701341    1.820467
H     -2.388190    0.053832    0.580149
