9

O     -0.704269   -1.392261    1.131917
C     -0.322647   -1.139186    0.006172
C      0.526195    0.047115   -0.210129
C     -0.151959    1.036479   -1.136145
H     -0.917741    1.601537   -0.577540
O      0.738172    0.685901    0.992912
H     -0.064187    1.140738    1.308047
H      1.492860   -0.211366   -0.684163
H     -0.596424   -1.768957   -0.831070
