11

O      2.344635    1.250142    0.228635
C      2.028336    0.012262    0.798814
C      0.702437   -0.441401    0.303883
O     -0.400525    0.300323    0.663451
C     -1.657698    0.218072    0.054542
H     -2.312573    0.959359    0.598588
H     -1.606280    0.607551   -1.001049
H     -2.158551   -0.740853    0.141991
N      0.517978   -1.469171   -0.429812
H     -0.437301   -1.726768   -0.738666
H      2.979542    1.030485   -0.524546
