17

C     -2.228009    0.361679    0.510757
C     -1.081590    0.218302   -0.457999
C      0.181241   -0.260227    0.208986
O      0.002096   -1.491975    0.801449
H     -0.928827   -1.670386    1.086142
C      1.227881   -0.386912   -0.834110
C      2.399984    0.193288   -0.737193
O      2.661237    0.957284    0.396329
H      2.823654    0.511182    1.278135
H      3.179491    0.103722   -1.505662
H      1.010086   -0.979996   -1.702309
H      0.508329    0.471308    0.988979
H     -0.887589    1.187183   -0.965294
H     -1.314352   -0.513876   -1.277794
H     -2.865546   -0.536864    0.515713
H     -1.825719    0.620379    1.517428
H     -2.862365    1.215909    0.176442
