15

C      1.604291    0.333251   -0.486286
C      2.532940   -0.246497    0.659144
H      1.864339   -0.663784    1.249244
H      3.634300    0.109818    0.507569
C      0.210893    0.095539   -0.146099
C     -0.559839    0.961154   -0.672055
H     -0.331897    1.920172   -1.455666
C     -2.012493    0.829638   -0.184438
H     -2.876105    1.312279   -0.304070
C     -1.881980   -0.416153    0.486324
H     -2.791971   -0.711759    0.865528
C     -0.578229   -1.004606    0.325771
H     -0.258620   -1.572458    1.105328
H     -0.752970   -1.652111   -0.734172
H      2.197343    0.705517   -1.216121
