13

C      2.117680    0.223889    0.073225
C      0.783907    0.129960    0.070119
C     -0.167057    1.222390    0.196276
H      0.120524    2.285198    0.312335
N     -1.452725    0.695408    0.145005
H     -1.960100    1.099658   -0.699521
C     -1.411121   -0.704824   -0.010236
H     -1.975550   -1.069898   -0.909566
H     -1.834693   -1.187297    0.912172
C      0.004723   -1.083131   -0.059906
H      0.453282   -2.073769   -0.172050
H      2.669623   -0.688902   -0.030855
H      2.651507    1.151319    0.173002
