18

C      2.629881    0.692917   -0.317546
N      1.197439    0.860201   -0.459007
C      0.571276   -0.388703   -0.070706
H      1.001709   -0.971379    0.768963
O     -0.102781   -1.021824   -1.090453
C     -0.940611   -0.464213   -0.133980
C     -1.660936   -1.458416    0.732663
H     -1.593736   -2.480886    0.300347
H     -2.729340   -1.202603    0.782329
H     -1.171056   -1.487031    1.726286
C     -1.638527    0.836192   -0.423686
H     -1.849264    1.324136    0.555215
H     -2.592771    0.663578   -0.974177
H     -1.006145    1.508284   -1.014588
H      0.832949    1.671693    0.084460
H      2.913313   -0.339487   -0.022410
H      3.040599    1.366303    0.461359
H      3.098000    0.891236   -1.304957
