15

C     -1.872891   -0.504196    0.042810
C     -1.117097    0.223840   -1.037690
C      0.267652    0.523472   -0.523161
N      0.188909    1.423234    0.585989
H      0.027424    2.392340    0.182194
H      1.040568    1.376622    1.152556
C      0.958796   -0.775894   -0.205564
O      2.265087   -0.598025    0.216358
H      2.334354   -0.221057    1.128525
H      0.372056   -1.375734    0.541017
H      0.983431   -1.373810   -1.139502
H      0.835643    1.011317   -1.335405
H     -1.594452   -1.583230    0.039151
H     -2.966260   -0.483688   -0.234282
H     -1.723220   -0.035191    1.040102
