13

C      1.460724   -0.181528   -0.754506
C      0.579751   -0.678872    0.371462
H      1.175270   -1.243082    1.101289
C     -0.640945   -1.441312   -0.057117
C     -1.418222   -0.319186    0.558648
H     -2.231494   -0.497471    1.272612
N     -0.219089    0.379997    0.932633
C     -1.169035    1.032850    0.075736
H     -1.658901    1.911604    0.543218
H     -0.992042    1.145281   -1.002653
H      1.855456   -1.025222   -1.370036
H      0.955727    0.547481   -1.406090
H      2.302800    0.369460   -0.265197
