13

C      1.503246   -1.210024    1.299716
O      1.277285   -0.857579   -0.081912
C      0.271722   -0.074334   -0.454909
N     -0.846585   -0.176723    0.113616
N     -2.072332    0.162120    0.287669
H     -2.505408    1.099130    0.522009
H     -2.850441   -0.593399    0.222541
C      0.208794    0.996889   -1.507800
C      0.169052    1.794747   -2.279062
H      0.133537    2.605629   -3.036478
H      2.005311   -2.164626    1.386531
H      2.140026   -0.366394    1.657850
H      0.565794   -1.215437    1.870229
