14

O      2.144100    0.207173   -0.115117
C      1.122602   -0.547219    0.378603
C     -0.187450    0.073666   -0.127524
C     -0.239624    1.550971   -0.008596
O      0.740646    2.235541    0.202554
H     -1.204084    2.078970   -0.114274
C     -0.968121   -0.693553   -1.027641
H     -1.601517   -0.294075   -1.850596
N     -1.411383   -0.635119    0.329107
H     -2.214910   -0.019957    0.596029
H     -1.276067   -1.479603    0.921387
H      1.234893   -1.601044   -0.003604
H      1.051012   -0.575773    1.473128
H      2.809904   -0.299979   -0.653456
