11

C     -0.904281    1.082957   -0.332545
C     -0.156934    0.054657   -0.010619
C      1.338287    0.145390   -0.091970
H      1.713672   -0.224573    0.893830
H      1.688304    1.146909   -0.350390
H      1.643789   -0.641217   -0.829602
C     -0.719231   -1.206768    0.434441
O     -1.964697   -1.311539    0.512052
H     -0.130021   -2.062641    0.703498
H     -1.979556    0.984839   -0.262946
H     -0.529333    2.031987   -0.665751
