12

O     -2.241909    0.676140   -0.511467
C     -1.579112   -0.502086   -0.171991
C     -0.139165   -0.151718   -0.008525
N      0.871230   -0.598499   -0.641411
C      2.041978    0.035256   -0.131920
H      2.647496    0.541219   -0.911748
H      2.627897   -0.762335    0.384889
N      1.565857    0.916616    0.890333
N      0.314186    0.789287    0.939527
H     -1.702881   -1.240441   -0.974401
H     -1.956710   -0.844049    0.803474
H     -2.448868    1.140609    0.333241
