12

C      1.812621   -0.153320    0.288742
O      0.610084    0.429588    0.733165
C     -0.616136    0.227621    0.107465
C     -1.200485    1.213231   -0.524403
H     -0.700348    2.180285   -0.542083
H     -2.152024    1.047299   -1.007080
N     -1.254815   -1.033075    0.137963
H     -0.962899   -1.762948   -0.529270
H     -2.004958   -1.224889    0.818446
H      2.612681    0.190700    0.984813
H      1.774737   -1.271527    0.286034
H      2.081541    0.157035   -0.753792
