13

C     -1.491491   -1.051569    0.088239
C     -0.247479   -0.220178   -0.052538
N      0.861426   -0.827500    0.184093
C      2.108790   -0.105391    0.072887
H      2.367798   -0.094472   -1.014720
H      1.943172    0.920581    0.438368
H      2.918775   -0.591981    0.665763
O     -0.322409    1.116141   -0.416377
C     -1.311641    1.764155    0.000035
H     -1.476358    2.791021   -0.212893
H     -1.324022   -1.885326    0.789944
H     -1.709620   -1.439229   -0.931885
H     -2.316941   -0.376253    0.389084
