9

C     -0.986139   -0.475260   -0.121080
C      0.324089    0.118192    0.265176
N      0.457914    1.387154    0.867576
O      0.226941    2.466325    0.295917
N      1.368212   -0.533810    0.048901
N      2.356822   -0.981849   -0.576528
H     -1.831582    0.132633    0.176617
H     -0.988851   -1.510817    0.284789
H     -0.927406   -0.602568   -1.241368
