12

O      2.840361    0.185957    0.675870
C      1.465283    0.383721    0.927673
C      0.683571   -0.530577    0.042720
H      1.227616   -1.433052   -0.304870
C     -0.750498   -0.506722   -0.086639
C     -1.646817    0.430352    0.647876
H     -2.721040    0.221928    0.399452
H     -1.468492    1.487371    0.357604
H     -1.565246    0.301473    1.741559
H     -1.252593   -1.395153   -0.522780
O      0.118498    0.188159   -1.081984
H      3.069356    0.666543   -0.148710
