10

N      2.197055   -0.069165    0.148437
C      0.794227    0.048102   -0.066045
O      0.324299    0.713904   -1.022849
O     -0.137602   -0.574096    0.780367
C     -1.497413   -0.434268    0.504780
N     -1.928479    0.795411    0.359532
H     -2.926061    0.988646    0.152915
H     -2.156402   -1.277774    0.418541
H      2.665835    0.765510    0.562171
H      2.664542   -0.956268   -0.112030
