9

N      1.905518    0.475773    0.037141
C      0.726773    0.000694    0.003728
N     -0.441026    0.703185    0.038375
H     -0.478763    1.730518    0.097507
N     -1.442891   -0.164174   -0.016796
H     -2.445517    0.125791   -0.005155
N     -0.933340   -1.393110   -0.085182
N      0.387010   -1.299158   -0.073061
H      2.722236   -0.179520    0.003444
