15

C     -2.165031    0.764641    0.198912
C     -0.956653    0.266781   -0.598330
C     -0.045313   -0.461930    0.399837
C      1.157224   -0.972610   -0.324133
C      2.349435   -0.579571    0.055218
C      3.499372   -0.192508    0.484541
O      4.522581    0.510470    0.619906
H      1.004209   -1.657831   -1.147196
H      0.243869    0.203307    1.225085
H     -0.576710   -1.348003    0.785573
H     -0.454038    1.159593   -1.003619
H     -1.294735   -0.433849   -1.379718
H     -1.808853    1.660774    0.768554
H     -2.939156    1.064603   -0.536980
H     -2.536201    0.016133    0.905448
