16

C      1.879769   -0.760172   -0.095481
C      0.392667   -0.540670   -0.011237
C     -0.145478    0.655861    0.105116
C      0.572915    1.948311    0.171922
H      1.197778    2.249962   -0.659187
H      0.495879    2.604057    1.023495
C     -1.609166    0.542868    0.162742
H     -1.929128    0.855126    1.186827
H     -2.120333    1.143387   -0.621262
C     -1.893702   -0.917244    0.063444
H     -2.547906   -1.159314   -0.823103
N     -0.608786   -1.535555   -0.042316
H     -0.411030   -2.557871   -0.129861
H      2.070592   -1.840040   -0.320811
H      2.302354   -0.119727   -0.894452
H      2.353576   -0.568979    0.884166
