13

C      1.958027    0.103791   -0.038000
H      2.682824    0.740204   -0.607400
H      2.644919   -0.757139    0.436369
C      0.687855    0.163215    0.421208
H      0.424863   -0.641859    1.237902
O     -0.164702    1.225375    0.317272
C     -1.393467    0.826418   -0.101396
H     -2.164710    1.344581   -0.550054
H     -1.871658    0.725591    1.036802
C     -1.366425   -0.714865   -0.260038
H     -1.979608   -1.334672    0.260272
O     -0.333389   -1.074450   -1.282527
C      0.875471   -0.606189   -0.870411
