9

C     -1.185164   -0.314324    0.234723
O     -1.201187   -1.268481   -0.555481
C     -0.035648    0.634363   -0.026126
C      1.169921   -0.218497   -0.120991
O      1.511723   -0.848855   -1.096254
H      1.805854   -0.290796    0.754125
H     -0.247092    1.107134   -1.017767
H      0.053551    1.341503    0.805584
H     -1.871958   -0.142048    1.022186
