14

C      2.597329    0.593697    0.477740
O      1.504457   -0.073922    0.081750
C      0.366314    0.110352    0.463324
C     -0.664843   -0.782623   -0.147738
C     -2.056478   -0.424457    0.317100
O     -2.373107    0.883005   -0.029406
H     -2.219511    1.480232    0.750489
H     -2.198723   -0.568486    1.399602
H     -2.751900   -1.120472   -0.193705
H     -0.464392   -1.852299    0.046230
H     -0.632242   -0.564740   -1.247409
H      3.485009   -0.091245    0.352805
H      2.807021    1.515269   -0.112858
H      2.601065    0.895689    1.543387
