15

O      2.623481    0.512258    0.039223
C      1.231000    0.211011    0.115727
C      0.402799    1.255626    0.120108
H      0.730301    2.292177    0.058042
C     -1.044385    0.913888    0.386656
H     -1.700708    1.740861    0.121916
H     -1.133158    0.745265    1.512745
C     -1.393364   -0.361698   -0.309053
H     -2.478775   -0.666689   -0.179132
H     -1.313158   -0.093248   -1.404865
C     -0.486539   -1.467167   -0.047782
H     -0.819307   -2.485580   -0.054857
C      0.806708   -1.178298    0.143068
H      1.476285   -2.031585    0.333440
H      3.098821    0.613178   -0.835235
