10

C     -0.691183    0.785743   -0.075270
H     -0.170880    1.724773    0.025286
H     -1.480821    1.022962   -0.757349
C      0.301724   -0.056736    0.504525
C      1.697530   -0.155290   -0.006489
N      2.786585   -0.215645   -0.392381
H      0.324378   -0.081641    1.639491
C     -0.713519   -0.637772   -0.184682
H     -0.499559   -1.229339   -1.127036
H     -1.554255   -1.157056    0.373904
