12

C      1.729482   -0.353630    0.407568
C      0.337808    0.180103    0.348988
O     -0.211243    1.028242    1.079504
C     -1.523832    1.271001    0.716160
C     -1.852567    0.531664   -0.320601
H     -2.801451    0.471834   -0.861416
C     -0.652906   -0.251837   -0.652404
H     -0.283358   -0.064396   -1.683259
H     -0.942799   -1.317857   -0.503993
H      2.043951   -0.362425    1.492293
H      2.448513    0.275303   -0.123869
H      1.708403   -1.408002    0.101029
