14

C     -1.433172   -1.035781   -0.233747
C     -0.214872   -0.189969   -0.047312
C     -0.326102    1.203416    0.356782
N     -1.506563    1.722760    0.559509
H     -1.553097    2.722331    0.847877
H      0.509324    1.847635    0.503040
C      0.948234   -0.754190   -0.262108
C      2.241158   -0.131163   -0.142879
O      2.429477    1.041046    0.184173
H      3.128882   -0.724908   -0.353539
H      0.908838   -1.815526   -0.564218
H     -1.193551   -2.083410    0.084489
H     -1.666519   -1.097521   -1.313922
H     -2.272036   -0.704720    0.381855
