9

C      1.577655   -0.023906   -0.019078
C      0.265727    0.065869   -0.020714
C     -1.072601   -0.527648    0.174180
H     -1.406619   -0.751083    1.222352
H     -1.338632   -1.289689   -0.607803
N     -0.928497    0.856626   -0.225645
H     -1.405690    1.747140   -0.472385
H      2.191817    0.842073   -0.278834
H      2.116840   -0.919381    0.227926
