12

C     -0.903071   -0.620712   -0.282093
H     -1.705022   -1.272056   -0.523909
C     -1.056535    0.882400   -0.297265
H     -1.979195    1.411866   -0.552982
C      0.130393    1.393072    0.056557
H      0.456251    2.407117    0.174373
C      1.061320    0.237844    0.300893
H      2.066471    0.370368    0.603092
C      0.106700   -0.786814    0.765545
H      0.299874   -1.622754    1.399924
C      0.521631   -0.761651   -0.626984
H      1.001183   -1.638679   -1.017149
