13

O     -1.126334    1.463999    0.762264
C     -0.671516    0.190335    0.680147
N     -1.515658   -0.995898    0.516775
H     -2.496897   -0.891581    0.277551
C     -0.610892   -0.546199   -0.565085
H     -0.905407   -0.262082   -1.546490
C      0.863035   -0.874855   -0.227200
H      1.241422   -1.843149   -0.383532
C      1.619610    0.384154   -0.099261
H      1.274847    1.314834   -0.507375
H      2.652459    0.377550    0.256264
N      0.720825   -0.195730    1.013850
H     -1.045495    1.878623   -0.177909
