15

C     -0.773545   -1.260676   -0.491506
C     -0.722723   -0.089158    0.452894
C     -1.014374    1.176823   -0.320215
H     -0.757587    0.985121   -1.399302
H     -2.089584    1.420172   -0.249597
H     -0.375538    2.020683    0.040278
N      0.542984   -0.005740    1.164120
C      1.742494    0.140006    0.455225
C      2.875380    0.440230   -0.113488
N      3.985519    0.115635   -0.686190
H      0.565624   -0.053942    2.207203
H     -1.540412   -0.227995    1.187653
H      0.219543   -1.542752   -0.891742
H     -1.243607   -2.142205   -0.000634
H     -1.414175   -0.976202   -1.354699
