15

N      1.902911    0.459304   -0.462814
C      0.819940    0.406276    0.472560
H      1.152776    0.794752    1.465805
C     -0.428463    1.116509    0.135986
N     -0.826055    2.323133   -0.025229
H     -1.801240    2.482067   -0.283701
C     -1.136585   -0.193125    0.211192
H     -2.013449   -0.242986    0.904768
C      0.115412   -0.914252    0.501891
H      0.311741   -1.583340    1.329782
C     -0.750950   -1.301678   -0.644905
H     -1.264231   -2.275349   -0.550668
H     -0.474264   -0.990431   -1.685494
H      2.713892   -0.040033   -0.005759
H      1.678563   -0.040848   -1.363415
