15

C     -2.155711   -0.019735    0.053406
C     -0.840408   -0.760363    0.108294
H     -0.696844   -1.531741    0.887441
O     -0.194352   -0.866396   -1.113441
C      0.389641    0.033595   -0.225621
N      0.211539    1.437376   -0.479643
H      0.492942    1.747904   -1.419061
H      0.591249    1.984130    0.307889
C      1.675877   -0.349768    0.412522
N      2.607375   -0.848847   -0.310288
H      3.497112   -1.115017    0.125859
H      1.818184   -0.209230    1.462274
H     -2.626019   -0.196702   -0.929254
H     -2.834014   -0.353014    0.868609
H     -1.936570    1.047808    0.251015
