17

C     -2.609004    0.244311    0.696530
C     -1.110270    0.325432    0.693531
C     -0.579484   -0.711416   -0.271562
C      0.945322   -0.770313   -0.197895
H      1.361534   -1.600952   -0.836468
C      1.537851    0.557870   -0.551711
H      2.335265    0.523984   -1.335546
H      0.784583    1.360363   -0.715992
C      2.035760    0.494856    0.843288
H      1.597710    1.243848    1.546894
H      3.141186    0.395248    0.927205
O      1.449192   -0.731502    1.066806
H     -0.914295   -0.465860   -1.301062
H     -1.033999   -1.673497   -0.000615
H     -2.925600   -0.729394    0.320846
H     -3.032448    0.475333    1.700334
H     -2.983303    1.061687    0.012158
