15

O      1.448235    0.921509   -1.876969
C      0.647944    0.717003   -0.756378
C      0.750344   -0.706407   -0.251956
C     -0.115931   -0.930893    0.962483
N     -1.486256   -0.692841    0.720646
C     -2.045944    0.457873    0.775936
H     -3.105201    0.582116    0.580269
H     -1.492960    1.358738    1.019230
H      0.279339   -0.395270    1.859350
H     -0.014479   -2.028777    1.208742
H      0.417881   -1.379371   -1.051543
H      1.812116   -0.897749   -0.014421
H      0.951563    1.454794   -0.000960
H     -0.401371    0.949592   -1.081030
H      2.354722    0.589681   -1.640301
