13

O      1.172702   -1.671331    0.155752
C      0.509636   -0.653176    0.057451
C      1.186151    0.638145    0.288610
O      2.526053    0.422549    0.590906
H      2.835757   -0.395581    0.135050
H      1.122249    1.251875   -0.638408
H      0.653691    1.130626    1.148543
C     -0.933412   -0.771418   -0.287572
H     -1.296551   -1.806806   -0.430994
C     -1.656219    0.280617   -0.908479
H     -2.000208    0.906534   -1.720217
C     -1.805504    0.119052    0.524991
H     -2.314343    0.548915    1.368853
