10

N      1.690034   -0.287627   -0.030611
C      0.520703    0.512753    0.071844
O      0.629778    1.756381    0.174062
C     -0.808506   -0.069209    0.061814
O     -0.958861   -1.446592   -0.050549
H     -1.842379   -1.760951   -0.476061
N     -1.812058    0.715730    0.158077
H     -1.704213    1.751639    0.242736
H      1.762568   -1.240739    0.387438
H      2.522933    0.068614   -0.538750
