12

C      1.346724   -0.394478    0.037948
H      2.318205   -0.468691    0.569571
H      1.463652   -0.560767   -1.052031
N      0.167937   -0.664330    0.706066
C      0.487944    0.675622    0.448067
H      0.567938    1.291843    1.383007
C     -0.478372    1.201174   -0.554676
H     -0.533774    2.209393   -0.946762
N     -1.295130    0.271527   -0.796866
C     -1.044939   -0.892413   -0.039838
H     -1.096943   -1.845041   -0.516769
H     -1.903242   -0.823839    0.762283
