13

C      0.656462   -0.981188    1.753115
C      0.994952   -0.252069    0.714742
N      0.047213    0.167535   -0.245340
C      0.209458    1.414510   -0.873970
H     -0.524462    2.184036   -0.712372
H      1.054692    1.606452   -1.511216
C     -0.937071   -0.574404   -0.534247
O     -1.852803   -0.153839   -1.471007
H     -1.644971    0.660884   -2.034896
H     -1.080142   -1.527725   -0.067831
H      2.018082    0.045281    0.572065
H      1.411562   -1.280321    2.462755
H     -0.352972   -1.309151    1.948201
