10

O     -0.790913    1.169373   -1.180278
C     -0.234301    0.165580   -0.374686
C      0.987070    0.376152    0.092065
O      1.508298   -0.638555    0.886728
H      2.137121   -0.342790    1.632191
H      1.481829    1.275473   -0.157698
C     -1.017311   -1.002719   -0.116872
O     -2.155703   -1.109350   -0.600248
H     -0.635917   -1.795434    0.491689
H     -1.280174    1.902270   -0.672892
