11

C      1.527732   -0.377181   -0.016964
N      0.296388   -0.007058   -0.015322
C     -0.900784   -0.803930    0.133085
H     -0.942993   -1.291761    1.149419
H     -0.989001   -1.567994   -0.669298
N     -1.961754    0.153836    0.053362
N     -1.434823    1.408286   -0.126691
C     -0.162935    1.327426   -0.166613
H      0.479287    2.210214   -0.304009
H      1.797583   -1.421380    0.104916
H      2.291301    0.369542   -0.141885
