14

C     -1.236845   -1.265250    0.483239
C     -0.101114   -0.308169    0.310542
O     -0.233250    0.913028    0.170220
C     -1.385358    1.631579    0.142034
H     -2.155833    1.462402    0.865257
H     -1.541656    2.380654   -0.606018
O      1.178771   -0.845535    0.310455
C      2.287807    0.032812    0.148600
H      1.961989    1.080217    0.264197
H      3.093679   -0.244693    0.859951
H      2.685507   -0.170112   -0.872642
H     -0.916039   -2.152663    1.095026
H     -1.555923   -1.694700   -0.502464
H     -2.081734   -0.819571    1.032915
