17

C      1.454211   -0.069703   -0.643733
H      1.314151   -0.205156   -1.747411
H      2.565210   -0.073285   -0.409395
C      0.835144    1.238694   -0.251967
H      0.899839    1.302098    0.872519
H      1.380516    2.114498   -0.643767
O     -0.514830    1.249304   -0.540035
C     -1.401913    0.787694    0.330633
H     -2.403661    1.248460    0.282317
H     -1.031958    0.895687    1.367904
C     -1.650309   -0.720861    0.062130
H     -2.160325   -0.812055   -0.916228
H     -2.410594   -0.996575    0.828965
C     -0.480899   -1.539787    0.161170
C      0.879456   -1.199008    0.126429
H      1.237293   -1.064247    1.243506
H      1.488670   -2.155758   -0.123035
