10

N      0.523110    0.928875    0.899245
C      0.903182   -0.167740    0.348138
O      2.187198   -0.644990    0.583805
H      2.888730   -0.115857    1.105729
O     -0.004946   -0.826533   -0.466051
C     -1.253157   -0.235919   -0.785461
H     -1.868020   -0.863124   -1.434507
H     -1.135857    0.807930   -1.153656
H     -1.804317   -0.152714    0.189450
H     -0.435925    1.270071    0.713307
