13

C     -0.374993    1.360537    0.275239
N      0.907587    0.756700    0.510757
C      1.168955   -0.361229   -0.083025
O      2.394792   -1.020397    0.085862
H      3.215058   -0.445879    0.302840
O      0.128706   -0.813200   -0.878395
C     -1.131499   -0.959553   -0.291455
H     -1.993842   -0.780069   -0.949843
H     -1.182165   -2.114162   -0.303734
H     -1.246377   -0.814978    0.771724
H     -0.770512    1.284336   -0.754910
H     -0.043618    2.459838    0.220054
H     -1.072090    1.448058    1.094886
