13

O      1.135265    0.634793   -1.375336
C      1.580107    0.515163   -0.307007
N      0.483175   -0.040953    0.366006
H      0.855730   -0.644249    1.123523
C     -0.339223   -0.993774   -0.314815
H     -0.021150   -1.118163   -1.405007
H     -0.412028   -2.032695    0.102158
C     -1.501347   -0.138087   -0.219763
H     -2.300125   -0.551157    0.429338
C     -0.582445    0.764756    0.445535
H     -0.515269    1.731405   -0.168529
H     -0.979487    1.041321    1.485847
H      2.596797    0.831640   -0.161949
