12

O      2.841189   -0.057856   -0.209357
N      1.737502    0.224306   -0.622103
C      0.615950   -0.014274    0.246279
H      0.905469   -0.175610    1.312575
C     -0.386673   -0.991801   -0.227019
H     -0.126721   -1.399414   -1.247261
H     -0.657062   -1.809637    0.486903
N     -1.360593    0.027193   -0.373109
H     -2.195459   -0.076824    0.280408
C     -0.444868    1.013137    0.073887
H     -0.221352    1.734160   -0.754749
H     -0.707382    1.526619    1.033545
