11

C     -0.358294    1.274859   -0.787736
C      0.028196    0.089751    0.013726
C      1.129140   -0.564481   -0.200356
C      2.138355   -1.330787   -0.486187
O      3.001161   -1.951922   -1.129356
C     -0.824871   -0.372269    1.068642
C     -1.543147   -0.777018    1.941762
H     -2.174142   -1.117592    2.717073
H      0.082138    2.206971   -0.356922
H     -0.003069    1.161363   -1.841691
H     -1.475467    1.381125   -0.843125
