10

C      0.567277    0.914966    0.028793
H      1.200097    1.846792    0.040493
C     -0.709443    0.817951    0.172656
H     -1.491147    1.598980    0.339687
C     -0.674337   -0.631903    0.032213
H     -1.065754   -1.220661    0.895340
H     -1.154923   -0.980352   -0.942041
C      0.761521   -0.499824   -0.127334
H      1.393864   -0.986106    0.665541
H      1.172845   -0.859843   -1.105347
