13

O     -0.911827   -1.632728   -0.404460
C     -0.576698   -0.459519   -1.057866
C     -0.037680    0.596270   -0.112093
C     -1.002875    0.972870    0.935051
C     -2.267057    1.297837    0.630915
H     -0.666973    0.981957    1.966638
C      1.242741    0.239114    0.446338
C      2.296519   -0.073318    0.896546
H      3.239960   -0.347112    1.318109
H      0.125032    1.512504   -0.750784
H      0.243595   -0.707731   -1.765119
H     -1.441661   -0.029662   -1.588960
H     -0.243077   -2.350482   -0.514315
