14

O      2.885484   -1.258989    0.016843
C      2.253754   -0.299293   -0.362141
C      0.773743   -0.310791   -0.014043
O      0.355690    0.902925   -0.563656
C     -0.650926    1.594522    0.082308
N     -1.670368    0.913297    0.453335
C     -1.690208   -0.492223    0.173392
H     -2.816814   -0.685165    0.316128
H     -1.653806   -0.736956   -0.908358
H     -1.314197   -1.193563    0.888817
H     -0.583995    2.684983    0.271547
H      0.852474   -0.354421    1.082368
H      0.508270   -1.239946   -0.535701
H      2.750899    0.475620   -0.900837
