17

C     -2.356904   -0.748440   -0.316586
O     -1.891478    0.561349   -0.081574
C     -0.529780    0.718561    0.144822
C      0.265901    1.704506   -0.647964
H     -0.310732    2.649939   -0.685069
H      0.455246    1.365141   -1.676029
H      1.249938    1.858552   -0.164194
C      0.019013   -0.037783    1.084189
O      1.393528    0.151867    1.280662
C      2.287954   -0.872931    0.849707
H      3.318881   -0.567957    1.075976
H      1.999126   -1.791042    1.378215
H      2.162515   -0.944740   -0.246896
H     -0.547779   -0.757089    1.666506
H     -3.466396   -0.759940   -0.484790
H     -1.848189   -1.201401   -1.196686
H     -2.200844   -1.328593    0.616451
