10

O     -2.252910    0.794261   -0.345737
C     -1.727081   -0.188555    0.128619
C     -0.262527   -0.277160    0.163941
O      0.307630    0.862550   -0.392243
C      1.467441    1.281459   -0.200304
O      2.274226    0.536755    0.655030
H      2.411776   -0.439410    0.380152
H      0.056146   -0.450427    1.230613
H      0.124223   -1.164638   -0.398402
H     -2.398924   -0.954836    0.504151
