14

C     -1.503590   -0.766696   -0.099724
C     -0.672579    0.280814    0.416991
H     -0.471598    0.106586    1.587843
N     -1.277468    1.597631    0.461885
N     -0.438298    2.395507   -0.101840
N      0.770210    1.735202   -0.358289
C      0.683313    0.483529   -0.110017
C      1.800156   -0.464062   -0.253604
H      1.970639   -0.733978   -1.304460
H      1.581850   -1.394465    0.333174
H      2.735298   -0.040628    0.166025
H     -2.586364   -0.489523   -0.094236
H     -1.404039   -1.704166    0.493007
H     -1.187529   -1.005750   -1.136755
