11

C     -1.865719    0.964077   -0.262917
H     -2.485799    1.802918   -0.537415
C     -0.560235    1.004458   -0.337012
C      0.034937   -0.087933    0.030142
C      1.467390   -0.270332    0.030681
N      2.283539    0.651653   -0.339314
H      3.307946    0.483688   -0.325377
H      1.930248   -1.215485    0.350728
C     -1.038475   -0.991480    0.405201
H     -0.906132   -2.004138    0.764671
N     -2.167700   -0.337426    0.220612
