13

O      3.087245    0.641264    0.497532
C      1.967629    0.175872    0.641835
C      0.907759    0.407005   -0.376259
C     -0.337785   -0.288987    0.090874
N     -1.444817   -0.127146   -0.835605
C     -2.616413   -0.794001   -0.375274
H     -3.037264   -0.379431    0.556896
H     -1.574669    0.843850   -1.150613
H     -0.603906    0.155139    1.080295
H     -0.138640   -1.368653    0.140223
H      0.779177    1.500702   -0.481969
H      1.236488   -0.075675   -1.316394
H      1.775198   -0.405453    1.528460
