13

C     -2.132260    0.898974    0.540671
C     -1.108015    0.105465    0.646366
N     -0.723984   -0.756218   -0.423176
C      0.581230   -1.240447   -0.618061
C      1.565914   -0.409724   -0.351076
C      2.461711    0.490994   -0.070267
H      2.793303    0.487805    0.950041
H      2.754584    1.116049   -0.874268
H      0.905181   -2.184876   -0.951715
H     -1.457448   -1.046951   -1.105781
H     -0.527093    0.090499    1.561693
H     -2.400729    1.540425    1.365155
H     -2.712393    0.908006   -0.385095
