14

C      1.959476    0.718149   -0.047027
N      0.831151    0.183853    0.130742
C     -0.337127    0.364878    0.926711
H     -0.328266    0.942101    1.801062
C     -0.390523   -1.145512    0.998178
H     -1.413588   -1.556059    1.038815
C      0.142450   -0.932420   -0.419147
H      0.635505   -1.713179   -0.909221
C     -1.033696   -0.256784   -1.060488
H     -1.432367   -0.477364   -2.037978
C     -1.387122    0.616271   -0.120335
H     -2.183899    1.335989   -0.047733
H      2.273129    1.596171    0.511500
H      2.664875    0.323906   -0.765077
