11

O     -1.767535   -0.204828    1.078618
C     -0.975307   -0.313240   -0.065946
H     -1.581193   -0.673955   -0.920712
C      0.081851   -1.314749    0.170171
C      1.255348   -0.760866    0.063178
H      2.194470   -1.300094    0.195278
C      1.104233    0.642672   -0.249869
H      1.908823    1.344466   -0.394585
N     -0.284140    0.903335   -0.326255
H     -0.555004    1.235576   -1.278381
H     -1.381546    0.441684    1.728502
