13

C     -1.999164    0.332894    0.864288
N     -0.939162   -0.048638   -0.042818
C     -0.523103   -0.646974   -1.307224
H     -0.758798   -0.083052   -2.247280
H     -0.808628   -1.720759   -1.373493
C      0.436795   -0.140255   -0.402933
C      1.709684    0.062102   -0.154682
C      2.892437    0.254119    0.360004
H      3.388829   -0.493142    0.960329
H      3.346710    1.189536    0.157702
H     -2.788678   -0.429025    0.789466
H     -2.374436    1.330349    0.506647
H     -1.582484    0.392847    1.889993
