16

C      1.494402   -0.735560    0.426240
C      0.442300    0.273600    0.866421
H      0.635349    0.809568    1.811587
C     -0.957817    0.092701    0.468246
C     -1.312847   -1.222450   -0.169225
H     -1.709831   -1.100877   -1.179977
H     -2.116196   -1.688016    0.449279
H     -0.458431   -1.950770   -0.128470
H     -1.748525    0.564963    1.089685
C     -0.143493    1.077510   -0.281589
C      0.143647    1.993796   -1.180866
H      1.105373    2.466653   -1.296291
H     -0.653623    2.294451   -1.857974
H      2.485547   -0.299975    0.697412
H      1.368055   -1.677653    0.969228
H      1.426090   -0.897941   -0.683707
