10

C      3.667120   -0.722108    0.321989
C      1.674939   -0.246985    0.165386
C      0.324591    0.063362    0.041420
C     -0.176409    1.313144   -0.011833
H      0.457696    2.184229    0.039874
O     -1.518021    1.255401   -0.132438
N     -1.965899   -0.013617   -0.164830
C     -0.821184   -0.850375   -0.059165
H     -0.886006   -1.546761    0.814380
H     -0.756827   -1.436289   -1.014784
