11

N     -1.732631    0.708457   -0.219544
C     -0.600767    0.109024   -0.816744
C      0.406257   -0.191906    0.234428
O      1.602635   -0.792790   -0.177634
C      2.512120   -1.089123    0.604002
H      2.505364   -0.929044    1.675541
O      0.193439    0.079637    1.431408
H     -0.927164   -0.849548   -1.319346
H     -0.149775    0.708417   -1.647760
H     -1.991395    1.647451   -0.571157
H     -1.818084    0.599425    0.806806
