13

O      2.118253    0.390819    0.295168
N      1.031749   -0.213285    0.843831
C     -0.146516    0.070368   -0.141478
C     -0.648908    1.343549   -0.323435
H     -0.297197    1.834767   -1.270850
H     -1.769244    1.409166   -0.348715
H     -0.353462    2.065229    0.486789
C      0.372334   -1.118100   -0.200566
H      0.974232   -1.806884   -0.754108
C     -1.032790   -1.193213    0.232279
H     -1.390999   -1.126335    1.262342
H     -1.751414   -1.460607   -0.579379
H      2.893964   -0.195475    0.498123
