12

C     -1.020497   -0.964515    0.203752
H     -1.653166   -1.250670   -0.696527
H     -1.687538   -0.948813    1.132427
C     -0.699354    0.612798   -0.088897
H     -1.479234    1.246115    0.058410
C      0.755849    0.944308    0.280001
H      1.258650    1.514340   -0.466393
H      0.971814    0.994962    1.314049
C      1.324817   -0.589772   -0.151086
H      2.335977   -0.626687   -0.494178
C      0.248015   -0.868405    0.174479
O     -0.355332   -0.063661   -1.266037
