15

C     -0.465897    1.373714   -0.592879
C     -0.267851   -0.041332   -0.095233
C      1.107071   -0.629513   -0.322801
N      2.089790    0.120518    0.311977
C      2.894815    0.759842    0.843602
H      1.139000   -1.673859    0.055743
H      1.281955   -0.715420   -1.431031
C     -1.124208   -0.499564    0.984436
H     -0.761387   -1.157969    1.784116
H     -1.926735    0.198083    1.336075
N     -1.342818   -0.996119   -0.344299
H     -1.108050   -1.989047   -0.538997
H     -1.073541    1.443236   -1.496781
H     -0.977652    1.946794    0.215366
H      0.535509    1.860635   -0.709295
