19

C     -3.159453    0.076108   -0.665909
C     -1.969205   -0.126976    0.215607
O     -0.795639   -0.392360   -0.506418
C      0.215283   -0.557832    0.413796
C      1.553594   -0.852098   -0.207753
C      2.020858    0.241547   -1.126357
C      2.951482    1.141544   -0.358032
H      3.264334    2.031335   -0.969314
H      3.831432    0.557323   -0.045753
H      2.373012    1.507445    0.523115
H      1.574422   -1.799245   -0.776439
H      2.267649   -1.004929    0.650684
H      0.327097    0.378455    1.000741
H      0.012171   -1.360960    1.158998
H     -1.799101    0.755104    0.834375
H     -2.157044   -1.052369    0.819013
H     -2.921212    0.636469   -1.603800
H     -3.668861   -0.874838   -0.920675
H     -3.920817    0.696276   -0.139769
