12

O     -1.508055   -0.428476   -0.805675
C     -0.746211   -0.809772    0.291096
H     -1.197005   -1.235258    1.269312
C      0.698668   -0.972210   -0.080361
H      0.692472   -1.315714   -1.213307
H      1.235582   -1.604984    0.491869
C      1.142071    0.419311   -0.203537
H      2.240670    0.664439   -0.206925
C      0.161339    1.247070   -0.101697
H      0.373035    2.308214   -0.180108
C     -1.153426    0.608181    0.078535
H     -1.939141    1.119200    0.660798
