12

C     -1.711855   -0.170119    0.030470
C     -0.367709    0.362555    0.438152
H     -0.426862    1.044288    1.314486
C      0.572692   -0.689422    0.800311
C      1.664679   -0.664471    0.116097
H      2.486833   -1.318611    0.197358
N      1.523551    0.424577   -0.763540
H      2.221071    0.770021   -1.492623
N      0.309772    1.072450   -0.601787
H     -2.220776    0.536854   -0.659020
H     -2.353429   -0.175268    0.959447
H     -1.697966   -1.192855   -0.339352
