11

N      1.778060    0.918326   -0.016019
C      1.141572   -0.162460    0.127669
C     -0.159585   -0.492623   -0.472237
H     -0.129290   -1.380367   -1.150183
C     -1.345655   -0.336490    0.380190
H     -1.214826    0.243864    1.338526
H     -2.275530   -0.915433    0.236975
N     -1.101694    0.504665   -0.854306
H     -0.971527    1.503185   -0.700486
H      1.603621   -0.933621    0.763104
H      2.674854    1.050952    0.442595
