12

O      0.067809    1.222764   -0.796203
C      0.067506    0.410868    0.337160
C     -0.965431   -0.684868    0.139624
N     -2.209600   -0.047044   -0.032882
C     -3.215304    0.484215   -0.187688
H     -1.016850   -1.306622    1.049504
H     -0.663829   -1.285566   -0.726626
C      1.394550   -0.123402    0.602410
C      2.493810   -0.557417    0.837832
H      3.464201   -0.944032    1.064313
H     -0.272857    1.016980    1.200972
H      0.855995    1.814125   -0.840644
