13

N     -1.713263    0.630574    0.071741
C     -0.338367    0.267229    0.099082
C      0.653587    1.114400   -0.124115
H      0.534050    2.176494   -0.352161
N      1.879647    0.408559   -0.016106
H      2.816046    0.880454   -0.155010
C      1.655737   -0.984482    0.297452
C      0.165428   -1.082729    0.375567
O     -0.261365   -2.016462   -0.554553
H     -0.885456   -1.609028   -1.224847
H     -0.108635   -1.363557    1.413267
H     -1.971935    1.479591    0.651116
H     -2.425475    0.098957   -0.481432
