13

O      2.404571   -0.880494   -0.705136
C      1.311209   -0.327302   -0.257135
N      1.322651    0.963142    0.265775
H      2.129137    1.441356    0.565277
C      0.164128    1.545371    0.391973
C     -1.081489    0.856556   -0.050603
H     -0.917096    0.843595   -1.224915
H     -2.003105    1.311112    0.137477
C     -1.054518   -0.598691    0.318486
H     -0.711638   -0.645178    1.457642
H     -1.919074   -1.173359    0.220886
N      0.169706   -1.239529   -0.329133
H      0.185520   -2.096580   -0.790594
