11

O      0.038783    0.652260    1.086338
C     -1.081261    0.415791    0.310408
H     -1.497003    1.274306   -0.231371
H     -1.852294   -0.105374    0.930249
C     -0.326947   -0.574938   -0.524398
H     -0.191784   -0.263876   -1.574141
H     -0.655856   -1.614192   -0.478059
C      0.831810   -0.241055    0.383916
O      1.891726    0.341197   -0.289695
H      1.684351    1.240959   -0.594944
H      1.158474   -1.125077    0.981696
