10

C     -1.527972   -0.190945   -0.092402
C     -0.070630    0.119160   -0.116005
N      0.742568   -0.851173   -0.105792
O      2.095362   -0.620205   -0.126542
H      2.672454   -0.632922    0.688600
O      0.336757    1.440056   -0.147836
H      1.328308    1.606584    0.072529
H     -2.150435    0.709749   -0.124153
H     -1.722314   -0.684056    0.882592
H     -1.704099   -0.896248   -0.930992
