13

C      2.892905    0.625351    0.968028
C      1.749829    0.459856    0.583695
C      0.400701    0.289467    0.126882
C     -0.407635    1.291714   -0.177936
H     -0.141929    2.346176   -0.116741
O     -1.647629    0.820571   -0.588901
C     -1.691761   -0.576757   -0.564610
H     -2.479641   -0.940655    0.155004
H     -1.924254   -0.930165   -1.590616
C     -0.337353   -0.995019   -0.089479
H      0.131407   -1.607619   -0.869491
H     -0.435686   -1.559802    0.876888
H      3.891047    0.776882    1.287277
