12

C      1.582775    0.433542    0.128665
C      0.375755   -0.087382   -0.577847
C     -0.436991   -1.059278    0.216247
H     -0.529986   -2.037723   -0.329514
H     -0.006673   -1.281967    1.208364
O     -1.716391   -0.501161    0.261458
C     -1.771089    0.587472   -0.350972
H     -2.648266    1.234534   -0.472537
O     -0.548046    0.927333   -0.898135
H      2.496122    0.149487   -0.465561
H      1.539031    1.547947    0.101302
H      1.663759    0.087195    1.178530
