15

C      1.274150   -0.875143    0.192710
C      0.677582    0.380863    0.770135
H      1.043347    0.635268    1.773592
O      0.962896    1.423170   -0.165958
C      0.050898    1.269943   -1.218716
H      0.081653    1.858447   -2.132807
C     -0.826471    0.356395   -0.903288
C     -1.579698   -0.630914   -0.055503
H     -2.617181   -0.665174   -0.099578
H     -1.060502   -1.681427   -0.165257
C     -0.824572    0.332345    0.662400
H     -1.421106    1.064336    1.238414
H      0.874679   -1.771718    0.712598
H      0.992200   -0.886831   -0.887101
H      2.372125   -0.809561    0.278358
