15

C      1.510040   -0.368804   -0.354847
H      1.270299   -0.236567   -1.419142
H      2.502664   -0.786333   -0.269874
C      1.339886    0.959625    0.322250
H      2.235817    1.424482    0.687954
O      0.130117    1.635410    0.512827
C     -1.044351    1.338395    0.210159
H     -1.846902    1.999910    0.448934
C     -1.460769    0.079969   -0.481738
H     -2.598318   -0.020483   -0.391280
H     -1.181478    0.110422   -1.533038
C     -0.809984   -1.047774    0.263579
H     -1.435540   -1.713804    0.773415
C      0.506398   -1.273239    0.336718
H      0.882121   -2.101208    0.894083
