19

C      2.007615   -0.438541   -0.333234
C      0.974716    0.326561    0.440280
O      1.203284    1.692079    0.194986
H      0.432782    2.232661    0.505776
C     -0.439012   -0.006496    0.017384
C     -0.788969    0.267009   -1.429350
H     -0.597176    1.339520   -1.630786
H     -0.123541   -0.365398   -2.052938
H     -1.850745    0.035343   -1.560785
C     -1.153092   -1.162931    0.640406
H     -1.939239   -1.674656    0.044619
H     -0.595590   -1.852750    1.332857
C     -1.480692    0.219288    1.074109
H     -1.166948    0.502479    2.100422
H     -2.461550    0.645670    0.789291
H      1.117158    0.171663    1.527750
H      2.613603    0.218198   -1.012874
H      1.514178   -1.188499   -0.982606
H      2.733219   -0.961198    0.334695
