14

C     -2.186976   -0.649664    0.463358
O     -1.399696    0.263186   -0.282047
C     -0.050837    0.396771   -0.045427
C      0.760911   -0.633587    0.131671
C      2.179687   -0.441453    0.378943
O      2.674487    0.701216    0.431590
H      2.819384   -1.293520    0.519751
H      0.326612   -1.617773    0.084876
N      0.514711    1.688646    0.015177
H      1.115782    2.023842   -0.762347
H      0.326356    2.295580    0.836426
H     -3.240396   -0.643131    0.161017
H     -1.778538   -1.672589    0.224882
H     -2.061488   -0.417524    1.543443
