12

N      1.704071    0.425037    0.013242
C      0.282115    0.347446    0.035175
C     -0.597022    1.401658    0.179478
H     -0.330325    2.463413    0.299578
O     -1.798084    0.880038    0.143922
N     -1.733193   -0.413590   -0.010933
H     -2.583118   -1.041414   -0.066769
C     -0.451574   -0.818563   -0.087051
N     -0.007124   -2.032791   -0.240807
H      1.049067   -2.150038   -0.277856
H      2.180481    1.353196    0.059028
H      2.284704   -0.414392   -0.047006
