17

C      1.176953    0.226445    1.620797
C      1.366179    0.732251    0.225605
C      0.136886    0.575956   -0.633663
C     -0.680909   -0.646239   -0.260602
C      0.082030   -1.917084   -0.397353
H      1.156435   -1.785863   -0.620832
H     -0.046491   -2.501354    0.544817
H     -0.356489   -2.521787   -1.205660
H     -1.559725   -0.633301   -0.968683
H     -1.063947   -0.493006    0.759347
C     -0.702003    1.772829   -0.443620
C     -1.394718    2.746880   -0.268731
H     -2.016675    3.590018   -0.112221
H      0.488457    0.509881   -1.694356
H      1.321453   -0.874294    1.705799
H      1.912316    0.706159    2.324586
H      0.180250    0.512509    2.021511
