13

C      1.599631   -0.351550    0.037253
C      0.669475    0.677720   -0.368142
C     -0.611613    0.479080   -0.262915
C     -1.119230   -0.771702    0.260157
H     -1.351105   -1.495508   -0.576281
H     -0.478892   -1.318839    0.956308
H     -2.090002   -0.577081    0.764078
O     -1.546326    1.463110   -0.649930
H     -1.851890    2.067994    0.114040
H      1.056891    1.609383   -0.756969
H      1.280145   -1.388935   -0.064735
H      2.532227   -0.247657   -0.556366
H      1.910687   -0.146015    1.103503
