14

C      2.038389    0.069375    0.288585
C      0.768875   -0.731265    0.348686
C     -0.375238   -0.087812   -0.389351
C     -1.584307   -1.008712   -0.176808
H     -1.343923   -1.960748   -0.657862
H     -2.517330   -0.551384   -0.508203
H     -1.587258   -1.215927    0.931797
C     -0.679052    1.272977    0.105727
O     -1.762354    1.555701    0.563349
H      0.082129    2.028067    0.057127
H     -0.205008   -0.092470   -1.501130
H      2.366211    0.307417   -0.737909
H      1.958909    0.973183    0.938041
H      2.839956   -0.558403    0.737950
