17

C     -1.602640    0.498355    0.023404
C     -0.378486   -0.357118    0.228457
O     -0.771618   -1.493261    0.930115
H     -1.463263   -1.964907    0.407641
C      0.147006   -0.758423   -1.125889
H     -0.644563   -0.756799   -1.883065
H      0.649660   -1.745745   -1.002143
C      1.236036    0.231285   -1.432581
C      1.728130    0.784518   -0.123135
H      1.802618    1.875378   -0.165341
H      2.722570    0.324803    0.111711
C      0.738667    0.344786    0.937636
H      0.411248    1.223131    1.531920
H      1.235060   -0.338709    1.668130
H     -2.492732   -0.176081   -0.014520
H     -1.727664    1.241426    0.838490
H     -1.590028    1.067358   -0.930829
