14

C     -1.943714   -0.052462   -0.383510
C     -0.591405   -0.008467    0.323636
C     -0.630457    0.641929    1.661205
H     -0.145631    1.636791    1.706174
C      0.570971   -0.245139   -0.448932
C      1.979903    0.000285   -0.041570
H      2.350887    0.900971   -0.572568
H      2.592847   -0.865104   -0.431608
H      2.156861    0.032666    1.032335
H      0.452391   -0.454510   -1.548050
O     -0.021295   -1.330938    0.377408
H     -2.549611   -0.826432    0.152789
H     -1.797592   -0.372998   -1.452665
H     -2.424156    0.943408   -0.374645
