11

C      2.530863   -0.213507    1.423854
C      1.387152   -0.475021    0.816506
C      0.398589   -0.419654   -0.028145
C     -0.801408   -0.459248   -0.567314
O     -1.474544   -1.646118   -0.760532
H     -2.323202   -1.802894   -0.231230
C     -1.405048    0.772964   -0.955966
C     -1.912718    1.805044   -1.303449
H     -2.376076    2.707949   -1.603276
H      3.287820   -0.967116    1.322581
H      2.688571    0.697601    1.982799
