10

N     -1.877375    0.265537    0.076165
H     -2.316563   -0.025431    0.960943
H     -1.911442    1.294178   -0.172975
C     -0.733016   -0.388946   -0.433609
N      0.514596   -0.692051   -0.544636
C      1.413633   -0.023631    0.336327
N      2.576346   -0.559468    0.488650
H      3.248326   -0.107770    1.113352
H      1.137000    0.899812    0.861127
N     -2.051504   -0.662231   -0.959525
