14

O      2.577292    0.738220    0.705893
C      2.097013   -0.147307   -0.244352
C      0.868910   -0.832034    0.313703
N     -0.248748    0.035201    0.158444
C     -1.499202   -0.545922    0.577942
C     -2.640809    0.386677    0.401514
O     -2.464586    1.501808   -0.052677
H     -3.635033    0.096695    0.669294
H     -1.694153   -1.404785   -0.128562
H     -1.490281   -0.963058    1.586104
H     -0.110954    1.005135    0.436976
H      2.879451   -0.867962   -0.540335
H      1.867289    0.451214   -1.157308
H      3.493810    0.546118    0.974677
