15

C      1.683179   -0.519191   -0.840783
C      1.043514   -0.106683    0.417531
C     -0.367972   -0.377834    0.781907
H     -0.509552   -1.138507    1.598642
C     -1.488348    0.063176    0.059122
N     -2.467568   -0.021096   -0.969815
H     -2.221003    0.168024   -1.953730
H     -3.465326   -0.275063   -0.773749
C     -1.121968    0.885870    1.113157
H     -1.278967    1.764550    1.702671
N      1.747952    0.541704    1.283260
H      2.726699    0.770237    1.113300
H      2.435750    0.277381   -1.106278
H      0.987145   -0.582196   -1.687594
H      2.296466   -1.450371   -0.737639
