16

C      0.814906   -0.773221    0.371271
H      0.856562   -0.198631    1.322395
H      1.246151   -1.790509    0.403438
C     -0.507702   -0.682345   -0.370008
C     -1.508852    0.194528    0.389474
O     -2.526828    0.628666   -0.471561
H     -2.537592    1.611629   -0.536662
H     -0.974786    1.037621    0.868606
H     -2.006033   -0.432480    1.170446
H     -0.943682   -1.655357   -0.612644
N      0.072938    0.069953   -1.435242
H      0.004112   -0.319338   -2.395918
C      1.347480    0.026200   -0.797575
O      1.763794    1.323854   -0.463652
H      2.732868    1.432311   -0.544860
H      2.166664   -0.472881   -1.354630
