15

O      1.863290    1.722799   -0.262094
C      0.858541    0.839552   -0.234282
C     -0.340960    1.100492   -0.045348
C     -1.076603   -0.369381   -0.253634
H     -1.406226   -0.693116   -1.359562
C     -0.047977   -1.239963    0.265615
H     -0.029153   -1.217403    1.363045
H     -0.148251   -2.281893   -0.056232
C      1.201390   -0.607156   -0.420919
H      2.102820   -0.830242    0.303030
H      1.336579   -1.014666   -1.358930
C     -1.868072    0.613459    0.095142
H     -2.591179    1.215822   -0.265775
H     -1.938826    0.762176    1.399297
H      2.084627    1.999521    0.830646
