14

C      2.166703   -0.562483   -0.131932
O      0.954262   -0.316908   -0.781116
C      0.170506    0.480015    0.070467
H      0.604154    0.768065    1.051288
C     -0.883668    1.334097   -0.521642
H     -1.234887    2.205898    0.067121
H     -0.935007    1.401356   -1.640321
C     -1.258121    0.028015    0.096693
C     -2.132277   -0.898378    0.447275
H     -3.184217   -0.792492    0.240738
H     -1.801937   -1.792021    0.955071
H      2.015088   -1.094808    0.836474
H      2.841582   -1.158651   -0.778576
H      2.677817    0.398295    0.088460
