12

O      2.916591    0.830241   -0.064187
C      1.540095    0.810813   -0.192045
C      0.832310   -0.261747    0.092038
O      1.509234   -1.389825    0.529455
H      2.288410   -1.728131    0.019413
N     -0.586668   -0.243687   -0.052306
C     -1.729774   -0.657370   -0.501767
H     -2.230965   -1.391945   -1.129238
C     -1.804386    0.466955    0.364656
H     -1.969075    0.343044    1.474165
H     -1.820462    1.512720   -0.005112
H      1.054689    1.708931   -0.535074
