15

C     -1.645503    0.192160   -0.166412
H     -2.282404    0.313520   -1.040879
H     -2.215415    0.645376    0.711930
C     -0.308911    0.840061   -0.253594
H     -0.060151    1.452638    0.658714
H     -0.170361    1.477513   -1.142300
C      0.638937   -0.337576   -0.271076
C      1.993977    0.026911    0.221616
H      2.030768    1.075483    0.556299
H      2.743768   -0.124427   -0.593659
H      2.287324   -0.636769    1.050570
H      0.657364   -0.776443   -1.314840
C     -0.078988   -1.381864    0.551905
N     -1.445067   -1.165333    0.220718
H     -2.145336   -1.601251    0.811006
