14

O      2.585972   -0.205985   -0.279418
C      1.329080    0.110571   -0.740081
H      1.229994    0.532777   -1.739106
C      0.473830    0.911636    0.247800
H      0.696294    1.832989    0.637501
C      0.315129   -0.396194    0.989146
N     -0.593148    0.158019   -0.108554
C     -1.915794    0.058177    0.287048
H     -2.550209    0.854752   -0.148849
H     -2.340994   -0.907208   -0.099000
H     -2.123399    0.055918    1.374229
C      0.327448   -0.926407   -0.304922
H      0.019884   -1.776089   -0.825284
H      2.545912   -0.302954    0.709489
