15

C     -1.313436   -1.267080   -0.006281
C     -1.527337    0.148616   -0.450719
C     -0.359472    1.016265   -0.166630
O     -0.446005    2.350802   -0.536554
H     -1.211224    2.958379   -0.322675
C      0.721300    0.570291    0.407757
C      1.881133    0.070835    0.730282
C      3.119870   -0.390993    0.673737
H      3.976817    0.265256    0.746045
H      3.286274   -1.434454    0.554048
H     -1.804202    0.149284   -1.518391
H     -2.399775    0.542381    0.128303
H     -0.411725   -1.725521   -0.473891
H     -2.180111   -1.862243   -0.399185
H     -1.332107   -1.391818    1.087252
