15

C      1.209971   -0.036323    0.993072
H      0.757025    0.600576    1.770036
H      1.347423   -1.095928    1.238718
C      1.734163    0.427352   -0.302241
H      2.502067   -0.286225   -0.775537
H      2.206665    1.449990   -0.242407
C      0.311322    0.156850   -0.317817
C     -0.692291    1.090126   -0.313412
H     -0.581197    2.178950   -0.560217
C     -1.743308    0.477757    0.005512
H     -2.784243    0.797477    0.197578
C     -1.553635   -0.969046   -0.293460
H     -2.522185   -1.576344   -0.252855
C     -0.347924   -1.089948   -0.491755
H      0.156148   -2.125265   -0.655216
