17

C      1.707648    0.058255    0.528621
C      0.346684    0.127972    0.057607
C     -0.219268   -1.068000   -0.722671
H      0.014962   -2.005630   -0.169331
H      0.024989   -1.040486   -1.776216
C     -1.543821   -0.475233   -0.306681
H     -2.399986   -1.089066   -0.229217
C     -1.591736    0.857516   -0.981847
C     -0.131310    1.298777   -0.751767
H      0.398208    1.455391   -1.689559
H     -0.140780    2.187384   -0.089883
C     -0.802108   -0.116497    0.992622
H     -1.232940    0.756776    1.488143
H     -0.679803   -0.994899    1.678122
H      2.050165   -1.005948    0.589562
H      1.804063    0.492492    1.545142
H      2.395031    0.561197   -0.162647
