14

O      0.856803    1.315371   -0.790386
C      1.782729    0.674072    0.005691
H      2.703565    1.067310    0.410566
C      1.350763   -0.568395    0.230258
H      1.854345   -1.296594    0.812420
C      0.071946   -0.734904   -0.493311
H      0.016605   -1.603037   -1.174709
C     -1.091398   -0.605042    0.485061
H     -0.775370   -0.625082    1.549484
H     -1.873494   -1.311589    0.248989
C     -1.308321    0.753328   -0.154335
H     -1.139989    1.550126    0.635598
H     -2.243251    0.854788   -0.693623
N     -0.204934    0.529647   -1.071703
