17

C     -1.724100   -0.953851    0.750730
H     -1.462942   -2.026891    0.659364
H     -2.421241   -0.622081    1.549021
C     -1.803060   -0.237424   -0.583601
H     -2.625951    0.504290   -0.702752
H     -1.591247   -0.810617   -1.509050
C     -0.661979    0.060770    0.349946
C      0.680490   -0.524086   -0.008257
C      1.649845    0.510259   -0.382677
C      2.790519    0.708661    0.259670
H      3.470849    1.481783   -0.053264
H      3.072542    0.105395    1.111877
H      1.427838    1.148655   -1.227355
H      1.124541   -1.093612    0.858338
H      0.529630   -1.298729   -0.802515
C     -0.706756    1.422442    1.005147
H     -1.748980    1.625034    1.322119
