12

N     -1.888725   -0.688886    0.362654
C     -0.803427    0.163649    0.032317
C      0.540883   -0.355490   -0.026288
N      1.633221    0.510674   -0.360578
C      2.859595    0.127240   -0.240347
H      3.093858   -0.866297    0.118955
H      1.446089    1.475568   -0.710169
O      0.764162   -1.577875    0.216863
N     -1.038389    1.388746   -0.209915
H     -1.984287    1.824878   -0.184455
H     -1.986991   -1.651755   -0.014261
H     -2.635989   -0.350451    1.015225
