13

C      1.621355    0.018023   -0.051815
O      0.643249    0.955921   -0.169852
C     -0.639810    0.532558    0.018649
O     -1.600556    1.544576   -0.115964
H     -1.229245    2.335091   -0.554073
C     -1.064624   -0.860341   -0.330692
H     -2.096646   -1.028720   -0.705839
H     -0.332891   -1.559969   -0.745706
N     -0.968811   -0.432019    1.042032
H     -0.254890   -0.807705    1.677611
H      1.568848   -0.832420   -0.743311
H      2.599237    0.532750   -0.284618
H      1.754785   -0.397744    0.963579
