14

O      1.955992    1.122157    0.870784
C      1.121563    0.246634    0.192037
C      1.585078   -0.374487   -0.855682
H      1.040754   -1.066819   -1.454472
H      2.619734   -0.201171   -1.187627
C     -0.251057    0.071364    0.702667
H     -0.301433   -0.011290    1.825321
C     -1.167596   -0.853281    0.028647
H     -0.795729   -1.481031   -0.813511
H     -1.746551   -1.471797    0.767907
C     -1.901455    0.347386   -0.340212
H     -2.838233    0.467372   -0.935501
N     -1.089308    1.094457    0.250858
H      1.768243    2.110505    0.948784
