11

N      1.195555   -1.055868    0.068980
C      0.705714    0.271187    0.185513
O      1.495760    1.193996    0.491630
O      1.031853    2.465386    0.604338
C     -0.691640    0.555017   -0.046881
C     -1.572415   -0.396611   -0.375712
H     -2.606669   -0.134086   -0.539249
H     -1.289646   -1.411040   -0.483050
H     -1.037472    1.581540    0.049838
H      2.161519   -1.206828   -0.291231
H      0.607441   -1.862693    0.335825
