9

C      2.100587   -0.047043    0.105953
C      0.839997   -0.228567   -0.190682
C     -0.452867   -0.208793   -0.331324
C     -1.833482    0.173923    0.059705
H     -2.169103   -0.321624    0.999478
H     -2.138988    1.225042   -0.041201
O     -1.520307   -0.605861   -1.066218
H      2.636726    0.779567   -0.292855
H      2.537437   -0.766644    0.757142
