14

C     -2.141044   -0.896624    0.125055
C     -0.973794   -0.230104    0.122409
C     -0.755379    1.158784    0.580385
H     -1.008558    1.262511    1.660259
H     -1.291543    1.897808   -0.046340
O      0.621130    1.334611    0.355976
C      1.213306    0.211909   -0.175167
N      2.606198    0.043056   -0.528014
H      3.153038    0.877012   -0.818098
H      3.054318   -0.892424   -0.493184
C      0.310772   -0.734290   -0.329374
H      0.457123   -1.743818   -0.726137
H     -3.023147   -0.392112    0.492700
H     -2.222419   -1.896322   -0.220470
