16

C      3.105470   -0.070770   -0.302728
C      1.632898   -0.240132   -0.551865
O      0.906715    0.707367   -0.807315
C     -0.415144    0.411999   -1.012524
C     -1.113619    0.008911    0.259802
C     -2.570822   -0.314226    0.020791
H     -2.722182   -1.196007   -0.611123
H     -3.006314   -0.560450    1.020720
H     -3.146914    0.573247   -0.336634
H     -1.078111    0.784241    1.044307
H     -0.652158   -0.902563    0.690083
H     -0.420485   -0.489690   -1.675168
H     -0.874239    1.273237   -1.505415
H      3.679564   -0.401798   -1.196133
H      3.408358   -0.604494    0.624325
H      3.266983    1.021129   -0.118245
