14

N     -0.403547    1.493695    0.169494
H     -0.838351    2.394022    0.264014
C      0.728342    0.812333    0.039397
C      1.763702    0.267955   -0.229233
H      2.778353    0.092464   -0.537687
C      0.826367   -0.983426    0.232747
H      1.321420   -1.869948    0.292148
O      0.934961   -0.037148    1.334649
C     -0.507480   -0.804209   -0.416937
H     -0.324121   -0.586846   -1.509962
H     -1.016177   -1.773462   -0.392055
C     -1.432600    0.277239    0.145277
H     -1.650741    0.140224    1.172102
H     -2.180127    0.577108   -0.563955
