12

C      1.826854    0.235092    0.085886
O      0.741712   -0.107890    0.881925
C     -0.365925   -0.294409    0.051860
H     -0.143919   -0.133095   -1.025365
C     -1.080934   -1.523403    0.270725
O     -2.032596   -0.996041    0.683974
C     -1.612426    0.264766    0.585683
H     -1.519573    0.769590    1.588560
H     -2.220138    0.873261   -0.123545
H      2.700083    0.380544    0.755817
H      1.621935    1.141715   -0.521611
H      2.084927   -0.610130   -0.586139
