12

O      2.624726    0.533922   -0.059087
C      1.790890   -0.339619   -0.185764
C      0.619365   -0.371900    0.694525
C     -0.433989    0.638955    0.322322
H     -0.281013    1.685965    0.629106
O     -0.989493    0.510734   -0.994808
C     -1.798340    0.106654    0.069581
H     -1.977239   -0.980671    0.224107
H     -2.630877    0.738307    0.385288
H      0.951211   -0.085383    1.733478
H      0.175136   -1.362541    0.788877
H      1.949622   -1.074423   -0.959855
