10

N     -1.212501   -0.600067   -0.471299
C     -1.504197    0.551973    0.298565
O     -0.618411    0.906255    1.121712
H     -2.441195    1.080553    0.168986
N     -0.066127   -1.348647   -0.396351
C      0.988788   -0.677285   -0.151321
C      1.990038    0.118663    0.097428
H      2.315096    0.144637    1.117470
H      2.496753    0.733197   -0.617918
H     -1.948243   -0.909278   -1.167272
