13

O      2.243410   -0.289651    0.024238
C      0.971361   -0.280021    0.286220
H      0.733005   -0.132415    1.459874
C      0.107247    0.773827   -0.200898
H      0.335516    1.801228   -0.041984
H      0.210489    0.625791   -1.467874
C     -1.329732    0.347366   -0.154943
H     -1.350576    0.448674    1.124261
H     -2.078951    0.833600   -0.534510
N     -1.221678   -1.117102   -0.111081
H     -1.533767   -1.309740   -1.194701
C      0.154442   -1.512102   -0.065468
H      2.759234   -0.189455    0.876867
