13

N     -0.822306    1.422330    0.552346
C     -0.424838    0.092785    0.168437
N      0.855336   -0.314260    0.711529
C      1.985085   -0.269105   -0.123783
O      1.864009    0.119358   -1.312827
H      2.939288   -0.568966    0.269496
H      0.934050   -0.628252    1.684345
O     -1.502470   -0.849325    0.353076
C     -0.968673   -0.596390   -0.947371
H     -1.703830   -0.101255   -1.616223
H     -0.456126   -1.507016   -1.331273
H     -1.087856    1.395203    1.570079
H     -1.611669    1.804894    0.022169
