15

C     -1.536032   -0.987110    0.448419
C     -0.649997   -0.149288   -0.457599
H     -0.627029   -0.501738   -1.513794
N     -0.780340    1.279373   -0.281876
H     -0.928357    1.735998   -1.215100
C      0.574464    1.415840    0.206994
H      0.575601    1.765776    1.251169
H      1.223522    2.035417   -0.450647
C      0.753649   -0.060070    0.040802
N      1.776604   -1.028530    0.244333
O      2.956237   -0.370636    0.450646
H      1.900152   -1.631556   -0.600771
H     -1.287812   -0.740277    1.496126
H     -1.352476   -2.043294    0.182257
H     -2.598186   -0.719904    0.199041
