13

N      2.204809   -0.101019   -0.053542
C      0.764750   -0.072600   -0.133679
C     -0.114934   -1.077464   -0.492479
H     -0.156149   -2.016721   -0.771268
C     -1.578312   -0.423159   -0.161227
H     -1.388466   -0.883641    1.005477
H     -2.299016   -1.018021   -0.448841
C     -1.360890    0.918046    0.111532
O     -2.174053    1.898863    0.238828
N      0.036968    1.108885    0.146759
H      0.645212    2.029139    0.181571
H      2.885154    0.069912   -0.612163
H      2.534926   -0.432222    0.989032
