9

N     -2.126873    0.081841    0.078524
C     -1.276681   -0.683644   -0.460397
C      0.182691   -0.625760   -0.271912
H      0.711032   -1.545620   -0.640591
C      0.846027    0.688863   -0.465252
H      1.190801    1.528836   -1.047116
N      0.747107    0.076769    0.841720
H      1.601080   -0.362897    1.245379
H     -1.875184    0.841612    0.719645
