16

C     -2.099439    0.813537   -0.753162
C     -0.868521    0.299371   -0.006728
H     -0.600965    0.916032    0.891698
N     -0.870465   -1.148443    0.145012
H     -1.587930   -1.715076   -0.354419
H     -0.488137   -1.520223    1.045540
C      0.083556   -0.460131   -0.701209
C      1.526531   -0.661989   -0.386716
H      1.991374   -1.584380   -0.843367
C      2.470924    0.508618   -0.325297
H      3.479149    0.404811   -0.730387
H      2.062794    1.547500   -0.390727
O      2.072352   -0.219180    0.796389
H     -2.483197    1.755040   -0.309171
H     -1.766654    0.988644   -1.793532
H     -2.921373    0.075869   -0.741046
