9

O      0.385622    1.531637   -0.039632
C      0.105196    0.182612    0.095148
C      1.069196   -0.688807    0.353641
H      0.801670   -1.739775    0.451298
H      2.073362   -0.310644    0.454404
C     -1.280908   -0.220598   -0.059518
O     -2.146168    0.630018   -0.300499
H     -1.580450   -1.258776    0.031662
H      0.572481    1.874334   -0.986504
