11

C     -1.427327    0.271632    0.460671
C     -0.720451   -0.521391   -0.558086
C      0.626987   -0.166082   -0.931215
C      1.517414    0.326186   -0.104675
N      2.442436    0.556756    0.762269
H      2.727354   -0.279806    1.343328
H      0.945360   -0.307429   -1.949182
O     -1.278462   -1.495989   -1.098860
H     -0.692899    0.851696    1.090700
H     -2.003799    1.065171   -0.083938
H     -2.136613   -0.300745    1.068988
