9

O      2.928862   -0.697900    0.551450
C      1.865912   -0.128109    0.243516
C      0.797635    0.144082   -0.450773
N     -0.294331   -0.759484   -0.581270
C     -1.409768   -0.521260    0.015355
O     -1.488439    0.633149    0.772521
H     -0.927609    1.445818    0.508354
H     -2.217300   -1.229034   -0.106023
H      0.745037    1.112738   -0.953131
