14

C     -1.477898   -0.548327    0.363776
C     -0.448096    0.225623   -0.413496
H     -0.796410    0.521369   -1.420438
C      0.022061    1.408454    0.332512
H     -0.574073    2.281065    0.640087
O      1.238676    1.341617    0.610434
C      1.805885    0.185279    0.145500
H      2.831880   -0.112334    0.252417
C      0.785505   -0.633032   -0.549591
H      0.643239   -1.628298   -0.068086
H      1.045617   -0.812857   -1.613899
H     -1.929703   -1.311130   -0.281180
H     -0.940844   -1.080688    1.196743
H     -2.205838    0.163259    0.805220
