11

N      2.037791    0.178801   -0.176116
C      0.621727    0.258858    0.025241
O      0.086568    1.307387    0.496417
N     -1.277216    1.275319    0.647981
C     -2.063866    0.150261    0.306059
H     -3.143774    0.129162    0.427737
C     -1.469204   -0.888398   -0.168452
C     -0.192596   -0.891756   -0.323263
H      0.262640   -1.807260   -0.733202
H      2.613942    1.029185   -0.336371
H      2.523989   -0.741560   -0.166031
