15

C      3.409167    0.341540    0.011185
C      1.958289    0.588081    0.147381
C      0.771890    0.784759    0.271409
O     -0.573271    0.994007    0.401340
C     -1.484716   -0.025092    0.198368
C     -1.219728   -1.215790    0.654204
H     -0.309932   -1.412413    1.180754
H     -1.916650   -2.014675    0.504261
C     -2.746589    0.238984   -0.529642
H     -2.704800    1.253711   -0.983753
H     -2.831774   -0.502467   -1.347441
H     -3.639625    0.112537    0.135809
H      3.891199    1.273972   -0.395046
H      3.533289   -0.444044   -0.766441
H      3.863252    0.026889    0.970710
