9

O     -0.343769    1.559845    0.949798
C     -0.026062    0.509462    0.326199
C     -1.030722   -0.273034   -0.441734
H     -1.345459   -1.111311    0.229518
H     -1.901373    0.347880   -0.728322
H     -0.496342   -0.686694   -1.338747
C      1.343147    0.051139    0.354836
O      1.700092   -0.985010   -0.249745
H      2.100487    0.587723    0.898197
