15

C     -0.807136   -1.319704   -0.568738
N     -0.233795   -0.485214    0.468672
H     -0.131259   -1.029620    1.351203
C     -0.987172    0.689765    0.691395
H     -2.021849    0.769021    1.071653
C     -0.212638    1.871758    0.346605
H     -0.544604    2.904949    0.419769
C      0.970176    1.467824   -0.072895
H      1.755919    2.139160   -0.397103
C      0.998370    0.012093   -0.012821
N      2.041911   -0.667461   -0.367271
H      2.035156   -1.695944   -0.314932
H     -1.481579   -0.738376   -1.249046
H     -1.392255   -2.171739   -0.159914
H      0.010756   -1.746512   -1.206577
