11

C      0.179365    0.631294   -0.767935
H     -0.369099    1.557904   -0.516424
H      0.662050    0.632619   -1.751933
C     -0.561262   -0.618600   -0.303237
O     -1.668194   -0.478425    0.508208
H     -2.432820   -0.048533    0.069091
H     -0.594640   -1.401281   -1.065181
C      0.738529   -0.201244    0.322107
O      0.755811    0.317721    1.595246
H      1.705476    0.498106    1.836907
H      1.584784   -0.889563    0.073152
