15

C     -1.791775   -0.081795   -0.139675
C     -0.399395    0.040843    0.381146
H     -0.320689    0.044742    1.484064
C      0.341472    1.256011   -0.124021
H      0.020318    2.180731    0.385097
H      0.283408    1.363255   -1.220175
O      1.637761    0.960453    0.319904
C      1.861712   -0.379758    0.064758
H      2.553211   -0.944264    0.713519
C      1.426385   -0.846401   -1.262755
C      0.528753   -1.052912   -0.115116
H      0.346650   -2.073347    0.246966
H     -2.468146   -0.451569    0.672336
H     -2.228546    0.865055   -0.489036
H     -1.791120   -0.881043   -0.917012
