14

C     -1.865095    0.125049    0.680268
C     -1.014946   -0.219533   -0.539561
C      0.361651   -0.573374   -0.177568
C      1.435664    0.454483   -0.300692
C      2.739966   -0.091147    0.101754
N      3.794310   -0.510425    0.424717
H      1.232810    1.308003    0.412081
H      1.516910    0.854988   -1.327540
O      0.654924   -1.679717    0.219995
H     -1.505688   -1.069106   -1.071486
H     -1.044537    0.626130   -1.289494
H     -2.659374   -0.627533    0.858227
H     -2.414530    1.083301    0.440436
H     -1.232066    0.318881    1.568863
