11

O      2.356763    0.959608    0.152227
C      1.572544    0.448069    0.900963
C      0.473150   -0.418111    0.404588
N     -0.704042    0.373467    0.104699
C     -1.851480   -0.284685   -0.380207
O     -1.808146   -1.531412   -0.533197
H     -2.726166    0.304458   -0.602901
H     -0.653441    1.411559    0.261996
H      0.758333   -0.897900   -0.579509
H      0.244560   -1.219251    1.162827
H      2.337925    0.854199   -0.795659
