12

N     -2.295847    0.810235   -0.066721
C     -1.075399    0.380079    0.073064
N      0.074216    1.089735    0.026448
H      0.102801    2.118730   -0.136444
C      1.121564    0.272964    0.217987
O      2.452536    0.642263    0.236349
H      3.159008    0.070462    0.659863
C      0.580730   -0.979649    0.386845
H      1.139380   -1.887609    0.564533
N     -0.766255   -0.908488    0.297113
H     -1.410927   -1.731785    0.391280
H     -3.081806    0.123064   -0.002546
