11

O      0.912638    0.437750    0.169456
C     -0.251802   -0.300653   -0.021124
H     -0.100094   -1.261258   -0.577592
C     -1.489938   -0.117125    0.677123
H     -2.219241   -0.952126    0.690873
H     -1.577507    0.536913    1.570632
N     -1.385830    0.499936   -0.639450
H     -1.263668    1.529385   -0.592307
C      2.138435    0.030666   -0.281394
O      2.221914   -1.054714   -0.893881
H      3.015092    0.651225   -0.102336
