15

C     -0.707254   -1.004404   -0.622566
C     -0.328432    0.125253    0.289917
O     -0.409380   -0.262093    1.635052
H      0.133041   -1.087107    1.712792
C      1.111847    0.498818    0.033905
O      1.938816   -0.591412    0.279376
H      2.468380   -0.762697   -0.540614
H      1.200700    0.846936   -1.001889
H      1.384108    1.289117    0.772373
C     -1.215347    1.278709    0.067150
C     -0.898885    2.349209   -0.638988
H     -2.215736    1.245461    0.523180
H      0.170850   -1.429744   -1.130791
H     -1.454564   -0.703682   -1.375243
H     -1.178144   -1.792366   -0.003651
