19

C      2.328456    0.354687   -0.454861
C      1.336738   -0.777455   -0.440098
O      1.101051   -1.268882    0.838084
H      1.882760   -1.750308    1.188238
C      0.019250   -0.393735   -1.096940
C     -0.982728   -0.055834   -0.025956
C     -1.019076    1.437273    0.234228
H     -0.953541    1.965781   -0.745124
H     -1.964448    1.654434    0.763291
H     -0.128511    1.715138    0.852987
C     -2.366499   -0.571569   -0.332655
H     -3.049241   -0.115976    0.428285
H     -2.737304   -0.292293   -1.323085
H     -2.413046   -1.672008   -0.134476
H     -0.679160   -0.528886    0.945566
H      1.757343   -1.632458   -1.027689
H      3.325511   -0.020247   -0.790677
H      2.061748    1.172782   -1.139297
H      2.480699    0.779557    0.556288
