10

C     -1.224940    0.570343    0.015374
H     -2.144904    1.147280    0.022817
C      0.008853    1.041892   -0.029017
H      0.295265    2.075176   -0.064854
C      0.961629   -0.078922   -0.022259
N      2.229602   -0.077902   -0.054525
H      2.755337   -1.001068   -0.042374
N      0.137984   -1.239445    0.030751
C     -1.084311   -0.885432    0.052033
H     -1.934514   -1.551921    0.092054
