11

C      0.989013    0.483226   -0.579686
H      1.615941    0.943256   -1.347955
C      1.241033   -0.436428    0.307402
H      2.160866   -1.011097    0.533086
C     -0.100112   -0.387484    0.833585
H     -0.211584   -0.073100    1.904074
N     -1.103691   -1.160222    0.286047
C     -1.376905   -0.305202   -0.590615
H     -2.135550   -0.307518   -1.401700
C     -0.369684    0.626469   -0.150247
H     -0.709326    1.628102    0.206007
