17

C     -2.664928    0.270011   -0.098852
C     -1.208321    0.496860    0.023126
C     -0.276795   -0.603865   -0.273810
C      1.142840   -0.219598   -0.105524
C      1.702232    0.252476    1.187643
H      2.192583   -0.601773    1.712405
H      2.460337    1.023947    0.953902
H      0.939683    0.740952    1.822317
C      1.949255   -0.296266   -1.137987
H      1.538207   -0.643054   -2.087514
H      3.004438   -0.018556   -1.043143
H     -0.442403   -0.949353   -1.314072
H     -0.493076   -1.512518    0.352386
O     -0.774800    1.573283    0.363076
H     -3.262993    1.193495   -0.006845
H     -2.868226   -0.249467   -1.062868
H     -2.938034   -0.456572    0.715759
