15

O      3.225099    0.483701   -0.279382
C      1.908592    0.421732    0.169031
C      1.380659   -0.958050    0.145944
O      0.206670   -1.249998   -0.001580
C     -0.640275   -0.187790   -0.152103
C     -2.076536   -0.569288    0.175499
O     -2.825938    0.604646   -0.020242
H     -2.263565    1.393249    0.267797
H     -2.181529   -0.883081    1.231984
H     -2.440557   -1.345571   -0.541877
H     -0.643379    0.151509   -1.214772
H     -0.343332    0.614367    0.544351
H      1.787635    0.842655    1.186725
H      1.326639    1.100373   -0.521142
H      3.579816   -0.418454   -0.537136
