12

N      2.283201    0.216316    0.197847
C      0.919128   -0.155450   -0.030389
N      0.473434   -1.034635   -0.824332
C     -0.759829   -1.168945   -0.878917
C     -1.350285   -0.197264    0.050858
O     -2.210709   -0.698133    1.001782
H     -2.828508    0.073203    1.200176
H     -1.829809    0.608237   -0.599639
N     -0.175596    0.458591    0.618852
H     -0.130760    1.211993    1.344630
H      2.598882    1.197579    0.430295
H      3.010850   -0.511492    0.136607
