9

O     -2.005173    0.433060    0.282774
N     -0.752637   -0.088043    0.103353
C     -0.383917   -1.277054   -0.123557
N      0.873785   -1.469064   -0.248042
N      1.522340   -0.239125   -0.088813
H      2.541100   -0.008250   -0.124667
C      0.437062    0.687761    0.146566
H      0.580938    1.744673    0.313667
H     -2.813500    0.216043   -0.261279
