12

O     -2.584161    0.872087    0.280639
C     -2.193175   -0.272765   -0.062616
N     -0.786366   -0.480395   -0.187327
C      0.120937    0.618023    0.082112
C      1.498297    0.119124   -0.123827
N      2.237331   -0.256633    0.837531
H      3.192828   -0.596025    0.628220
H      1.893612    0.070622   -1.122246
H     -0.054054    1.411551   -0.690754
H     -0.032114    1.037758    1.096112
H     -0.449406   -1.424592   -0.471188
H     -2.843730   -1.098752   -0.266657
