17

O      3.056466   -0.197050   -0.645282
C      1.682284   -0.534859   -0.665667
C      1.061088   -0.077601    0.630873
C     -0.393640   -0.377730    0.736768
C     -1.220362    0.271569   -0.341996
H     -0.795165    0.089296   -1.372562
C     -2.690109    0.035797   -0.327271
H     -3.498347   -0.673274   -0.445858
C     -2.199393    1.278570   -0.077648
H     -2.528418    2.282109    0.156629
H     -0.572554   -1.471870    0.738389
H     -0.755943    0.003615    1.704995
H      1.240904    1.000351    0.764196
H      1.573376   -0.586484    1.477180
H      1.655364   -1.632929   -0.777990
H      1.232235    0.016956   -1.500673
H      3.152214    0.573534   -0.054084
