13

O      2.626976   -0.889054    0.778879
C      1.361332   -0.547864    1.230078
C      0.273785   -0.480418    0.469647
C      0.002230   -0.714826   -0.999923
H      0.061109   -1.781780   -1.347785
H      0.453867   -0.011982   -1.717329
C     -1.084048   -0.324043   -0.097133
C     -1.608930    1.089501   -0.194414
C     -2.016128    2.198556   -0.251257
H     -2.385807    3.214648   -0.284564
H     -1.823213   -1.044276    0.224389
H      1.229046   -0.318763    2.269318
H      2.909782   -0.389699   -0.079907
