11

O      2.362226   -0.835933   -0.222595
C      1.070424   -0.298988   -0.096005
C      0.817892    0.990115    0.034586
H      1.580345    1.760538    0.057057
N     -0.582046    1.167731    0.135612
H     -1.033626    2.098253    0.246254
C     -1.246986   -0.085615    0.064018
H     -2.320124   -0.188458    0.120058
C     -0.182160   -1.107397   -0.092072
H     -0.172005   -1.808451    0.792630
H     -0.293939   -1.691796   -1.039542
