12

C     -1.109075   -0.906240    0.130076
C     -0.115512    0.099777   -0.421281
C     -0.669005    1.372859   -0.377745
H     -1.487090    2.170614   -0.589723
C      0.624331    1.204470    0.018422
C      1.709254    0.112080    0.158174
H      1.526919   -0.371624    1.154942
H      2.702878    0.331234   -0.095676
O      0.928669   -0.540065   -0.899366
H     -1.935679   -1.088070   -0.592269
H     -0.597714   -1.920896    0.380863
H     -1.577977   -0.464140    1.133583
