16

C      2.129344    0.670744    0.329497
C      0.690722    0.284634    0.045192
C     -0.210799    1.191857   -0.176248
H      0.045807    2.233083   -0.140354
N     -1.607614    0.943217   -0.222220
H     -2.339251    1.704934   -0.330108
C     -2.067587   -0.390927   -0.032789
H     -3.122218   -0.649461    0.027446
C     -1.122454   -1.349266    0.080654
H     -1.635509   -2.335806    0.240675
C      0.282851   -1.180120   -0.154951
H      1.003659   -1.808712    0.346274
H      0.436107   -1.292966   -1.297165
H      2.728184   -0.274694    0.186547
H      2.251417    0.881074    1.446495
H      2.537339    1.372409   -0.348946
