12

C     -0.616707    0.980248   -0.318405
H     -1.258423    1.145730   -1.144722
C     -0.931747   -0.033012    0.780888
H     -1.949562   -0.361462    1.110936
C      0.004639   -1.068531    0.352631
H      0.314717   -1.474433    1.394515
H     -0.455321   -1.801646   -0.226233
C      1.193381   -0.404981   -0.340739
H      2.177057   -0.867263   -0.648738
C      0.871665    0.857354   -0.745579
H      1.428342    1.653531   -1.190485
O     -0.778041    1.374465    0.975933
