17

C      0.072274   -0.893096   -1.304994
H      0.061871    0.032992   -1.948266
H      0.367325   -1.804271   -1.828146
C     -0.850585   -0.903861   -0.116695
C     -1.973794    0.010842    0.006331
C     -2.042088    1.233805    0.429595
H     -2.983094    1.778534    0.452281
H     -1.190437    1.766519    0.788171
H     -2.972234   -0.402383   -0.327225
H     -1.184811   -2.001809    0.089460
C      0.546753   -0.694669    0.160569
C      1.322780    0.523693    0.321739
C      2.568410    0.491197    0.777629
H      3.087607   -0.419245    1.056587
H      3.109553    1.410608    0.883244
H      0.917265    1.485331    0.058339
H      1.143205   -1.614189    0.501381
