17

O      1.804760    0.050713   -0.953237
C      1.320603    0.695223    0.220297
H      2.064614    1.213659    0.861491
C      0.063649    1.466785   -0.066129
H     -0.003543    2.394416    0.569540
H      0.001116    1.785644   -1.107139
C     -1.175486    0.663327    0.262987
H     -2.018593    1.209669   -0.272677
H     -1.466665    0.681143    1.321072
C     -1.107447   -0.677487   -0.394621
H     -1.158900   -0.577272   -1.488076
H     -2.009008   -1.255857   -0.019849
C      0.071699   -1.486346    0.047188
H      0.202187   -2.295905   -0.733465
H     -0.103848   -1.898206    1.046360
C      1.346016   -0.700115    0.096337
H      2.168848   -1.269391    0.609920
