15

C      2.018446    0.516583   -0.331857
C      0.531520    0.432608   -0.441380
H      0.039900    1.368014   -0.741931
C     -0.174731   -0.803068   -0.506598
H      0.378899   -1.746228   -0.753304
N     -0.052383   -0.231400    0.779086
C     -1.316923    0.299957    1.185974
H     -1.549659   -0.065513    2.196352
H     -1.327573    1.420287    1.130406
C     -2.312961   -0.198108    0.178014
N     -1.560929   -0.850790   -0.876381
H     -1.933727   -1.845045   -0.956221
H      2.457098    1.295538   -1.001175
H      2.536583   -0.429846   -0.560957
H      2.266441    0.837009    0.699973
