13

N      2.845583    0.736866    0.538206
C      1.919192   -0.309850    0.321997
C      0.678531   -0.115062   -0.068509
C     -0.218615   -1.231806   -0.271371
N     -1.649723   -1.072610   -0.252955
C     -1.915847    0.244891    0.277444
O     -3.253267    0.527584    0.397169
H     -3.416714    1.456929    0.074086
H     -1.932892   -1.137812   -1.277069
H      0.204102   -2.206899   -0.440379
H      0.344144    0.891410   -0.234093
H      2.561280    1.637625    0.950414
H      3.834226    0.578735    0.269548
