9

N      2.062412   -0.280099    0.477897
C      1.165339   -0.036848   -0.195220
O      0.389297    0.545107   -1.354388
C     -0.297504   -0.099956   -0.501843
C     -1.391921    0.215759    0.316814
H     -2.275913    0.815187   -0.015058
H     -1.520220   -0.100912    1.385851
O     -1.180665   -1.024033   -0.516130
H      3.049174   -0.034206    0.402078
