13

C      1.706235    0.114115    0.248972
C      0.257045    0.232593   -0.071781
C     -0.553263    1.237343    0.179775
H     -0.285807    2.147025    0.661508
O     -1.842177    0.932067   -0.192177
N     -1.949574   -0.422505   -0.418264
H     -2.184773   -0.751851    0.659569
C     -0.613861   -0.883957   -0.575547
H     -0.343008   -1.778731   -0.008625
H     -0.406446   -0.982758   -1.672367
H      1.795598    0.307330    1.352666
H      2.379949    0.795400   -0.283404
H      2.040082   -0.946071    0.119675
