9

C     -0.946012    0.669945   -0.609308
O     -1.661921    0.876845    0.574702
H     -1.854344   -0.009271    1.002133
C     -0.372693   -0.726089   -0.590171
C      0.993599   -0.641572   -0.047374
C      2.105415   -0.563571    0.414923
H      3.085420   -0.494567    0.811956
H     -0.320555   -1.137103   -1.604297
H     -1.028909   -1.340276    0.047435
