16

C     -2.156434    0.193611   -0.082412
C     -0.937278   -0.690112   -0.134037
C      0.323546    0.085928    0.047619
C      0.329406    1.398473    0.230430
H     -0.543712    2.012366    0.264691
H      1.283757    1.895628    0.355367
C      1.594104   -0.691278    0.013943
O      2.676698    0.197987    0.200926
H      3.432857   -0.220826   -0.314897
H      1.569859   -1.400103    0.885916
H      1.706752   -1.268983   -0.925965
H     -0.992933   -1.412926    0.705772
H     -0.852109   -1.230802   -1.085551
H     -2.127480    0.802873    0.832334
H     -3.042432   -0.476169    0.010473
H     -2.264600    0.804332   -1.004608
