16

C     -1.615439    1.008214    0.238228
C     -0.937486   -0.334552    0.460075
H     -1.128646   -0.749459    1.481590
C     -1.050419   -1.257423   -0.667712
H     -1.694092   -0.807615   -1.480462
H     -1.414429   -2.292601   -0.408714
O      0.288030   -1.113557   -0.845441
C      0.454238   -0.348610    0.069971
N      1.653912    0.314798    0.581392
C      2.889894    0.045478   -0.087354
H      2.747311   -0.315994   -1.124211
H      3.492989    0.974923   -0.083845
H      1.566312    0.937141    1.385836
H     -1.405014    1.689897    1.066278
H     -1.160323    1.434184   -0.677959
H     -2.686838    0.815177    0.092329
