10

O      1.858780   -0.551211   -1.424381
C      1.315553    0.011094   -0.457379
O      1.548949    1.180106    0.214795
C      0.629622    1.057778    1.023229
C      0.210307   -0.212931    0.455216
C     -1.180926   -0.111191   -0.127518
H     -1.521521   -1.097286   -0.511898
H     -1.894227    0.207050    0.661248
H     -1.253017    0.622179   -0.941038
H      0.286481   -1.105588    1.107727
