17

O      3.857369   -0.235563    0.664389
C      2.675777   -0.506867    0.533708
C      1.829132    0.502178   -0.155895
C      0.391538    0.058332   -0.258695
O     -0.183675   -0.159457    0.983053
C     -1.494706   -0.560936    0.784263
C     -2.330739    0.443862    0.056002
H     -3.405361    0.439189    0.399773
H     -2.379759    0.136454   -1.014339
H     -1.918617    1.470031    0.127904
H     -1.526393   -1.539422    0.235609
H     -1.962947   -0.781220    1.777828
H     -0.166672    0.889086   -0.745755
H      0.278064   -0.829691   -0.914099
H      2.204677    0.683920   -1.182456
H      1.883971    1.435141    0.403019
H      2.248341   -1.445036    0.902432
