14

O      0.023133    1.404536   -0.300986
C      0.998985    0.553981   -0.046338
N      2.338855    0.764031   -0.440784
H      2.353207    1.789523   -0.957931
C      0.806561   -0.722772    0.571386
H      0.544250   -0.593735    1.635811
H      1.706888   -1.466767    0.491470
C     -0.345709   -1.391173   -0.161121
H     -0.493596   -2.342546   -0.428694
C     -1.358488   -0.413998   -0.431897
H     -2.193406   -0.916535   -0.957502
C     -1.238092    0.907306    0.101906
H     -1.101563    0.910839    1.244943
H     -2.041024    1.517309   -0.320263
