14

C      2.551805    0.702529    0.558059
N      1.251504    0.412621    0.054561
C      0.606765   -0.846345    0.104254
C     -0.528400   -1.052117    0.717882
N     -1.780096   -1.201749    1.001510
N     -2.713484   -0.628314    0.124023
C     -2.784792    0.827664    0.146652
H     -3.819447    1.199200    0.235315
H     -3.325275   -1.188975   -0.510606
H      1.053194   -1.690504   -0.383757
H      0.709722    1.193108   -0.397182
H      3.090498    1.476495   -0.058070
H      3.172520   -0.212697    0.471998
H      2.515486    1.009083    1.636675
