13

O      2.700673    1.974037    0.312382
C      2.496997    0.751089    0.137720
N      1.258849    0.321501   -0.390314
C      0.472395   -0.408328    0.323721
C     -0.848399   -0.890526   -0.184518
C     -1.867130    0.220189   -0.207506
H     -1.651351    1.009352    0.539827
H     -2.866579   -0.174215    0.023780
H     -1.925163    0.723704   -1.200193
H     -0.673534   -1.200437   -1.232113
H     -1.190443   -1.735748    0.445633
H      0.805471   -0.661952    1.313620
H      3.288214    0.071334    0.402449
