9

C      1.682886   -0.229100    1.283151
C      0.735704    0.186713    0.599965
C     -0.378080    0.672229   -0.231165
C     -1.004333   -0.565651   -0.800292
O     -1.972936   -1.012347   -0.340625
H     -0.469884   -1.001002   -1.659986
H      0.066256    1.287773   -1.047679
H     -1.141275    1.226987    0.337538
H      2.481662   -0.565601    1.859093
