9

N      0.671642    0.705664    0.032081
H      1.246306    1.574620    0.070025
C      1.128855   -0.554021   -0.014985
H      2.143535   -0.897590   -0.022350
C      0.034142   -1.385263   -0.054645
N     -1.094416   -0.626724   -0.031556
H     -2.092760   -0.974268   -0.051463
C     -0.692343    0.650672    0.021503
H     -1.344961    1.506908    0.051391
