16

C     -2.404723    0.424758   -0.409393
C     -0.917634    0.427382   -0.531851
N     -0.308743   -0.868589   -0.939272
H     -0.977075   -1.690367   -0.937386
H      0.318324   -0.745838   -1.757527
C      0.002241   -0.229490    0.323480
C      1.383905    0.364247    0.505304
H      1.634934    0.650103    1.548649
C      2.442684    0.127969   -0.423526
H      3.503663    0.248200   -0.118398
H      2.291826   -0.519792   -1.300237
O      1.725361    1.372850   -0.406440
H     -0.304112   -0.863036    1.207127
H     -2.752011    1.141161    0.357267
H     -2.833790    0.767628   -1.372784
H     -2.804848   -0.607185   -0.202135
