15

C     -1.516821    1.263075   -0.066660
C     -1.670980   -0.172202   -0.153934
O     -2.909003   -0.569236   -0.281441
C     -0.743947   -1.236978   -0.128598
C      0.546962   -1.136549   -0.012264
C      1.257369    0.081808    0.111251
C      2.587743    0.009728    0.222260
H      3.052555   -0.949998    0.213282
H      3.201523    0.884329    0.319869
H      0.874994    1.061185    0.128168
H      1.121338   -2.098599   -0.012005
H     -1.162132   -2.293990   -0.218725
H     -0.955153    1.752581   -0.902751
H     -2.568810    1.765247   -0.107705
H     -1.115638    1.639600    0.889251
