13

C     -0.490555    1.347800   -0.127661
C     -0.616119   -0.079669    0.336641
C      0.209475   -0.994026   -0.555382
C      1.606191   -0.539846   -0.453805
N      2.702016   -0.183074   -0.380298
H     -0.078191   -0.914511   -1.608661
H      0.145397   -2.034126   -0.231196
O     -0.227678   -0.217900    1.646021
H     -0.200034   -1.144011    1.934494
H     -1.675512   -0.402265    0.208486
H      0.087977    1.367156   -1.062737
H      0.005338    1.978532    0.634219
H     -1.468307    1.815941   -0.340121
