14

C      1.156484    0.452387    0.092956
H      1.939686    0.679217   -0.693015
H      1.434280    1.229648    0.977618
C     -0.143473    1.051567   -0.431668
H     -0.275908    2.041261   -0.214988
H     -0.203379    0.772319   -1.511814
C     -1.171857    0.089144    0.131824
H     -1.427614    0.262664    1.173960
H     -2.165554    0.379994   -0.396037
C     -0.970664   -1.303377   -0.345870
H     -1.465892   -1.871297   -0.902511
C      0.235817   -1.695064    0.166661
C      1.221801   -0.873256    0.634955
H      1.836272   -1.215206    1.317929
