17

C     -1.952610    0.346406   -0.490396
C     -0.501541    0.040936   -0.771373
H     -0.366354   -0.126908   -1.857691
C      0.496413    0.956271   -0.164405
H      0.090191    1.800330    0.435233
H      1.253954    1.284803   -0.924080
C      1.051083   -0.189694    0.634483
O      0.890820    0.065127    1.996043
H      0.907051    1.041064    2.137545
C      2.500630   -0.498110    0.353371
H      2.656188   -1.424957   -0.204042
C      0.052312   -1.102690    0.026116
H     -0.695494   -1.551508    0.720575
H      0.562496   -1.875593   -0.601060
H     -2.551116   -0.489527   -0.897313
H     -2.229519    1.279301   -0.983084
H     -2.164505    0.444750    0.590078
