14

C     -1.105307    0.938719    0.226901
H     -0.617090    1.319928   -0.697737
H     -1.559191    1.736406    0.855742
C     -1.922150   -0.340475    0.134228
H     -2.835994   -0.434965    0.725831
H     -1.935503   -0.859536   -0.836966
C     -0.642785   -0.306405    0.886027
C      0.481884   -1.025278    0.296290
C      1.588799   -0.351086    0.132356
C      2.654058    0.388082    0.029185
H      2.743330    0.923544   -0.894400
H      3.315896    0.381358    0.868455
H      0.537140   -2.032004   -0.025518
H     -0.703088   -0.338289    2.000919
