17

C     -0.778618    1.471988    0.174992
C     -0.567063   -0.005018    0.278574
C      0.862845   -0.373374    0.601052
C      1.831537    0.118093   -0.449352
O      2.999404   -0.640445   -0.463016
H      3.175958   -1.081258   -1.312206
H      1.187942    0.086917    1.555846
H      0.968041   -1.467725    0.736410
C     -1.038061   -0.644149   -1.006821
H     -0.961201    0.043807   -1.879037
H     -0.433462   -1.547878   -1.275157
H     -2.126558   -0.928544   -0.937442
O     -1.356671   -0.550791    1.304621
H     -1.111596   -0.104152    2.172868
H     -1.534002    1.787357    0.946478
H     -1.259553    1.773631   -0.799497
H      0.141058    2.061540    0.351685
