11

N      2.026202    0.923232    0.122905
C      1.796479   -0.334239    0.224553
O      0.471163   -0.743072    0.149379
C     -0.541535    0.187520   -0.130940
C     -1.853614   -0.531266   -0.149161
C     -2.129202   -1.424988    0.795183
H     -2.612338   -0.363748   -0.904118
H     -0.628156    0.950802    0.693970
H     -0.391791    0.753007   -1.057479
H      2.590057   -1.048406    0.362244
H      1.272734    1.631156   -0.010707
