13

C     -0.872302   -1.311615    0.245156
C     -0.258314   -0.022739   -0.035535
C      1.020759    0.156853   -0.227074
C      2.317043    0.113785   -0.055319
H      2.804632   -0.059399   -0.947342
H      2.805711    0.238884    0.876535
C     -1.000508    1.204699   -0.131093
H     -2.115936    1.046579   -0.160058
H     -0.730922    1.750396   -1.057264
H     -0.842186    1.926030    0.702088
H     -1.665756   -1.285860    1.007432
H     -0.106330   -2.084635    0.487779
H     -1.355892   -1.672978   -0.705306
