14

C      2.299322    0.356952    0.132715
C      1.064937    0.180543    0.996053
C     -0.054912   -0.509732    0.249626
H      0.370107   -1.412288   -0.271350
C     -1.349158   -0.584820    0.790401
H     -1.888984   -0.997942    1.586593
C     -1.706729    0.768851    0.125654
H     -1.819453    1.676385    0.560111
C     -1.905375   -0.302835   -0.610881
H     -2.300442   -0.921111   -1.311158
N     -0.539621    0.413713   -0.820113
H      2.029568    0.367430   -0.940392
H      3.078263   -0.392240    0.373374
H      2.722476    1.357094    0.402446
