15

C     -2.020938   -1.061453   -0.052497
C     -1.113428   -0.193561    0.348799
C     -0.102040    0.384851   -0.594116
O     -0.584470    1.656188   -0.942277
H     -0.318020    2.286898   -0.235049
C      1.226316    0.591018    0.078485
C      1.803808   -0.671495    0.601540
O      1.284526   -1.756935    0.510088
H      2.763013   -0.600267    1.100402
H      1.105260    1.365277    0.851692
H      1.925582    0.973213   -0.693274
H     -0.071532   -0.240085   -1.484123
H     -1.109356    0.100726    1.388813
H     -2.053197   -1.373272   -1.071302
H     -2.735525   -1.461102    0.645915
