13

C     -0.106888   -1.045625    0.049268
H      0.031598   -1.542538   -0.982793
H     -0.211785   -1.744148    0.886123
C      0.937250   -0.049705    0.312644
H      1.933889   -0.438413   -0.275294
H      1.188898   -0.006821    1.410453
C      0.538630    1.204377   -0.348120
H      1.150073    1.490834   -1.253155
H      0.742050    2.010321    0.532595
C     -0.937590    1.116761   -0.571136
C     -1.410854   -0.189281   -0.071616
H     -2.091203   -0.788150   -0.698549
H     -1.764069   -0.017612    1.009580
