16

C     -1.514355    0.231908   -1.604019
C     -0.966544   -0.041400   -0.292043
C     -1.547679    0.121937    1.022676
H     -2.089031   -0.822402    1.295869
H     -2.327048    0.924390    1.026234
H     -0.819872    0.332138    1.804562
C      0.260221   -0.512792   -0.296383
C      1.522807   -0.865185   -0.295627
C      2.479825    0.224683   -0.238454
H      3.435969   -0.180448    0.202252
H      2.748260    0.581322   -1.242426
H      2.185190    1.051446    0.454070
H      1.650251   -1.906414   -0.337495
H     -2.310993    1.008463   -1.627592
H     -0.743547    0.567240   -2.326023
H     -1.963455   -0.714887   -2.002724
