12

O     -1.404017   -0.240445    0.949659
C     -0.332024   -0.129002    0.053192
C     -1.647036   -0.187356   -0.462268
H     -2.202072    0.789919   -0.687698
H     -2.252153   -1.030727   -0.828638
C      0.784718   -1.113869    0.139052
H      0.785985   -2.179596    0.192396
C      1.617980   -0.082281    0.265486
H      2.715393    0.084399    0.406050
C      0.566255    1.015057    0.032026
H      0.939932    1.428989   -0.907592
H      0.427040    1.644912    0.848336
