12

O      0.280190   -1.552291   -1.879438
C      0.411738   -0.682817   -0.821371
C      1.708555   -0.062126   -0.545165
C      2.790191    0.440818   -0.300129
H      3.739966    0.897864   -0.070867
C     -0.613837   -0.387022   -0.027216
C     -1.859007   -0.222232    0.690648
H     -2.721845    0.264174    0.198686
H     -2.106607   -1.077277    1.402223
N     -0.760726    0.558310    1.150233
H     -0.699134    1.566004    0.894379
H     -0.169484    0.256594    1.955786
