15

C      0.063260   -1.018165   -0.601808
H     -0.002949   -1.818377    0.195134
H     -0.448597   -1.460628   -1.486598
O      1.480110   -0.916773   -0.865661
C      2.292937   -0.120108   -0.034769
H      3.393289   -0.170299   -0.201915
O      1.795199    0.598244    0.847547
C      0.408820    0.740050    1.036861
H     -0.008231    1.130107    1.900065
C     -0.370526    0.272957   -0.125564
C     -1.862318    0.423928    0.069369
H     -2.217808   -0.168106    0.941658
H     -2.063787    1.486797    0.103985
H     -2.318716   -0.004558   -0.838340
H     -0.140684    1.024931   -0.939964
