13

C      2.099552   -0.543402   -0.302955
C      1.309894   -0.029446    0.607149
N     -0.054909    0.157301    0.284735
C     -1.000423    1.120109    0.575684
H     -1.007156    2.082373    1.167305
C     -1.903334    0.505299   -0.093223
H     -2.948122    0.724677   -0.292860
C     -1.007839   -0.558270   -0.462408
H     -0.819042   -0.583032   -1.576483
H     -1.261601   -1.589945   -0.107250
H      1.684730    0.244091    1.573262
H      3.148624   -0.695142   -0.077262
H      1.759627   -0.834614   -1.295694
