13

O      1.384619    1.477243   -1.010464
C      0.817942    0.724604   -0.292245
C     -0.650598    0.921920    0.073872
H     -1.115457    1.662954   -0.676683
H     -0.619503    1.298478    1.109431
C     -1.290728   -0.471199   -0.079535
H     -2.095315   -0.276426   -0.878715
H     -1.926553   -0.688860    0.877067
O     -0.505449   -1.320191   -0.336692
C      0.599116   -1.637932   -0.302270
C      1.530850   -0.485641    0.305101
H      1.402854   -0.517148    1.319219
H      2.468221   -0.687804   -0.108086
