16

C     -1.603413    0.024451    0.387539
H     -1.663835   -0.494135    1.473458
H     -2.574518   -0.079224   -0.043586
C     -0.454680   -0.680306   -0.155253
O     -0.326088   -0.190340   -1.522764
H     -1.213045   -0.147209   -2.022278
H     -0.538771   -1.739826   -0.202217
C      0.724054   -0.109014    0.552777
C      1.990163   -0.060262   -0.281606
H      1.917253    0.489696   -1.204002
H      2.270075   -1.174297   -0.461536
H      2.779594    0.330496    0.387754
H      0.876987   -0.696297    1.445236
C      0.277161    1.239130    0.904196
N     -1.162294    1.355085    0.827309
H     -1.298642    1.932054   -0.085028
