8

O      0.555920    1.013780    0.160767
C      1.298449   -0.058480    0.169227
H      2.352048   -0.094271    0.323194
C      0.464149   -1.123995   -0.057216
N     -0.806779   -0.639657   -0.200788
H     -1.662120   -1.193390   -0.381468
C     -0.713014    0.675065   -0.061154
H     -1.488654    1.420947   -0.105748
