16

C      3.106648   -0.607440   -0.389398
C      1.824547   -0.244256    0.279048
N      0.661436   -0.548385   -0.523834
C     -0.625421   -0.259228   -0.019922
O     -1.193467    0.284660    1.128785
C     -2.051228   -0.153138    0.061549
C     -2.833513    0.971383   -0.557373
H     -3.907782    0.691054   -0.643860
H     -2.411854    1.284148   -1.548321
H     -2.803214    1.908944    0.065339
H     -2.613577   -1.099756    0.216389
H      0.760163   -0.987812   -1.490986
H      1.777490    0.820222    0.594699
H      2.922806   -1.208872   -1.309356
H      3.745681   -1.199590    0.320237
H      3.641287    0.348067   -0.640118
