14

C      0.471701   -1.226823    0.326573
H      0.566919   -1.227192    1.428129
H      1.112024   -2.011714   -0.109738
O     -0.840750   -1.381348   -0.079306
C     -1.426321   -0.125434    0.006570
H     -2.328126   -0.105223   -0.621221
H     -1.679843    0.144953    1.040079
C     -0.369517    0.831231   -0.521288
H     -0.539367    1.031375   -1.599518
H     -0.383957    1.800487    0.012867
C      0.911499    0.087066   -0.272365
O      1.761506    0.725313    0.613879
H      1.322961    1.525652    1.012678
H      1.421271   -0.068342   -1.237339
