19

C     -2.602167    0.274682   -0.386040
C     -1.934628   -1.042441   -0.079526
H     -2.533043   -1.921669   -0.445249
C     -0.475562   -1.138950    0.064586
C      0.331636    0.130573   -0.094060
C      1.808582   -0.179049    0.090007
C      2.551884    1.134713   -0.082048
H      2.333471    1.500805   -1.098908
H      3.627275    1.011076    0.063618
H      2.087340    1.863089    0.624803
H      2.163085   -0.866230   -0.713460
H      1.960513   -0.579734    1.102693
H      0.181535    0.591055   -1.071213
H      0.061760    0.838840    0.712981
H      0.010944   -2.107697   -0.220269
C     -1.353314   -1.228656    1.272163
H     -1.817267    1.065100   -0.354170
H     -2.989603    0.228375   -1.424940
H     -3.412439    0.426118    0.335144
