18

C     -2.396847   -0.297043   -0.094240
N     -1.210812    0.455621    0.239076
C      0.109838   -0.025094    0.081255
O      1.183474    0.839661   -0.100265
C      0.919403    2.246000   -0.145488
H      1.861404    2.802613   -0.293336
H      0.163734    2.455620   -0.927093
H      0.519288    2.550760    0.861897
C      0.408569   -1.316188    0.095675
C      1.796869   -1.815285   -0.070502
H      2.123880   -1.844449   -1.124152
H      1.941466   -2.801388    0.372739
H      2.472466   -1.113362    0.466563
H     -0.375186   -2.044608    0.232331
H     -1.317507    1.424213    0.624759
H     -2.631092   -1.081287    0.637166
H     -3.262833    0.372229   -0.169230
H     -2.306114   -0.808013   -1.087043
