9

O      2.510170   -0.555782   -1.107610
C      1.843592    0.391162   -0.403852
C      0.665412   -0.127994   -0.065100
O     -0.416082   -0.350232    0.549880
C     -1.445450   -0.203025   -0.350900
H     -1.601679    0.842997   -0.684609
H     -1.298659   -0.803968   -1.281592
H     -2.385864   -0.565664    0.110869
H      2.128559    1.372506   -0.132745
