10

N     -1.648094   -0.423294   -0.409889
C     -0.836274    0.330203    0.468694
C      0.422514    0.891872    0.014195
C      1.330792    0.005831   -0.368710
N      2.351634   -0.766446   -0.365567
H      2.837797   -1.052843    0.531516
H      0.669527    1.921945   -0.035180
O     -1.198019    0.521484    1.655518
H     -1.341610   -0.661127   -1.378715
H     -2.588268   -0.767625   -0.111862
