15

C     -0.143077   -1.133300   -1.489747
C     -0.598764   -0.843919   -0.052135
C      0.552648   -0.867196    0.801028
C      1.149254    0.265343    1.010355
C      1.578189    1.390933    1.488770
H      1.221389    1.880471    2.348944
H      2.357805    1.820059    0.929925
H      0.880958   -1.777280    1.229830
C     -1.274484    0.462128   -0.117329
C     -1.843999    1.530099   -0.158918
H     -2.343633    2.473517   -0.213995
H     -1.390240   -1.580386    0.157822
H     -1.058683   -1.120470   -2.103768
H      0.582795   -0.365429   -1.839821
H      0.329841   -2.134572   -1.537863
