11

C     -1.472141   -0.403006    0.029054
N     -0.234300    0.057348    0.677126
N      0.746754   -0.904212    0.641012
C      1.889460   -0.425440   -0.056607
H      2.797665   -0.956382   -0.237332
C      1.553377    0.804967   -0.413680
N      0.248494    1.170360    0.008951
H     -0.164271    2.080683   -0.183228
H     -1.245033   -0.898461   -0.932697
H     -2.055008   -1.048086    0.709531
H     -2.064997    0.522229   -0.146300
