13

N     -2.024750    0.088328   -0.102950
C     -0.613011   -0.158890   -0.101034
C      0.127849   -1.190654   -0.769861
H     -0.258386   -1.963779   -1.394700
C      1.377346   -1.011446   -0.472615
C      1.642174    0.011505    0.321787
O      2.883200    0.426225    0.792811
H      3.401848    1.188259    0.328884
N      0.381496    0.615083    0.604329
H      0.189515    1.438588    1.190571
H     -2.277035    0.652974   -0.971348
H     -2.547781   -0.796821   -0.119408
H     -2.282465    0.700627    0.693534
