12

O      3.385458   -1.235074   -0.207835
C      2.483634   -0.392193    0.019708
C      1.517777    0.314288    0.509515
C      0.217583    0.443444   -0.185742
N     -0.556467   -0.738743    0.140681
C     -1.823106   -0.796505    0.110990
O     -2.551434    0.322064   -0.252130
H     -2.061257    1.035098   -0.795614
H     -2.335587   -1.705297    0.365006
H      0.352800    0.545335   -1.289224
H     -0.281573    1.382254    0.138929
H      1.652172    0.825329    1.445716
