12

C      1.288471    0.002113   -0.067544
C     -0.150009    0.420302   -0.241402
N     -0.519023    1.511247    0.598320
O     -0.278133    1.572577    1.753582
C     -1.085244   -0.755111   -0.131979
H     -0.945364   -1.391169   -1.041170
H     -2.116817   -0.352496   -0.166561
H     -0.916591   -1.372170    0.766470
H     -0.238144    0.793708   -1.299502
H      1.991526    0.738112   -0.478817
H      1.415489   -0.941670   -0.659966
H      1.553839   -0.225443    0.968570
