16

C     -1.704493   -0.979226    0.296073
N     -0.529574   -0.211252    0.565718
C     -0.581338    1.159318    0.109690
H     -1.475419    1.402219   -0.507654
H     -0.495169    1.912492    0.923759
C      0.613528    0.961041   -0.735805
H      0.507213    1.109814   -1.824864
C      1.946037    1.201470   -0.135523
C      1.961473   -0.220283    0.378450
H      2.736558   -0.862898   -0.053373
H      1.947891   -0.220604    1.506747
C      0.618254   -0.436286   -0.239239
H      0.553020   -1.233318   -1.002477
H     -1.923947   -1.580136    1.222053
H     -2.604865   -0.344917    0.066321
H     -1.569168   -1.657433   -0.569875
