13

O     -1.747878    1.772508   -0.099022
N     -0.410085    1.524101   -0.292105
C      0.109782    0.385745   -0.076033
C     -0.768258   -0.710333    0.402521
C     -0.705290   -1.831866   -0.624603
H      0.372002   -2.147878   -0.656849
H     -1.783123   -0.356675    0.570168
H     -0.346812   -1.136124    1.356988
C      1.569232    0.105385   -0.284250
H      2.157830    1.042861   -0.235817
H      1.932572   -0.586656    0.526336
H      1.714064   -0.413283   -1.252584
H     -2.094035    2.352214    0.665250
