15

C      0.051830   -0.385166    0.850985
C      0.937575   -0.290832   -0.364904
H      0.569315   -0.811783   -1.290329
C      2.347761   -0.060691   -0.207919
H      3.362714   -0.359674    0.018594
C      1.551641    1.042956   -0.597949
H      1.593271    2.093732   -0.848388
C     -1.394987   -0.629615    0.460831
C     -1.859100    0.495515   -0.384980
O     -2.999969    0.473979   -0.795156
H     -1.226502    1.324746   -0.646922
H     -1.495501   -1.613274   -0.071938
H     -1.956660   -0.695192    1.427591
H      0.089776    0.589818    1.372562
H      0.428837   -1.174518    1.531018
