12

C     -1.726287   -0.242802   -0.054268
C     -0.264024    0.093142    0.006210
N      0.292973    1.306070    0.162817
H     -0.251486    2.213081    0.267377
N      1.609328    1.160846    0.162126
C      1.923835   -0.136300    0.006532
O      3.213262   -0.697446   -0.045720
N      0.749355   -0.785012   -0.088668
H      0.631784   -1.820210   -0.217648
H     -2.328935    0.470573    0.519347
H     -1.870769   -1.244695    0.398706
H     -1.979036   -0.317246   -1.116810
