12

O      2.696122   -0.911985   -0.498985
C      2.213826    0.166684   -0.229041
C      0.808732    0.323067    0.203196
O      0.112636   -0.897069    0.263416
C     -1.215798   -0.856385    0.659253
C     -2.065539    0.066735    0.270528
H     -3.083502    0.031601    0.621300
H     -1.803241    0.878255   -0.394078
H     -1.564038   -1.629129    1.323591
H      0.825310    0.787840    1.225820
H      0.230731    1.006497   -0.485287
H      2.844761    1.033888   -0.311945
