13

C      1.887067    1.681061    0.293427
N      0.465714    1.522153    0.087205
C     -0.028278    0.150145    0.012097
O      0.533503   -0.893231    0.090724
C     -0.564409   -1.659110   -0.070254
H     -0.602704   -2.350353   -0.958853
H     -0.885850   -2.207857    0.874975
C     -1.339507   -0.418075   -0.179251
H     -2.095614   -0.218022    0.623564
H     -1.727869   -0.154494   -1.200353
H     -0.198070    2.325962   -0.006811
H      2.177221    0.920932    1.076485
H      2.378796    1.300889   -0.642955
