12

O      2.378827   -1.331466   -0.087487
C      2.208498   -0.135856   -0.006258
C      0.838895    0.420240    0.157520
O     -0.081379   -0.617807    0.191303
C     -1.353038   -0.044930    0.346365
O     -2.250782   -1.129475    0.375438
H     -3.178578   -0.831625    0.530181
H     -1.553238    0.588113   -0.529380
H     -1.393898    0.543720    1.266125
H      0.752068    0.944713    1.143420
H      0.554876    1.085531   -0.683152
H      3.077751    0.508842   -0.056303
