15

C     -2.367562   -0.803508   -0.047816
C     -1.284753    0.233369   -0.374179
O     -0.107600   -0.228215    0.266621
C      1.094071    0.461983    0.193050
N      1.066330    1.715919   -0.012477
H      1.990268    2.217730   -0.064334
C      2.362257   -0.301955    0.358933
H      2.147330   -1.089531    1.117385
H      3.217735    0.326193    0.620925
H      2.514261   -0.851814   -0.599777
H     -1.170950    0.283343   -1.471830
H     -1.554488    1.225684   -0.013052
H     -2.456740   -1.494240   -0.911236
H     -3.354919   -0.308770    0.073275
H     -2.095241   -1.386189    0.864512
