14

C     -1.317067    0.176298    0.751573
H     -1.326908    0.977177    1.544272
H     -1.965649   -0.721034    0.949596
C     -1.245406    0.655281   -0.710268
H     -1.813077    0.029916   -1.473478
H     -1.331935    1.716353   -0.899213
C     -0.094959    0.073519   -0.026355
C      0.632510   -1.137585   -0.342716
H      0.345376   -1.972269    0.307492
H      0.789530   -1.411821   -1.421174
C      1.818535   -0.338650    0.073880
H      2.921569   -0.540030    0.176197
C      1.152758    0.748221    0.351949
H      1.434723    1.744622    0.718244
