15

N      2.034130   -0.115345   -0.897773
C      1.111561   -0.183059    0.275729
H      1.630752   -0.534444    1.164086
C      0.352742    1.161451    0.339297
N      0.323605    2.435068    0.458220
H     -0.532918    2.972627    0.417458
C     -0.288407   -0.107817    0.192484
C     -1.327161   -0.510788   -0.699509
H     -2.120190    0.198375   -1.047296
H     -1.245791   -1.405512   -1.329374
C     -1.354419   -0.803958    0.824112
H     -2.210059   -0.381517    1.379055
H     -1.174687   -1.885108    1.110130
H      2.997315   -0.049999   -0.590582
H      1.803526   -0.789972   -1.596037
