11

C     -1.218889    0.420593   -0.342877
C     -0.586215   -0.652907    0.499154
N      0.636119   -1.155022   -0.085738
C      1.624591   -0.430295   -0.399045
N      2.705454    0.229159   -0.158065
H      2.688133    1.255570   -0.002232
H     -1.266055   -1.537185    0.610737
H     -0.381974   -0.279690    1.523664
H     -0.460009    0.842544   -1.049966
H     -2.124206    0.055944   -0.897108
H     -1.616951    1.251289    0.301477
