12

C     -1.839892   -0.044711    0.086745
C     -0.435719    0.350334    0.470165
C      0.523150   -0.607515   -0.178539
C      1.961611   -0.288764    0.099663
H      2.563635   -1.158226   -0.261728
H      2.191077   -0.100936    1.156082
H      2.337705    0.594057   -0.467805
H     -0.364112    0.298681    1.586995
H     -0.232801    1.390398    0.154373
H     -2.443687   -0.343523    0.975601
H     -2.386759    0.817655   -0.365689
H     -1.874208   -0.907450   -0.608093
