11

N      2.078256   -0.003306   -0.029722
C      0.741473   -0.110627    0.443219
O      0.459585   -0.389905    1.644822
N     -0.357332    0.098992   -0.446739
C     -1.737419   -0.003915    0.007597
H     -2.089532    1.001957    0.330078
H     -2.371133   -0.253441   -0.888121
H     -1.849551   -0.767239    0.809287
H     -0.107154    0.329032   -1.436638
H      2.590238   -0.793042   -0.497661
H      2.642569    0.891494    0.063877
