10

O      1.895951   -0.790802   -0.550403
C      0.650791   -0.329442   -0.075309
C      0.146948    0.017770    1.017191
H      0.541047    0.053126    2.031056
C     -1.188508    0.401426    0.378794
H     -2.027343    0.530985    1.013340
O     -1.033471    1.221565   -0.758460
C     -0.708021   -0.104119   -0.754142
H     -0.949301   -0.726585   -1.648822
H      2.671908   -0.273925   -0.653246
