12

C     -0.965870    0.814747   -0.218799
H     -0.654758    1.281642   -1.171548
H     -1.810829    1.304760    0.262418
C     -0.996750   -0.712316   -0.133262
H     -1.753155   -1.178530    0.528104
H     -0.747732   -1.204681   -1.099337
C      0.073155    0.082248    0.574433
C      1.451921   -0.089413    0.010974
H      1.504452   -0.980825   -0.671924
H      2.167765   -0.313752    0.829280
H      1.750529    0.803544   -0.579150
H     -0.018728    0.192574    1.668810
