10

N      1.828120   -0.121681   -0.643497
C      0.907518    0.105826    0.412237
N     -0.486537    0.053538    0.246353
C     -1.670990   -0.129714   -0.511895
H     -2.131470   -0.346113   -1.452113
C     -1.788725    0.163102    0.795754
H     -2.408461    0.354343    1.675732
O      1.388939    0.364740    1.540615
H      1.878864    0.488982   -1.474963
H      2.482743   -0.933024   -0.588224
