14

O      1.269385   -0.738820   -1.094171
C      1.040148   -0.167763    0.130952
H      1.839995   -0.172967    0.867603
C      0.360422    1.196091   -0.034091
H      0.978392    2.052975   -0.104168
C     -0.628684    0.891535   -1.139018
C     -1.176106   -0.435602   -0.571889
H     -0.933319   -1.258038   -1.272725
H     -2.246497   -0.308820   -0.383722
C     -0.355556   -0.479963    0.688633
H     -0.447237   -1.290393    1.363029
N     -0.336062    0.879844    1.180098
H     -1.243348    1.334848    1.336121
H      1.878467   -1.502926   -0.966653
