10

O      0.318756   -1.066419    0.305119
C      0.576665    0.173535    0.159341
O      1.835746    0.698423    0.415583
C      2.815752    0.048464    0.800342
H      2.866667   -0.993832    0.996898
O     -0.422375    1.034934   -0.267712
C     -1.722269    0.559902   -0.543975
H     -2.503529    1.118700   -0.001258
H     -1.941150    0.661219   -1.627605
H     -1.824262   -0.509108   -0.236733
