12

N      0.668117    0.892201    0.107371
C      1.656207   -0.161595   -0.014562
H      1.947932   -0.202665   -1.100248
H      1.290507   -1.146604    0.288924
H      2.557793    0.047972    0.619602
C     -0.578002    0.597788    0.105482
O     -1.521170    1.635748    0.224950
H     -1.238481    2.576264   -0.079091
C     -1.076363   -0.792155   -0.017267
H     -1.108661   -1.243624    0.993130
H     -2.116211   -0.780929   -0.445150
H     -0.481667   -1.422402   -0.683139
