11

C      1.596648    0.460690    0.069152
N      0.656856   -0.174560    0.980640
C     -0.354444   -0.843239    0.599747
O     -0.604841   -0.995061   -0.750646
C     -1.581763   -0.430354   -1.290764
O     -2.399157    0.349490   -0.486665
H     -1.905831    1.119798   -0.005884
H     -0.977793   -1.266466    1.375998
H      1.134857    0.763907   -0.878281
H      2.376010   -0.300314   -0.145747
H      2.059458    1.316109    0.628280
