14

C      1.913727   -0.592948   -0.246484
O      0.993267    0.371289   -0.635473
C     -0.063109    0.355735    0.251629
O     -0.262721    1.573532    0.886456
H      0.051977    2.323824    0.302244
C     -1.370045    0.026874   -0.476045
O     -2.374276    0.032048    0.484559
H     -2.480546   -0.843991    0.928068
H     -1.588760    0.794334   -1.242621
H     -1.275112   -0.995258   -0.893416
H      0.079898   -0.402080    1.034682
H      2.780952   -0.622844   -0.924063
H      1.394337   -1.586190   -0.292230
H      2.200410   -0.434325    0.822693
