9

C     -0.514111   -0.955106    0.349048
H     -0.730910   -2.029705    0.515778
N     -1.103567    0.055934    0.654831
C     -0.198693    0.912807    0.095023
H     -0.589523    1.441071   -0.831743
H      0.334071    1.638478    0.771037
C      0.572223   -0.279150   -0.309616
H      1.584587   -0.380376    0.180938
H      0.645923   -0.403953   -1.425295
