11

C      1.084779   -0.621742   -0.106118
C      0.141908    0.501488   -0.148281
O      0.616323    1.792975   -0.070252
H      0.707309    2.257776    0.848101
C     -1.137263    0.264033   -0.259374
O     -1.678296   -1.031374   -0.342931
H     -1.837454   -1.473364    0.566320
H     -1.799686    1.141135   -0.286298
H      1.103199   -1.001801    0.941453
H      2.112596   -0.363947   -0.411966
H      0.686585   -1.465179   -0.730654
