8

O      1.463228    0.075036    0.549415
C      0.375691   -0.503358   -0.084399
H      0.329122   -1.612039   -0.011750
C     -0.945162    0.207458    0.019123
H     -1.841713   -0.393256    0.229173
H     -0.992877    1.220209    0.493149
C     -0.215510    0.157015   -1.263154
H      1.827221    0.848936    0.068443
