11

C     -0.652518    0.173029   -0.655033
C     -1.296475   -0.017773    0.666180
O     -2.475875   -0.296460    0.696822
H     -0.754355    0.082591    1.588586
N      0.733076    0.492797   -0.430285
C      1.550441   -0.431344    0.254782
O      1.131518   -1.535036    0.686803
H      2.605448   -0.173853    0.418951
H      1.114717    1.388778   -0.769490
H     -1.168703    1.026982   -1.138636
H     -0.787273   -0.709711   -1.318679
