16

O      2.608902    0.246691    0.908747
C      1.317684   -0.320935    0.713406
C      0.830865    0.245029   -0.574924
C     -0.503160   -0.194752   -1.041089
C     -1.661243    0.100969   -0.144040
C     -1.557710   -0.549858    1.209374
H     -2.613077   -0.743503    1.545374
H     -2.576548   -0.259841   -0.697818
H     -1.722113    1.202905   -0.035452
H     -0.715011    0.348186   -2.011904
H     -0.528247   -1.270312   -1.364107
H      1.621147    0.000142   -1.343892
H      0.845893    1.370023   -0.502969
H      1.423597   -1.410063    0.651520
H      0.747745   -0.000100    1.616366
H      2.481278    1.235420    1.071407
