15

O      1.766801   -0.288017   -1.284267
C      1.505780   -0.166714    0.070012
H      2.417894   -0.104244    0.715871
C      0.343233    0.583210    0.578313
H      0.423578    1.130164    1.528351
C     -0.864006    0.867527   -0.275225
H     -0.604842    1.031577   -1.337736
H     -1.431736    1.742643    0.064530
C     -1.634455   -0.426879   -0.175092
H     -2.108249   -0.580052    0.801894
H     -2.333643   -0.475430   -1.026368
O     -0.613422   -1.366113   -0.287094
C      0.367082   -0.929277    0.603719
H      0.389510   -1.464627    1.569030
H      2.376476    0.446232   -1.545937
