14

O      0.244172    0.833471    1.108466
C     -1.094711    0.658765    0.746478
H     -1.374187    1.490428    0.075854
H     -1.752505    0.609712    1.625825
C     -1.087768   -0.636962   -0.033086
H     -1.741839   -0.549841   -0.917389
H     -1.377830   -1.439801    0.663307
C      0.345174   -0.767381   -0.477455
H      0.403093   -0.814217   -1.577199
H      0.876734   -1.580319    0.040533
C      0.925617    0.568400   -0.069828
O      2.299357    0.487108    0.136554
H      2.621345   -0.215984   -0.497775
H      0.713349    1.356620   -0.824284
