14

C     -1.754447    0.393707    0.767028
C     -0.564088    0.363125   -0.174448
H     -0.838595    0.581597   -1.209858
O      0.512381    1.043796    0.346945
C      1.314248   -0.079091    0.474043
O      2.463611   -0.074365   -0.339407
H      2.933375    0.800282   -0.200054
H      1.547730   -0.276604    1.546634
C      0.217385   -0.926788   -0.081924
H     -0.226978   -1.616628    0.666737
H      0.414830   -1.411582   -1.054826
H     -2.296132   -0.565690    0.633122
H     -1.350705    0.500858    1.790930
H     -2.372614    1.267383    0.536392
