10

O      2.042559   -0.196365    0.357760
C      0.902290   -0.328823   -0.415798
H      1.145365   -0.796039   -1.402773
C      0.183318    0.932513   -0.638461
N     -1.028924    0.796824   -0.174055
H     -1.764886    1.537728   -0.203423
C     -1.164540   -0.503433    0.385799
H     -2.100993   -0.847437    0.848630
N     -0.076959   -1.150431    0.256508
H      1.862771    0.555463    0.985812
