12

N      2.308397    1.590018   -0.242940
C      1.707358    0.634469    0.032899
C      0.979538   -0.566852    0.385384
H      1.600894   -1.497959    0.463163
C     -0.120378   -0.461415    1.353538
H     -0.424731    0.521540    1.773553
N     -0.385212   -0.726470   -0.057409
C     -1.071408    0.329312   -0.729274
H     -2.167926    0.063049   -0.731868
H     -1.023415    1.285057   -0.149758
H     -0.748179    0.527490   -1.752584
H     -0.654939   -1.698239   -0.344704
