16

N      2.900866    0.075332   -0.836857
C      1.653761    0.574792   -0.295627
H      1.765259    1.157348    0.630763
O      0.799439    1.079260   -1.304284
C      0.365443   -0.064084   -0.588888
C     -0.728513    0.120365    0.433677
C     -2.006363   -0.580538    0.025088
O     -2.455219   -0.065311   -1.189101
H     -3.124226    0.650194   -1.026992
H     -2.772381   -0.327884    0.795688
H     -1.856796   -1.655207   -0.103926
H     -0.354935   -0.266663    1.391362
H     -0.901267    1.195289    0.553048
H      0.428996   -1.044084   -1.138734
H      2.766810   -0.513644   -1.683779
H      3.519124   -0.335166   -0.118560
