12

C     -1.966131   -0.033643    0.408478
C     -0.900659    0.722999   -0.272784
N     -0.010024    0.076520   -0.872817
C      1.081341   -0.514735   -1.155874
C      2.020465   -0.807883   -0.087807
N      2.811356    0.108197    0.341131
H      2.744619    1.048901   -0.106954
H      2.028204   -1.787352    0.316339
H     -0.909721    1.788414   -0.236297
H     -2.940151    0.372417    0.027038
H     -1.991221    0.135723    1.504576
H     -1.968077   -1.109559    0.134972
