16

C      2.038920    0.737781   -0.453998
C      0.530902    0.811156   -0.744387
N      0.061173   -0.513343   -0.814171
C     -0.024692   -1.407108    0.287401
H      0.295613   -2.456290    0.239735
H      0.048427   -0.941953    1.297323
C     -1.222652   -1.010749   -0.593371
C     -2.328539   -0.424970    0.177521
O     -2.824989    0.780645   -0.263483
H     -2.818265    1.386479    0.550674
H     -1.535634   -1.813083   -1.331065
H      0.092933    1.335055    0.131154
H      0.405128    1.377002   -1.667666
H      2.326744   -0.245662   -0.023945
H      2.585443    0.826334   -1.429624
H      2.369487    1.558707    0.180779
