16

C      2.905646    0.289630   -0.641443
N      1.571901    0.100812   -1.180704
C      0.538574    0.051993   -0.416444
O      0.164712    0.130214    1.022932
C     -0.831181   -0.057242    0.056665
C     -1.733553    1.094430   -0.273282
H     -2.199046    0.974361   -1.278727
H     -2.607004    1.148397    0.438573
H     -1.248540    2.075209   -0.253664
C     -1.502553   -1.414107   -0.064620
H     -2.529100   -1.367706    0.297838
H     -0.859940   -2.122708    0.516878
H     -1.408167   -1.705510   -1.136647
H      3.621874   -0.138329   -1.397926
H      2.986077   -0.390951    0.237719
H      3.130301    1.331505   -0.384271
