16

C     -2.648154   -0.296846   -0.573108
C     -1.442777   -0.041001   -0.152503
O     -1.241529    0.523291    1.087748
H     -1.347014    1.492618    1.310028
C     -0.266261   -0.348480   -0.991851
N      0.629280   -1.272562   -0.367527
C      1.761741   -0.868341    0.056162
C      2.084933    0.570899   -0.130826
H      2.257890    0.812163   -1.214243
H      1.299460    1.231543    0.314737
H      3.048528    0.776601    0.418169
H      2.479807   -1.552178    0.543416
H      0.234735    0.602960   -1.302765
H     -0.562001   -0.826924   -1.963338
H     -2.798320   -0.736824   -1.540981
H     -3.490317   -0.066920    0.049760
