16

C      2.937259    0.106348   -0.626238
C      1.646744    0.039209   -1.421527
N      0.657649   -0.567848   -0.560907
C     -0.523058    0.274011   -0.575524
C     -1.539783   -0.381794    0.330077
C     -2.758263    0.443175    0.344072
O     -2.809040    1.458420   -0.307582
H     -3.596061    0.143562    0.930107
H     -1.732301   -1.396004   -0.115663
H     -1.092360   -0.489858    1.357142
H     -0.918473    0.299044   -1.608529
H     -0.288131    1.297018   -0.207487
H      0.415433   -1.531765   -0.805054
H      3.754464    0.571458   -1.197004
H      2.687688    0.670392    0.310308
H      3.158233   -0.935368   -0.303313
