16

C      2.648838   -0.310030   -0.820509
C      1.346860    0.289776   -0.392099
C      0.784256    1.088120    0.545236
H      0.862639    1.709419    1.436631
C     -0.109078    0.543064   -0.495409
C     -1.059364   -0.537770   -0.020848
C     -2.490473   -0.141130   -0.186479
H     -3.094560   -1.072443   -0.268998
H     -2.626754    0.435797   -1.137313
H     -2.856730    0.506159    0.624392
H     -0.857555   -1.428060   -0.652377
H     -0.837263   -0.821551    1.011834
H     -0.465783    1.214450   -1.302243
H      2.403277   -1.005662   -1.661759
H      3.010723   -0.937614    0.004453
H      3.340967    0.467473   -1.141634
