15

C     -0.768970   -1.265261   -0.475902
C     -0.682473   -0.091270    0.459486
C     -1.022493    1.178340   -0.306828
H     -0.799534    0.994419   -1.377789
H     -2.112958    1.403694   -0.240139
H     -0.406819    2.038391    0.015362
C      0.614217    0.015111    1.146871
C      1.700850    0.168457    0.442290
C      2.839019    0.418636   -0.139104
O      3.907451    0.078525   -0.709433
H      0.658013   -0.034312    2.227384
H     -1.506158   -0.216779    1.207305
H      0.241097   -1.586891   -0.843545
H     -1.302420   -2.134722   -0.027499
H     -1.358822   -0.966338   -1.378458
