12

O     -1.390568   -0.392563   -1.427443
C     -1.127330   -0.511176   -0.090198
H     -1.465422   -1.395206    0.516531
C     -0.064027   -0.591770   -1.048341
H      0.500142   -1.376220   -1.450692
C      0.739659    0.502352   -0.145491
C      1.689120   -0.124584    0.724026
N      2.317775   -0.530622    1.294428
H      0.992962    1.397566   -0.795097
C     -0.553705    0.709109    0.575367
H     -0.451208    0.699051    1.644415
H     -1.187397    1.614063    0.202495
