21

C      2.259177   -0.720398   -0.977147
C      1.365002   -1.040595    0.169012
C      0.268430   -0.033728    0.394661
C      0.760527    1.344313    0.677952
H      1.753407    1.378477    1.146024
H      0.062889    1.917200    1.334122
H      0.827719    1.923282   -0.281482
C     -0.756519   -0.046574   -0.713514
C     -1.801111    1.006350   -0.368836
C     -3.107352    0.329383   -0.015249
H     -3.860625    1.077881    0.248279
H     -2.921284   -0.336096    0.872956
H     -3.456116   -0.342379   -0.825910
H     -0.284408    0.194478   -1.693055
H     -1.180677   -1.051780   -0.808132
H     -0.280226   -0.380742    1.319275
H      1.931584   -1.225278    1.099528
H      0.853126   -2.012743   -0.065907
H      1.835053   -1.043892   -1.966430
H      3.212536   -1.282667   -0.869823
H      2.518867    0.345508   -1.054430
