19

C     -2.642271    0.686458   -0.365731
C     -1.431032    0.067734    0.302314
O     -0.450030   -0.058696   -0.672505
C      0.724019   -0.616032   -0.196414
C      1.104514   -1.879926   -0.955637
H      0.305400   -2.613254   -1.000182
H      1.984550   -2.300036   -0.422856
H      1.423490   -1.640053   -1.978907
C      1.842935    0.363052   -0.459242
C      1.968372    1.431376    0.561930
H      2.814044    1.200187    1.267236
H      1.049021    1.702048    1.079704
H      2.312612    2.365333    0.029513
H      0.684415   -0.863621    0.865596
H     -1.764213   -0.925116    0.684841
H     -1.124949    0.688638    1.160284
H     -3.541325    0.376431    0.203728
H     -2.712350    0.226599   -1.386819
H     -2.547200    1.788878   -0.420743
