16

C     -0.820972   -0.414099   -0.718180
C     -0.015714    0.297921    0.337467
C      1.282890   -0.476826    0.511019
O      1.988130   -0.520839   -0.662902
C      2.819749    0.313701   -0.969727
H      2.988590    1.129648   -0.246180
H      1.093208   -1.529708    0.806250
H      1.898074   -0.026687    1.339610
H      0.251606    1.296440   -0.065653
H     -0.513490    0.391861    1.299718
C     -2.143547    0.264282   -0.982918
H     -2.665866    0.484594   -0.010624
H     -2.070331    1.139242   -1.636118
H     -2.791154   -0.482547   -1.491017
H     -1.056115   -1.428192   -0.320765
H     -0.245056   -0.438790   -1.647103
