16

C      2.151044   -0.255494   -0.399470
C      1.047775    0.607602    0.196193
C     -0.145941   -0.299458    0.401010
H      0.026856   -1.077348    1.186311
C     -0.681897   -0.946674   -0.826179
C     -1.985613   -0.260812   -0.614164
H     -2.312778    0.423384   -1.427692
H     -2.763013   -1.018520   -0.342581
C     -1.450610    0.390655    0.618307
H     -1.352303    1.509405    0.556084
H     -1.953856    0.083595    1.573170
H      1.364170    0.934244    1.214959
H      0.763311    1.434710   -0.455242
H      2.803557   -0.689251    0.402675
H      1.730939   -1.135541   -0.945140
H      2.758356    0.299501   -1.138241
