14

O     -1.791855    0.989323   -0.756651
C     -2.159797   -0.315896   -0.330023
H     -1.812913   -1.168157   -0.960036
H     -3.197152   -0.385436    0.036271
C     -1.196486    0.431917    0.424503
N      0.246916    0.188362    0.225208
C      1.398432    0.745060    0.798409
H      1.531549    1.538498    1.575472
C      2.170722   -0.007747    0.084920
H      3.273625   -0.061685    0.061519
C      1.055285   -0.650799   -0.571543
H      0.947899   -1.732328   -0.293987
H      1.014748   -0.482868   -1.672940
H     -1.480975    0.911758    1.378879
