16

C     -2.136302   -0.261868   -0.197826
C     -0.659480   -0.173309   -0.025914
C      0.140011   -1.404945   -0.002949
H     -0.368272   -2.241744   -0.602203
H      0.327957   -1.705626    1.099885
C      1.502743   -1.141062   -0.606455
C      2.056758    0.061669   -0.403288
H      3.052101    0.245895   -0.841491
C      1.237064    1.137686    0.264365
H      1.687205    1.604396    1.112837
H      1.404623    1.992554   -0.669162
N     -0.162838    1.077510    0.246048
H     -0.566511    1.576011    1.136308
H     -2.541476    0.739208   -0.410117
H     -2.437683   -0.994375   -0.922726
H     -2.535901   -0.512002    0.822686
