11

C     -1.490632    0.448155   -0.089497
H     -2.582540    0.585752   -0.159365
C     -0.765793    1.500473   -0.017239
C      0.466329    1.617004    0.067745
C      1.383875    0.731834    0.109058
H      2.418726    1.098862    0.186496
N      1.307387   -0.695979    0.071652
H      2.195826   -1.229085    0.119004
N      0.098703   -1.409758   -0.025285
C     -1.112964   -0.966748   -0.096259
H     -1.918916   -1.680510   -0.166313
