18

C      0.519955    1.382920   -0.072565
C      0.249798   -0.057007   -0.425997
C      1.392251   -0.910229    0.136446
C      2.722129   -0.505929   -0.437004
H      3.521196   -0.880716    0.238333
H      1.122903   -1.966320   -0.089427
H      1.453397   -0.802780    1.237069
C     -1.014402   -0.563342    0.214354
C     -2.238818    0.198485   -0.190397
H     -2.058578    1.281244   -0.356918
H     -2.758429   -0.279992   -1.042138
H     -2.952197    0.147171    0.681506
H     -0.853204   -0.552046    1.318108
H     -1.151335   -1.614570   -0.091709
H      0.175760   -0.172085   -1.518892
H      0.312290    1.605191    0.987706
H      1.599223    1.608166   -0.241794
H     -0.041941    2.081840   -0.746570
