11

C      1.749899    0.104374    0.021904
C      0.449789   -0.036107   -0.055793
C     -0.537943    1.015292    0.068730
H     -0.372248    2.054879    0.240614
N     -1.788759    0.381419   -0.085098
H     -2.458669    0.589711    0.681195
N     -1.595298   -0.957497   -0.289072
N     -0.237785   -1.251888   -0.277831
H      0.139714   -2.219255   -0.415061
H      2.228108    1.060297    0.193799
H      2.423193   -0.741225   -0.083387
