9

C     -1.680560    0.433828   -0.157225
N     -0.578460    0.722968   -0.760730
C      0.436955   -0.283365   -0.814791
C      1.637213   -0.113962   -0.329523
H      1.989136    0.785238    0.156073
H      2.351794   -0.915263   -0.405189
H      0.191348   -1.230724   -1.282931
H     -2.496036    1.137791   -0.072699
H     -1.851390   -0.536510    0.301359
