13

C      2.104407    0.167443   -0.175490
O      1.026849   -0.559914    0.312158
C     -0.121350   -0.077098   -0.296523
H      0.155810    0.750235   -0.996183
C     -0.884721   -1.134096   -0.990384
N     -2.013593   -1.173239   -0.473497
C     -2.254469   -0.373468    0.455085
H     -3.174203   -0.248185    1.035378
N     -1.087642    0.405018    0.668065
H     -0.994158    1.164536    1.391028
H      2.230458    0.086138   -1.270271
H      3.016786   -0.254176    0.286180
H      1.995826    1.246805    0.054454
