9

N      2.624795    0.044819    0.325597
C      1.355052    0.115845    0.149354
C      0.051921    0.018773    0.071043
C     -1.157460   -0.665276   -0.105152
H     -1.622242   -0.941430   -1.075243
H     -1.554918   -1.289388    0.736243
N     -1.145285    0.799357    0.150621
H     -1.732609    1.645492    0.270367
H      3.180745    0.271807   -0.522830
