13

N      3.474690    0.752060    0.094382
C      2.557079    0.048827    0.194382
C      1.391844   -0.852661    0.310322
C      0.221341   -0.177341    0.964509
C     -0.587037    0.671234    0.036108
C     -1.972199    0.131602   -0.214323
H     -2.767287    0.826608    0.140951
H     -2.148220   -0.847632    0.268997
H     -2.165634    0.011892   -1.312981
H     -0.062677    0.738195   -0.924124
H     -0.709682    1.675540    0.525694
H      1.631388   -1.752885    0.918348
H      1.136395   -1.225439   -0.717778
