17

C      2.448973    0.239404    0.110411
C      1.341862   -0.494309    0.785374
C      0.249141   -0.948142   -0.135783
C     -0.829387    0.110399   -0.306799
O     -0.341767    1.284139   -0.830433
H     -0.767237    1.511129   -1.714546
C     -1.520187    0.377629    1.012671
H     -1.872939   -0.584621    1.453120
H     -2.409537    1.021150    0.803112
H     -0.841258    0.873959    1.741002
O     -1.791707   -0.398268   -1.178643
H     -2.217934   -1.207424   -0.813805
H      0.593077   -1.214161   -1.147136
H     -0.265098   -1.832162    0.324655
H      3.382089   -0.393099    0.135780
H      2.148102    0.480772   -0.933294
H      2.693807    1.173605    0.694315
