13

C      2.131977   -0.003182    0.009536
C      0.918962    0.113920    0.531416
C     -0.286958    0.183176   -0.348578
H     -0.036622    0.392138   -1.415911
C     -1.343894    1.009598    0.171834
H     -1.512607    2.106584    0.385787
N     -2.122286    0.061864    0.344075
C     -1.252397   -0.890930   -0.121215
H     -1.639137   -1.373229   -1.060137
H     -0.877398   -1.660013    0.607665
H      0.776042    0.161808    1.604564
H      3.004315   -0.053495    0.639780
H      2.240003   -0.048240   -1.064329
