13

C     -1.679615    0.612836    0.317681
C     -0.908297   -0.570625   -0.241739
C      0.130914   -1.068017    0.647163
O      1.281759   -0.817716    0.690243
C      2.027402    0.000363   -0.052540
H      1.954710   -0.113854   -1.136388
H      3.114861   -0.147953    0.208497
H      1.840769    1.083114    0.176232
H     -0.512478   -0.353177   -1.253390
H     -1.672894   -1.394553   -0.347212
H     -1.057446    1.177897    1.019817
H     -2.630539    0.303147    0.801561
H     -1.889148    1.288539   -0.545438
