13

C     -1.387493   -1.054934   -0.378887
C     -0.320720   -0.165022    0.068982
N     -0.376809    1.036538   -0.349296
C     -0.562582    2.270623   -0.539400
H     -1.169380    2.793818    0.215474
N      0.750154   -0.488832    0.905906
C      1.866634    0.412359    1.043506
O      2.883967    0.153349    0.124039
H      2.618099    0.319368   -0.808332
H      0.701603   -1.408839    1.422335
H     -1.572283   -0.836352   -1.467589
H     -2.344266   -0.890895    0.133116
H     -1.086922   -2.141179   -0.369854
