13

N     -2.163653    0.935023    0.029740
C     -0.831357    0.413057   -0.025948
N      0.241870    1.098108    0.031902
C      1.419042    0.316559   -0.047067
O      2.754453    0.746744   -0.014321
H      3.132644    1.086337    0.856151
C      1.055955   -0.944756   -0.162275
H      1.728101   -1.790868   -0.244511
C     -0.426148   -1.006475   -0.160010
H     -0.777809   -1.473124   -1.090789
H     -0.814378   -1.591983    0.710310
H     -2.403279    1.901323   -0.254297
H     -2.915442    0.310055    0.371116
