13

C     -2.004108    0.513474    0.675687
C     -1.424207   -0.367487   -0.294021
C     -0.218086   -0.807437   -0.076262
C      1.077144   -0.897544   -0.037485
C      2.020834    0.042440   -0.622214
H      2.220320    0.030069   -1.720457
O      3.142144    0.296905    0.199724
O      2.240971    1.249381   -0.010605
H      1.445050   -1.729353    0.467421
H     -1.952099   -0.647660   -1.156291
H     -1.294767    0.896566    1.455237
H     -2.840048   -0.023191    1.209393
H     -2.413146    1.443836    0.194359
