12

N     -1.477232    0.011195   -0.142367
H     -1.700392   -0.324739    0.999450
C     -0.325132   -0.804265   -0.307427
H     -0.504095   -1.834183   -0.234991
H     -0.202282   -0.584056   -1.493212
C      0.790928   -0.199532    0.424229
O      2.033113   -0.343925   -0.132127
H      2.237302    0.498852   -0.615862
H      0.779792   -0.756463    1.394175
C      0.399168    1.214134    0.551034
N     -1.020317    1.302601    0.313173
H     -1.010852    1.820380   -0.756076
