10

C      2.960091    0.558637    0.321326
C      1.755297    0.405763    0.190496
C      0.336754    0.235341    0.038801
N     -0.577087    1.137999   -0.043469
H     -0.370025    2.165814   -0.006015
N     -1.818939    0.517979   -0.183468
N     -1.747921   -0.732053   -0.195089
C     -0.367199   -1.068692   -0.055095
H     -0.026857   -1.606552   -0.953930
H     -0.144115   -1.614236    0.886442
