9

O     -1.530148    1.500734   -0.081961
C     -0.686089    0.565760   -0.241972
N     -0.998070   -0.738451   -0.166482
H     -1.958057   -1.113947    0.029771
C      0.157446   -1.372584   -0.391939
N      1.135565   -0.484962   -0.596897
H      2.131560   -0.708709   -0.794428
N      0.617905    0.717513   -0.504993
H      1.129887    1.634646   -0.616757
