9

N      0.800394   -0.964559   -0.003463
C      1.358727    0.106881   -0.019579
H      2.510706    0.287530    0.003020
N      0.549815    1.218701   -0.108419
C     -0.679611    0.851802   -0.020788
H     -1.701638    1.242296   -0.027641
C     -0.637601   -0.637651   -0.014216
H     -1.298205   -1.150914   -0.728646
H     -0.902586   -0.954086    0.919733
