11

O      2.520615   -1.168068    0.027032
C      1.693579   -0.228906    0.002543
C      0.389528    0.356933   -0.368592
C     -0.799300   -0.113400    0.379920
C     -1.793779   -0.730155   -0.226235
H     -2.640405   -1.055866    0.357817
H     -1.759607   -0.902346   -1.272463
H     -0.851025    0.053274    1.445083
H      0.212862    0.634903   -1.433790
N      1.361764    1.140286    0.361429
H      1.665769    2.013345    0.823084
