15

C      1.301688    0.668608    0.690053
C      0.980536    0.241794   -0.713408
C     -0.380466   -0.325959   -0.883708
H     -0.871691   -0.079310   -1.852227
C     -0.874950   -1.507370   -0.189862
H     -1.694084   -2.081659   -0.637216
H     -0.302491   -2.068300    0.570808
C     -1.320160   -0.139887    0.286586
N     -1.996660    0.599250    1.092197
H     -1.969327    1.623544    0.995370
H      1.089925    1.133110   -1.358322
H      1.733223   -0.522064   -1.044750
H      0.705203    1.569223    0.926102
H      2.377416    1.005276    0.681050
H      1.221838   -0.116256    1.437327
