14

C     -1.205328    1.214143   -0.319850
C     -0.627633   -0.090232    0.103426
C      0.787795   -0.303219    0.285827
N      1.870297    0.630339    0.537828
H      2.005422    1.146569    1.436566
H      2.506333    0.694300   -0.293108
C      0.722443   -1.565093    0.080294
H      1.488150   -2.361796    0.070810
C     -0.696695   -1.438667   -0.209476
H     -1.092608   -1.881581   -1.163144
O     -1.599934   -0.959468    0.641260
H     -1.449667    1.374345   -1.391015
H     -2.165605    1.456894    0.250430
H     -0.542970    2.083465   -0.029849
