15

C     -1.256089    0.546118   -0.869914
H     -0.953958   -0.111747   -1.718361
H     -1.558367    1.555472   -1.218618
C     -1.985178   -0.104305    0.223931
H     -2.129961   -1.207720    0.219235
H     -2.868301    0.440322    0.614999
C     -0.590777    0.440991    0.446895
C      0.504318   -0.515967    0.722733
H      0.242894   -1.307455    1.475178
C      1.761643   -0.599788    0.071694
C      2.146252    0.190736   -1.141849
H      3.198038    0.561833   -0.962545
H      2.417306   -1.468896    0.266047
O      1.684471    0.220222    1.251952
H     -0.612291    1.360185    1.071722
