11

C      1.381998    0.070077    0.181405
C     -0.048605    0.527799   -0.081191
H     -0.184625    1.524328   -0.520784
C     -1.144371   -0.252217    0.483174
H     -2.154649    0.149799    0.555929
H     -0.909067   -0.989596    1.296703
N     -0.737813   -0.596716   -0.862646
H     -1.262853   -0.275826   -1.677501
H      1.337840   -0.810799    0.834296
H      1.807109   -0.277630   -0.803707
H      1.915036    0.930781    0.594322
