10

O      2.165767   -0.230876    0.608913
C      0.828257   -0.087808    0.287523
C      0.059571   -0.947555   -0.312412
C     -1.319755   -0.497334   -0.510424
H     -2.023910   -1.175043    0.052673
H     -1.554150   -0.498186   -1.594850
N     -1.283129    0.810655    0.076681
N      0.007821    1.032740    0.545637
H      0.308932    1.905781    1.017003
H      2.810596   -0.312375   -0.170745
