13

O      2.572006    0.180535   -0.330704
C      1.692459   -0.660082   -0.131367
C      0.557742   -0.386565    0.802520
C     -0.514188    0.438510    0.104230
C     -0.114605    1.793031   -0.424095
H     -0.361064    2.537022    0.366808
C     -1.528028   -0.276071   -0.698327
H     -1.356576   -1.362276   -0.819340
H     -2.080836    0.216555   -1.503765
O     -1.800084    0.224821    0.564915
H      0.171758   -1.349849    1.130087
H      0.960032    0.246040    1.615772
H      1.801383   -1.601670   -0.676734
