17

C      2.223002   -0.618101   -0.118795
C      1.143750   -0.906988    0.617586
O      0.660304    0.024684    1.529663
C     -0.309739    0.945018    1.134442
H     -0.613651    1.643809    1.967025
C     -0.156121    1.614825   -0.179833
H     -0.408411    2.688327   -0.318118
H      0.622280    1.259188   -0.854347
C     -1.341161    0.674017    0.133705
C     -1.375763   -0.537016   -0.728823
H     -2.148561   -0.378904   -1.537042
H     -0.420112   -0.693690   -1.309385
H     -1.591983   -1.476728   -0.193436
H     -2.339123    1.182575    0.237036
H      0.698300   -1.868195    0.459537
H      2.722530    0.346478   -0.003723
H      2.634457   -1.302557   -0.835491
