14

O      3.038539    0.119956    0.978597
C      1.830283    0.259779    0.316320
C      0.910017   -0.666937    0.257928
C     -0.344042   -0.392615   -0.485238
C     -1.538866   -0.485634    0.372503
C     -2.356572    0.530911    0.561934
H     -2.136266    1.467303    0.065440
H     -3.235637    0.493790    1.181466
H     -1.752396   -1.419182    0.863282
H     -0.404033   -1.064538   -1.379590
H     -0.290635    0.636954   -0.912053
H      1.089612   -1.610167    0.754561
H      1.641779    1.198878   -0.182982
H      3.548218    0.931503    1.309146
