15

C     -1.815381    0.935538   -0.028173
N     -0.541073    0.168269   -0.019078
C     -0.390564   -1.242768   -0.159503
H     -0.983544   -1.823385    0.583599
H     -0.695933   -1.522574   -1.207828
C      1.045487   -1.510956   -0.085359
H      1.534136   -2.509460   -0.157383
C      1.681332   -0.375220    0.081922
H      2.777632   -0.325420    0.165809
C      0.745674    0.727407    0.133047
N      1.015726    1.991672    0.287903
H      2.037457    2.216034    0.385162
H     -2.162388    1.073832    1.030003
H     -1.664764    1.901943   -0.504976
H     -2.583795    0.295089   -0.505146
