11

C     -1.300181   -0.363949   -0.104588
C     -0.109521    0.550595    0.110856
C      1.023815   -0.199622    0.623699
C      1.967569   -0.846647    1.044372
H      2.782951   -1.403294    1.425719
N      0.249481    1.098786   -1.151749
C      0.519603    1.546864   -2.168264
H     -0.407588    1.368905    0.775182
H     -1.253948   -0.767131   -1.151002
H     -1.248814   -1.194961    0.636229
H     -2.223367    0.210453    0.055374
