9

C      2.390072    1.657250    0.183421
C      1.570474    0.793246   -0.068646
C      0.603988   -0.231881   -0.345898
O     -0.626843    0.021049   -0.447675
C     -1.599195   -0.943019   -0.715773
H     -1.467701   -1.768265    0.038695
H     -2.605446   -0.526494   -0.714845
H     -1.385236   -1.401561   -1.698648
H      3.119885    2.399674    0.403709
