13

N      0.686575   -1.531521    1.597897
C     -0.210846   -0.724826    1.203334
C      0.192271    0.470246    0.412498
C     -0.822923    0.708484   -0.688094
O     -0.875277   -0.413965   -1.527603
H     -1.253257   -0.186307   -2.408453
H     -0.510824    1.592259   -1.260313
H     -1.813729    0.845689   -0.254950
C      1.466873    0.200186   -0.222991
N      2.476834   -0.032910   -0.736962
H      0.227204    1.382293    1.046676
H     -1.242630   -0.900671    1.435504
H      1.679729   -1.408958    1.403456
