16

C     -1.715343   -0.519907   -1.300436
C     -1.100503    0.139563   -0.139037
C     -1.768733    0.384207    0.960244
H     -1.307079    0.874239    1.819685
H     -2.812418    0.105915    1.054980
N      0.251710    0.522811   -0.205983
C      1.224853   -0.317009   -0.221029
C      0.881633   -1.731606   -0.164939
C      2.608421    0.169671   -0.292219
H      3.030119    0.248908    0.747733
H      2.659811    1.193296   -0.706045
H      3.211120   -0.494836   -0.930699
H      0.456324    1.565715   -0.245415
H     -2.392175   -1.351638   -0.960297
H     -0.970648   -1.015938   -1.963685
H     -2.257093    0.226609   -1.909982
