10

N      1.233104    0.920058   -0.387528
C      0.070616    1.355559   -0.612225
C     -0.916442    0.850587    0.029081
H     -1.674281    1.229774    0.551817
C     -0.448930   -0.502152   -0.194781
H     -0.521119   -0.734079   -1.250891
H     -1.102086   -1.270115    0.414748
C      0.953605   -0.414693    0.234653
H      0.854111   -0.240163    1.319000
H      1.551422   -1.194775   -0.103874
