18

C      1.582452    1.094319   -0.350569
C      1.326303   -0.324705   -0.695056
C      1.429904   -1.342186    0.323342
H      1.470597   -1.039894    1.375183
H      1.820485   -2.370600    0.149663
N      0.147502   -1.023760   -0.406205
C     -0.900051   -0.579458    0.434825
C     -1.916313    0.301209   -0.210448
O     -1.336568    1.464174   -0.715328
H     -1.544066    2.264956   -0.190001
H     -2.555094   -0.210232   -0.954954
H     -2.617783    0.643537    0.599097
H     -0.523760   -0.059745    1.344121
H     -1.444980   -1.490736    0.814302
H     -0.123062   -1.768064   -1.116636
H      1.134460    1.427027    0.606847
H      2.699746    1.209804   -0.215524
H      1.350227    1.804354   -1.192546
