12

O      2.675188   -0.460896    0.957422
C      2.191646    0.189015    0.007118
C      0.762821    0.237378   -0.165260
C     -0.010440   -0.401257    0.677437
C     -1.478030   -0.363636    0.517364
O     -1.790334    0.408765   -0.592858
H     -2.200558    1.276505   -0.352864
H     -1.789282   -1.428776    0.329358
H     -1.986845   -0.003934    1.435533
H      0.428683   -0.961208    1.497819
H      0.342899    0.803320   -0.992706
H      2.854254    0.704726   -0.670593
