17

C     -1.873607   -0.249390    0.504263
C     -0.703068    0.108991   -0.382591
H     -1.043407    0.131978   -1.444398
C      0.434226   -0.847399   -0.185311
H      0.057975   -1.808158    0.243128
H      0.949674   -1.032053   -1.160072
C      1.322168   -0.138573    0.785609
C      2.776325   -0.216077    0.391446
H      2.975370   -0.956460   -0.413975
H      1.187091   -0.568772    1.804219
O      0.970685    1.185781    0.839438
C     -0.077983    1.423375   -0.016919
H      0.252648    1.954742   -0.952302
H     -0.787620    2.103903    0.502751
H     -2.641255    0.536525    0.445737
H     -1.507075   -0.425677    1.541663
H     -2.292146   -1.202736    0.094054
