13

C      2.036043   -0.523038   -1.023561
O      0.862138    0.262813   -1.287179
C     -0.166686    0.289451   -0.336406
N     -0.526627   -0.716049    0.363376
C     -1.613410   -0.389742    1.259837
H     -1.232023   -0.566521    2.297009
H     -2.520528   -1.012237    1.050589
N     -1.844277    0.998625    0.973060
C     -1.016333    1.410077    0.051316
H     -0.963855    2.420219   -0.363126
H      2.706600   -0.397525   -1.898250
H      2.540065   -0.186970   -0.096999
H      1.738892   -1.589104   -0.989667
