10

C     -1.312963   -0.112583   -0.012910
C      0.017573    0.476898    0.261107
C      0.146695    1.634966    0.904924
C      1.287678   -0.179921   -0.161084
H      1.789298    0.515701   -0.853030
H      1.119572   -1.173107   -0.613313
H      1.947403   -0.373343    0.733533
H     -2.065085    0.336542    0.672280
H     -1.311844   -1.214357    0.114826
H     -1.618325    0.089203   -1.046333
