12

C     -1.496625   -0.201847   -0.320270
C     -0.306223    0.334514    0.472941
H     -0.613794    1.254725    1.014667
C      0.834847    0.578963   -0.405406
H      0.965650    1.276162   -1.222962
C      1.797428   -0.251186   -0.036144
H      2.781190   -0.334256   -0.478645
C      1.275994   -1.030198    1.080068
O      0.103547   -0.679701    1.338021
H     -1.812968    0.529356   -1.101587
H     -1.205504   -1.175159   -0.757547
H     -2.323540   -0.301373    0.416865
