15

C      2.186912    0.185489   -0.546814
O      0.995914    0.825711   -0.222676
C      0.046034   -0.055937    0.295291
O      0.546840   -0.646075    1.447465
H     -0.145263   -1.149141    1.942857
C     -1.273224    0.645233    0.442026
H     -1.747129    0.581360    1.437615
H     -1.294658    1.694237    0.068155
C     -1.708955   -0.345619   -0.586410
H     -2.528334   -1.006633   -0.188698
H     -2.071578    0.143499   -1.523073
O     -0.460438   -0.923389   -0.649714
H      1.955643   -0.584875   -1.306968
H      2.866692    0.962454   -0.946641
H      2.631545   -0.326314    0.337585
