13

C     -1.680566    0.099420   -0.874485
C     -0.763505   -0.267815    0.231364
C      0.475366   -0.958707    0.090022
C      1.570394   -0.262560    0.121036
C      2.617657    0.491485    0.241338
H      3.058444    0.668037    1.174391
H      3.012959    0.923739   -0.626314
H      0.524858   -1.980670   -0.033851
N     -1.132796    0.077145    1.440605
H     -2.006610    0.577228    1.647572
H     -1.114906    0.210478   -1.837299
H     -2.469891   -0.681600   -0.943890
H     -2.091404    1.103819   -0.630491
