17

C      2.237366   -0.155779   -0.540716
C      1.065722   -0.468313    0.335463
C      0.041058    0.667855    0.359645
H      0.434993    1.535282    0.945186
O     -0.496651    0.983020   -0.849313
C     -1.731258    0.544109   -0.482781
C     -2.276371   -0.618516   -1.318544
H     -2.133394   -1.535024   -0.712172
H     -2.474302    1.388633   -0.411725
C     -1.273685    0.154625    0.873333
H     -1.683131    0.734498    1.726045
H     -1.309937   -0.953650    1.021768
H      0.501369   -1.371263    0.021815
H      1.391620   -0.596170    1.386272
H      3.127299    0.207364    0.030991
H      2.024370    0.589199   -1.331882
H      2.554934   -1.105869   -1.053384
