17

C     -1.569755   -0.847145    0.348062
C     -1.004208    0.417726    0.901472
C      0.011767    1.074472   -0.001803
C      1.192172    0.192227   -0.276996
C      0.831178   -1.098146   -0.945130
O      1.842733   -2.028955   -0.629033
H      2.702826   -1.511707   -0.518183
H      1.684169   -0.059180    0.704078
H      1.892159    0.757593   -0.922742
O     -0.546116    1.547857   -1.176567
H      0.198251    1.901578   -1.725285
H      0.395454    1.964992    0.556416
H     -0.453328    0.153534    1.845238
H     -1.844344    1.110987    1.104675
H     -2.562366   -1.012463    0.861930
H     -0.970695   -1.757585    0.607586
H     -1.799895   -0.805784   -0.733717
