14

O      2.957067   -0.288461   -0.037474
O      1.806005   -0.261223   -0.764644
C      0.601875   -0.033896   -0.418371
C     -0.325826    0.999016   -0.736651
H     -0.066638    1.799468   -1.458815
C     -1.413520    0.643889    0.277522
H     -1.184045    0.999939    1.148058
H     -2.379923    1.206719   -0.211595
N     -1.438556   -0.791773   -0.151366
H     -1.453761   -0.949126   -0.918805
C     -0.223400   -0.899486    0.619054
H     -0.046011   -0.692563    1.578767
H      0.169306   -1.963217    0.262967
H      2.997427    0.230713    0.811353
