15

C      1.563150    0.019346    0.382382
C      0.550858   -0.136091   -0.784174
H      1.010588    0.216205   -1.656465
C      0.063637   -1.549864   -0.628518
C     -1.031349   -1.551239    0.029471
H     -1.474794   -2.539523    0.196145
C     -1.458555   -0.296538    0.359393
H     -2.418459   -0.005848    0.936915
C     -0.533110    0.704838   -0.291105
O     -0.142121    1.802704    0.467381
H     -0.682075    2.590109    0.270136
H     -1.053442    1.175637   -1.278260
H      1.136985   -0.235920    1.386432
H      2.232641    0.816059    0.344550
H      2.236047   -1.009875    0.265717
