15

C     -0.807744    1.226807    0.721881
C     -0.409251    0.020365   -0.128284
C      0.910173    0.108260   -0.796398
O      1.015090    0.054693   -2.104668
N      2.095287    0.228244   -0.044714
H      2.919639   -0.429469   -0.299403
H      2.288113    0.847988    0.727162
C     -0.533890   -1.291715    0.688415
H      0.296404   -1.955624    0.697381
N     -1.355355   -1.000273   -0.447628
H     -2.360166   -0.857810   -0.261454
H     -1.177585   -1.451894   -1.391962
H     -0.944439    0.947355    1.771240
H     -1.834067    1.511481    0.360597
H     -0.102209    2.041592    0.507836
