10

N      1.828366   -0.211534    0.378654
C      0.435090   -0.096134    0.204859
C     -0.389939   -1.023124   -0.261960
N     -1.727740   -0.607041   -0.317222
H     -2.545287   -1.163511   -0.647424
N     -1.747531    0.698201    0.156937
N     -0.427278    1.005961    0.474119
H     -0.094218    1.904108    0.854138
H      2.206726   -0.525710    1.283077
H      2.461813    0.018784   -0.399359
