12

C      0.392395    0.338592   -1.279015
C     -0.390283    1.259337   -0.438509
C     -0.628963    0.660323    0.957254
O     -1.958957    0.228078    1.101267
H     -1.965404   -0.751001    0.915010
C      0.284046   -0.306034    1.200567
C      1.154027   -1.223239    1.409705
H      1.862330   -1.964774    1.593177
H     -0.503924    1.523914    1.700227
H      0.098636   -0.715901   -1.014373
H      1.491429    0.496379   -1.140017
H      0.164669    0.454326   -2.357523
