13

O      2.503997    0.758260   -0.014080
C      1.414616    0.679785    0.525980
C      0.441626   -0.405179    0.240428
O      0.948573   -1.290854   -0.708361
H      1.927610   -1.406682   -0.542170
C     -0.897169    0.147964   -0.184120
C     -1.958583   -0.899586   -0.247155
H     -2.229987   -1.319728    0.731807
O     -0.841541    0.839891   -1.384084
H     -1.511500    1.574230   -1.432885
H     -1.197630    0.883531    0.598709
H      0.251297   -1.001908    1.168200
H      1.148690    1.440275    1.247730
