12

O      1.206447    0.528205    1.758108
C      0.694174    0.273894    0.666597
C      1.431804   -0.506669   -0.335898
H      1.783513    0.195757   -1.121015
H      2.344877   -0.931816    0.125286
H      0.871124   -1.302814   -0.818862
C     -0.680665    0.795594    0.440372
H     -1.169192    1.375601    1.245159
C     -1.140282    1.113560   -0.937768
C     -1.579425   -0.162658   -0.357821
H     -2.606246   -0.280950    0.064593
H     -1.156131   -1.097703   -0.728751
