15

C     -2.354055    0.751532    0.029356
C     -1.207500   -0.032529   -0.569520
C     -0.209079   -0.415487    0.441004
O     -0.343930   -0.097772    1.663835
C      0.956809   -1.165211    0.074900
C      2.101262   -0.521638    0.139798
C      3.191038    0.179005    0.237882
H      3.475223    0.712315   -0.642056
H      3.683495    0.149174    1.180841
H      1.046058   -2.168712   -0.244108
H     -0.786971    0.608015   -1.383873
H     -1.664249   -0.948003   -1.024072
H     -1.980063    1.695420    0.512063
H     -3.021475    1.059415   -0.786337
H     -2.886563    0.194476    0.823388
