14

C      1.057380    0.864297   -0.186187
H      0.788199    1.260530   -1.149438
H      2.004570    1.353707    0.284522
C      1.137879   -0.633984   -0.167518
H      2.054252   -1.054278   -0.299694
C     -0.176137   -1.284198   -0.303864
H     -0.131505   -2.408708   -0.352146
C     -1.421910   -0.498561   -0.521706
H     -2.226477   -0.903396   -1.247834
C     -1.355307    0.578364    0.162313
H     -2.023644    1.395153    0.273115
C      0.000495    0.636964    0.853948
H      0.047080    1.406749    1.639704
N      0.245126   -0.712637    1.014787
