14

C     -0.641395   -0.949925   -0.372299
H     -0.914140   -1.831679    0.224810
H     -1.096259   -0.868655   -1.366770
C     -0.663443    0.366195    0.418425
H     -1.497892    0.572284    1.023382
C      0.613015   -0.165354    1.074550
H      1.317796    0.602292    1.405447
H      0.393707   -0.956320    1.821381
C      0.868331   -0.716624   -0.329559
H      1.513361   -1.542355   -0.438030
C      1.066057    0.545473   -1.109231
C     -0.169388    1.325704   -0.614933
H     -0.874645    1.303614   -1.477977
H      0.084894    2.315351   -0.259198
