11

C      1.559197   -0.121581    2.176699
C      1.085765   -0.670045    1.119358
C      0.550915   -1.253889   -0.023898
N     -0.191444   -0.519694   -0.961549
C     -0.657216    0.793679   -0.554503
C     -1.730974    1.299407   -1.074150
N     -2.677509    1.973572   -1.647512
H     -0.125007    1.352767    0.201471
H     -0.423265   -0.845429   -1.898841
H      0.681476   -2.333440   -0.274984
H      1.928060    0.324653    3.033739
