14

C     -1.509314   -0.684872    0.102786
C     -0.648101    0.527402   -0.070716
C      0.735652    0.369524    0.509304
O      1.409492    1.579877    0.266817
H      1.110429    1.872283   -0.631399
C      1.465338   -0.699833   -0.223341
O      2.463123   -0.478214   -0.892985
H      1.119333   -1.726025   -0.178409
H      0.740699    0.139801    1.572174
H     -1.165485    1.400507    0.357946
H     -0.532245    0.687038   -1.176176
H     -2.316847   -0.619755   -0.683748
H     -0.913318   -1.603072   -0.059815
H     -1.958758   -0.764660    1.107561
