14

C      0.058687    0.218109    0.330217
C      1.368837   -0.252164   -0.177658
C      2.522569    0.211750    0.275062
H      2.539614    0.979103    1.061219
H      3.472562   -0.118053   -0.081678
H      1.380220   -1.008598   -0.953233
C     -0.746206   -0.875844    0.922514
N     -2.013460   -0.838483    0.736741
C     -2.555277    0.233988   -0.014107
O     -2.573946    1.416217    0.410305
H     -2.963799    0.003391   -0.988818
H     -0.244569   -1.656276    1.482609
H     -0.506847    0.747196   -0.476639
H      0.261615    0.939664    1.174778
