13

O     -1.312280    1.125056    0.275557
C     -1.496642   -0.195510   -0.103404
H     -1.710234   -0.357930   -1.162072
H     -2.293649   -0.671690    0.533355
C     -0.130714   -0.610018    0.384205
H     -0.181177   -1.351977    1.185550
C      0.904799   -0.744591   -0.626287
H      1.107495   -1.597645   -1.234287
C      1.626376    0.496419   -0.707912
H      2.529568    0.708166   -1.304282
C      1.070177    1.370799    0.077298
C     -0.088603    0.816265    0.770732
H     -0.025115    1.012657    1.911548
