12

O      1.930180    0.166588   -0.758927
C      0.723050    0.200728   -0.152248
N      0.250358   -0.865417    0.659341
H      0.411430   -1.790231    0.124670
C     -1.133403   -0.508858    0.384282
H     -1.798324   -1.240445   -0.014398
H     -1.565528    0.034669    1.299279
C     -0.564809    0.542565   -0.570529
H     -0.988934    0.598649   -1.588747
N      0.189393    1.553206    0.035852
H      0.003606    1.839039    1.014518
H      2.542981   -0.530494   -0.433091
