13

C     -1.181357   -1.500267    0.523884
C     -0.487370   -0.228480    0.222607
N      0.398276    0.300431   -0.645171
C      1.234412    0.119198   -1.764992
H      2.329063    0.183758   -1.715901
H      0.781407   -0.091151   -2.706983
C     -0.140319    1.146209    0.398531
C      0.734000    1.622696    1.445383
N      1.418444    2.013535    2.291778
H     -0.932150    1.892158    0.117570
H     -1.386458   -2.102866   -0.394432
H     -0.609300   -2.108793    1.250412
H     -2.158650   -1.246428    0.977314
