14

C     -2.376630    0.611767    0.321949
O     -1.005056    0.768491    0.474914
C     -0.297572   -0.369095    0.099976
C      1.179582   -0.042375    0.323467
C      2.058398   -1.226306   -0.057518
O      3.367435   -0.854856    0.243800
H      3.469766    0.142024    0.315756
H      1.384993    0.153869    1.394710
H      1.463973    0.882189   -0.217476
H     -0.615822   -1.177574    0.789657
H     -0.443537   -0.617118   -0.967287
H     -2.677594   -0.250665    0.977362
H     -2.668578    0.429146   -0.728130
H     -2.839360    1.550504    0.730131
