14

C     -1.969010   -0.063944   -0.392045
H     -2.595328   -1.028182   -0.539970
H     -2.519065    0.738847   -0.887311
N     -1.774028    0.092329    1.085446
H     -1.984337    0.972172    1.509382
C     -0.745117   -0.224053    0.107957
C      0.601015   -0.275169    0.473804
C      1.588365   -0.082462   -0.725235
C      3.026892    0.275026   -0.322075
H      2.906183    0.680086    0.775791
H      1.520698   -0.827920   -1.550430
H      1.273091    0.883241   -1.213843
H      0.946791    0.321116    1.257241
O     -0.276152   -1.461087    0.421288
