12

O      2.832573   -0.758962    0.641902
C      2.214549    0.087086    0.031351
C      0.761118    0.245540    0.169420
C     -0.009207   -0.760933   -0.596217
O     -1.207540   -0.923211   -0.464584
C     -1.897054   -0.170059    0.409117
H     -2.123407   -0.721395    1.360510
H     -1.360435    0.760280    0.671385
H     -2.877915    0.145425   -0.002574
H      0.481869    0.111981    1.253832
H      0.414172    1.251985   -0.198056
H      2.771277    0.732263   -0.628317
