18

C      2.254162    0.684297   -0.201948
C      0.783002    0.712159   -0.093958
C     -0.002936   -0.343833   -0.025936
C      0.647680   -1.706055   -0.060566
H      1.623224   -1.695401    0.466443
H      0.722371   -1.995378   -1.113964
H      0.017536   -2.436222    0.465264
C     -1.458411   -0.322567    0.080105
C     -2.105371    1.004492    0.113424
H     -1.683902    1.774190   -0.515558
H     -3.188277    0.899284   -0.193769
H     -2.165252    1.393134    1.166998
H     -1.750868   -0.924642    0.978254
H     -1.864262   -0.903994   -0.790882
H      0.300950    1.680868   -0.067283
H      2.652919    0.931509    0.824143
H      2.660029   -0.278297   -0.567592
H      2.557406    1.526455   -0.863063
