12

O      1.783735   -0.428179   -0.772830
C      0.832505   -0.066234    0.176321
H      1.232005   -0.220186    1.210999
C      0.352201    1.313223    0.010388
H      0.992048    2.189889    0.023548
N     -0.900762    1.360195   -0.150510
C     -1.502673    0.080282   -0.128057
H     -2.100557   -0.139537   -1.040236
H     -2.141951    0.041220    0.788596
C     -0.400756   -0.862600    0.082472
O     -0.439248   -2.077458    0.170663
H      2.293453   -1.190615   -0.371354
