9

O      0.322549    0.941469   -0.798477
C     -0.840289    0.241894   -0.566064
H     -1.591655    0.051293   -1.418340
C     -0.288706   -0.537609    0.363221
H     -0.269896   -1.554795    0.689871
C      0.998045    0.195403    0.123435
H      1.785023   -0.394057   -0.242924
H      1.192946    0.815556    1.052323
O     -1.308017    0.240846    0.796956
