17

C     -1.826284   -0.464501    0.484296
C     -0.976141    0.274911   -0.529138
H     -1.314492   -0.011710   -1.561299
O     -0.964079    1.605703   -0.255771
C      0.400068    1.604617   -0.089827
H      0.908978    2.232670   -0.887193
H      0.746195    1.951699    0.910321
C      0.476419    0.167907   -0.374353
C      0.991731   -0.732540    0.721856
C      2.499425   -0.679326    0.684211
H      2.963885   -1.672042    0.504786
H      0.575032   -0.522314    1.700901
H      0.710628   -1.783941    0.422246
H      1.002014   -0.052273   -1.324426
H     -2.869426   -0.060787    0.381435
H     -1.476674   -0.305561    1.516176
H     -1.847280   -1.552511    0.292519
