13

C      0.476762   -1.546294   -0.103810
C      0.111058   -0.124718    0.026510
C     -0.053795    0.715755   -1.170995
H     -0.668937    1.630315   -0.955040
H      0.919009    1.025830   -1.607867
H     -0.669892    0.132809   -1.902264
C     -0.066382    0.388058    1.204058
O     -0.408932    1.720212    1.322296
H     -1.308354    2.060520    1.570999
H      0.052768   -0.220771    2.079097
H      0.547872   -1.799516   -1.179838
H      1.429996   -1.786203    0.434868
H     -0.361172   -2.195996    0.281985
