12

C      0.018591   -1.206887   -0.046336
H     -0.256867   -1.335983    1.002759
H      0.219065   -2.142323   -0.552314
C      1.208359   -0.327193   -0.125872
H      2.184022   -0.718465   -0.300210
C      1.058401    1.112438    0.055082
H      1.926100    1.763877    0.137604
C     -0.190501    1.547149    0.107069
C     -1.284662    0.619096   -0.004870
H     -2.179397    1.051691   -0.536305
H     -1.648682    0.223082    1.002646
O     -1.054429   -0.586482   -0.739255
