12

O      3.454843   -0.651086    0.648074
C      2.224506   -0.487960    0.725716
N      1.161062    0.173686    0.941647
C      0.112380    0.051730   -0.059087
H      0.517788   -0.104630   -1.092988
C     -0.976012   -0.915310    0.293549
H     -1.185405   -1.686840   -0.478869
H     -0.781142   -1.336213    1.306058
C     -1.956157    0.208502    0.371950
C     -0.870994    1.176843    0.020055
H     -0.658672    1.835455    0.896459
H     -1.042197    1.735822   -0.924792
