15

C     -2.172496    0.714600    0.161277
O     -1.631102    0.194938   -0.985936
C     -0.787112   -0.864686   -0.804404
C      0.391293   -0.560247    0.035871
N      1.432435    0.021112   -0.416414
C      2.549510    0.295892    0.432957
H      2.297829    0.908169    1.309481
H      3.259626    0.913440   -0.186700
H      3.104597   -0.625664    0.690123
H      0.392652   -0.832937    1.081079
H     -0.429611   -1.163235   -1.834776
H     -1.329494   -1.785435   -0.441138
H     -1.420987    1.095811    0.886748
H     -2.760348    1.628523   -0.143728
H     -2.896792    0.059719    0.668656
