17

C     -2.006874   -0.846420    0.832715
C     -1.596186   -0.067693   -0.130487
C     -0.163936    0.198338   -0.395061
C      0.093679    1.703976   -0.275561
H     -0.688537    2.201817    0.331217
H      0.040452    2.111078   -1.306478
H      1.106122    1.830145    0.114856
C      0.706051   -0.532698    0.599570
H      0.406104   -0.434892    1.687987
C      2.200360   -0.354749    0.435106
H      3.037715    0.323855    0.529765
C      1.621205   -1.542827    0.137662
H      1.887270   -2.531910   -0.221066
H      0.118436   -0.141467   -1.418059
H     -2.328744    0.430725   -0.796667
H     -1.348130   -1.345384    1.495217
H     -3.084987   -1.001893    0.976024
