12

C     -0.950593   -1.047278    0.208414
C      0.064353    0.071668    0.245755
C      1.441268   -0.222672   -0.174957
N      2.764978   -0.260085    0.161848
O      2.380828   -0.623392   -1.065406
C     -0.514714    1.430762   -0.084453
H     -1.601826    1.547778   -0.213456
H      0.099014    2.011865   -0.781914
O     -0.067414    1.091402    1.171571
H     -1.055159   -1.546354    1.184615
H     -1.966842   -0.686549   -0.077961
H     -0.593894   -1.767146   -0.574056
