13

C     -1.961163   -0.154735    0.100586
C     -0.538568   -0.513304    0.395923
C      0.482233    0.081981   -0.214239
C      1.892628   -0.245413    0.051478
H      2.245907   -1.049282   -0.635381
H      2.574359    0.617334   -0.081981
H      2.009943   -0.581265    1.123594
C      0.187928    1.139063   -1.223045
H      0.433315    2.108697   -0.741216
H     -0.303621   -1.279855    1.126737
H     -2.017582    0.874939   -0.303548
H     -2.423078   -0.833653   -0.634020
H     -2.582301   -0.164506    1.035111
