15

C      2.533814   -0.262987   -0.135014
C      1.069351    0.069967   -0.176537
C      0.524777    1.100136   -0.797316
N     -0.877796    1.106441   -0.628326
H     -1.206778    1.947675   -0.069323
H     -1.390665    1.084757   -1.558564
C     -1.175099   -0.026171    0.164833
N     -2.444306   -0.482026    0.625952
H     -3.202470    0.213134    0.739685
H     -2.644409   -1.471149    0.851948
C     -0.039310   -0.644568    0.437589
H      0.127002   -1.547973    1.020445
H      2.877138   -0.584981   -1.155440
H      3.142953    0.609834    0.149477
H      2.705800   -1.112089    0.530590
