15

C      1.320984    0.811628    0.095397
C      0.716597   -0.543692   -0.139702
H      1.416122   -1.396314   -0.147685
C     -0.516958   -0.839701    0.648650
H     -0.463495   -1.358168    1.574012
C     -1.289157    0.460187    0.568895
H     -0.817893    1.283880    1.116556
H     -2.348042    0.301829    0.778129
C     -1.134725    0.688798   -0.949704
C     -0.310086   -0.570838   -1.225293
H     -0.040945   -0.782477   -2.228105
O     -1.008134   -1.513230   -0.477955
H      0.830488    1.561393   -0.561753
H      2.398774    0.753983   -0.198766
H      1.246471    1.142721    1.147324
