14

C     -1.329712   -0.101464   -0.772078
C     -0.545927    0.541179    0.377742
O     -1.355412    0.490836    1.518911
H     -0.983967    1.050061    2.244733
C      0.671940   -0.265537    0.570709
C      1.695695   -0.384003   -0.478152
H      1.698728    0.458406   -1.190109
H      1.552627   -1.310636   -1.067340
H      2.695535   -0.424178   -0.003242
O      0.841169   -0.851852    1.623677
H     -0.333479    1.593761    0.125942
H     -1.803369   -1.012681   -0.313956
H     -0.671546   -0.384686   -1.601900
H     -2.132282    0.600794   -1.034938
