12

C      1.504146    0.189814    0.202064
H      2.494709    0.573322    0.365352
C      0.541468    0.895116   -0.368762
H      0.638507    1.909746   -0.726319
C     -0.689723    0.095782   -0.448422
O     -1.663832    0.707189    0.334123
H     -1.280584    1.363323    0.966662
H     -0.994158   -0.017452   -1.500991
C     -0.281728   -1.211272    0.178880
H     -0.425106   -2.011253   -0.591247
H     -0.920908   -1.424587    1.038649
O      1.077209   -1.069729    0.550010
