17

C      2.302349   -0.173079   -0.525367
C      1.165373   -0.727633    0.342095
C      0.141131    0.375311    0.443269
H      0.633801    1.231325    0.948455
C     -0.341477    0.720424   -0.939351
C     -1.816216    0.524493   -0.942614
H     -2.105576   -0.317824   -1.627662
H     -2.376942    1.440508   -1.247933
C     -2.167305    0.075477    0.414918
H     -3.208506   -0.167587    0.766029
C     -1.077432    0.005192    1.143463
H     -1.113023   -0.312582    2.200063
H      0.745984   -1.584624   -0.250498
H      1.520631   -1.097686    1.306110
H      2.953611   -0.960790   -0.907988
H      2.897861    0.495745    0.160304
H      1.845737    0.473331   -1.283292
