12

C     -1.435015   -0.540340   -0.441248
C     -0.357283    0.486546   -0.324113
C      0.613860    0.215787    0.751983
C      1.900216    0.050420    0.504115
H      2.597308   -0.147020    1.303170
H      2.248269    0.117816   -0.533177
H      0.291012    0.145822    1.779376
H     -0.809201    1.508726   -0.225309
H      0.186206    0.523050   -1.311293
H     -1.647079   -1.084353    0.495098
H     -2.378319   -0.029251   -0.729923
H     -1.209975   -1.247203   -1.268679
