13

C      2.354120   -0.144631   -0.033705
C      1.037393   -0.285286    0.062253
N      0.290057   -1.481218    0.224144
C     -0.967205   -1.231845    0.278869
H     -1.745415   -2.013489    0.402828
C     -1.196664    0.212576    0.154223
O     -2.054557    0.533645   -0.899734
H     -2.282411    1.509369   -0.787875
H     -1.675295    0.551731    1.101182
N      0.095955    0.778184    0.018855
H      0.389628    1.793526   -0.097247
H      2.956812   -1.030425    0.013838
H      2.797583    0.807863   -0.153143
