16

C     -2.347076   -0.211325   -0.322934
N     -0.938064   -0.503451   -0.571745
H     -0.788082   -1.453180   -0.970928
C     -0.244308    0.597038   -1.209141
H     -0.742448    1.565578   -1.348796
C      0.049239    0.146112    0.227809
C      1.416305   -0.523480    0.316459
H      1.433730   -1.593331    0.065081
C      2.495714    0.288439   -0.392110
H      2.307152    1.372696   -0.563384
H      3.336795   -0.218083   -0.862728
O      2.399435    0.061403    1.072474
H     -0.260324    0.789836    1.057650
H     -2.822949   -0.939996    0.343432
H     -2.834144   -0.227650   -1.332213
H     -2.460975    0.849394    0.033950
