16

C     -0.354852   -0.445619    0.931037
C      0.088851    0.866366    0.385579
C      1.201523    1.033086   -0.275451
C      2.119788   -0.106856   -0.531876
H      1.682527   -0.823904   -1.259266
H      3.081050    0.244422   -0.962744
H      2.391786   -0.619465    0.424848
H      1.472117    2.010063   -0.648125
H     -0.559274    1.720007    0.557246
C     -1.657502   -0.859476    0.357630
C     -2.259000   -0.082674   -0.526926
H     -3.225925   -0.371565   -0.964186
H     -1.779030    0.843410   -0.811903
H     -2.129213   -1.786295    0.647560
H      0.387088   -1.215914    0.630008
H     -0.459933   -0.405587    2.046568
