12

N     -1.349628   -0.260085    0.483407
H     -1.755318    0.609457    0.882012
H     -1.186888   -1.020270    1.146423
C     -0.202499   -0.064203   -0.412122
C     -1.437475   -0.485741   -0.933106
H     -1.606206   -1.520572   -1.276566
N      0.925145   -0.937803   -0.155611
C      1.955906   -0.258884    0.257247
H      2.903340   -0.604468    0.534394
N      1.531848    1.125681    0.156344
C      0.406315    1.252133   -0.276274
H     -0.184540    2.164756   -0.406149
