15

C      1.883624   -0.066134   -0.230660
N      0.626497    0.017245    0.483041
C     -0.502787    0.159691   -0.397388
C     -1.270996    1.433330   -0.167705
H     -0.910798    2.011551    0.698323
H     -2.326510    1.156964    0.034429
H     -1.206363    2.072597   -1.090417
H     -0.217596    0.081513   -1.466535
C     -1.297373   -1.028528   -0.054150
C     -0.780335   -1.789616    0.868888
H     -1.162731   -2.695161    1.283410
N      0.435996   -1.150316    1.224868
H      2.185997   -1.087974   -0.479164
H      1.879600    0.540404   -1.158060
H      2.663774    0.344432    0.451120
