12

O     -1.936026    0.059705   -0.890810
C     -0.994662   -0.602047   -0.133327
C      0.251422    0.270346    0.012843
O     -0.140815    1.454416    0.645434
H      0.373781    2.207242    0.222755
C      1.292463   -0.392466    0.862190
O      2.166315   -1.090961    0.057980
H      2.992985   -0.583275   -0.151911
H      0.597789    0.517690   -1.000155
H     -0.739410   -1.560757   -0.636074
H     -1.355022   -0.864293    0.882051
H     -2.508819    0.584401   -0.284565
