10

C      1.776641    0.200877    0.316355
N      1.014324   -1.025937    0.487588
C     -0.171064   -1.092189   -0.004170
N     -1.380611   -0.950392   -0.406190
C     -2.168701    0.138977    0.064345
O     -1.755590    1.029635    0.827045
H     -3.194450    0.179400   -0.274403
H      2.017596    0.623224    1.292226
H      1.204146    0.963780   -0.275245
H      2.657710   -0.067376   -0.301731
