9

C     -0.824030    0.779101   -0.129649
O     -1.367622    1.848492   -0.298972
C     -0.629745   -0.672497   -0.207053
H     -0.377896   -1.168627   -1.169866
H     -1.307002   -1.288398    0.416779
C      0.409886    0.078128    0.477379
O      1.567077    0.506483   -0.150486
H      2.067903   -0.241716   -0.534852
H      0.461430    0.159034    1.596721
