14

O      3.899782   -0.034458    0.503801
C      2.804802    0.226600    1.029893
C      1.582788   -0.216472    0.406657
N      0.400967    0.032253    0.920023
C     -0.724855   -0.485082    0.166009
H     -0.551352   -1.442455   -0.380672
C     -2.111336   -0.132830    0.552356
H     -2.307576    0.424417    1.479200
H     -2.878518   -0.926771    0.326959
C     -1.494057    0.588106   -0.624613
H     -1.824483    0.323731   -1.653653
H     -1.217889    1.644080   -0.439659
H      1.650642   -0.780777   -0.529325
H      2.771085    0.779658    1.944334
