17

C     -2.045772   -0.619762   -0.514329
C     -1.388948    0.170024    0.547903
O     -0.037565    0.462621    0.540469
C      0.928714   -0.366049   -0.074044
C      2.297421    0.178104    0.063826
C      3.067308    0.496979   -0.966057
H      4.052856    0.888858   -0.871782
H      2.678318    0.353558   -1.976728
H      2.694733    0.325030    1.058367
H      0.831854   -1.411470    0.233579
H      0.682643   -0.346962   -1.175591
C     -2.107992    0.619550    1.547991
H     -1.691341    1.208561    2.366683
H     -3.161466    0.400909    1.569363
H     -2.759673    0.084401   -1.028991
H     -2.705341   -1.417330   -0.069139
H     -1.335748   -1.027021   -1.251519
