11

O     -0.563731    1.191878   -1.001799
C     -0.181377    0.497863    0.137858
C     -1.108080   -0.699519    0.265063
H     -0.894694   -1.420787   -0.555224
H     -2.143673   -0.349661    0.139334
H     -0.962060   -1.230734    1.209312
C      1.186698    0.000269    0.001108
C      2.412840   -0.298016   -0.215796
N      3.574341   -0.787110   -0.250945
H     -0.258528    1.083573    1.061219
H     -1.061737    2.012245   -0.790129
