9

O      2.151584    0.554687   -0.407829
C      1.405076   -0.298070    0.364071
C      0.283728   -0.747695   -0.130194
N     -0.918534   -0.945897   -0.554043
C     -1.891561   -0.021776   -0.115188
O     -2.096083    0.064946    1.118244
H     -2.415947    0.567276   -0.844735
H      1.753591   -0.571462    1.340664
H      1.728146    1.397991   -0.770989
