12

C     -1.744291    0.290516    0.117427
C     -0.793192   -0.994763    0.086402
C      0.075781   -0.956532    0.928717
C     -0.033869   -1.045879   -0.841774
C      0.833404   -0.964831   -0.013082
C      1.745073    0.359719   -0.146644
H      1.102229    1.204648   -0.354637
H      2.236117    0.422915    0.811306
H      2.385588    0.117154   -0.960920
H     -2.472246    0.078924    0.881480
H     -1.166173    1.163174    0.368025
H     -2.168420    0.324956   -0.876301
