13

C     -1.424751    1.179781   -0.378003
N     -0.538174    0.111810   -0.058551
C     -1.025915   -1.054475    0.096980
H     -0.470188   -1.938898    0.339306
H     -2.112982   -1.219289   -0.009040
C      0.836311    0.452042    0.082707
C      1.771048   -0.700372    0.223245
O      2.927276   -0.381414    0.490025
H      1.467727   -1.731681    0.097016
H      1.156679    1.054858   -0.789004
H      0.912985    1.141659    0.965519
H     -1.622090    1.978542    0.312023
H     -1.877926    1.107436   -1.372223
