11

C      1.853201   -0.068284   -0.440936
O      0.679207   -0.848592   -0.624048
C     -0.516331   -0.415077   -0.064828
C     -1.749598   -0.724491    0.309894
H     -2.582198   -1.434148    0.429086
C     -1.342847    0.667576    0.530961
H     -1.749516    1.405762   -0.202884
H     -0.991339    1.007429    1.509840
H      2.665217   -0.598071   -0.963989
H      2.062961    0.128425    0.623022
H      1.671241    0.879471   -1.010289
