13

C      1.854712    0.202182    0.034170
N      0.397897    0.034318   -0.000788
C     -0.483708    1.039363    0.153918
O     -0.168719    2.258917    0.349526
C     -1.736645    0.485271    0.058726
H     -2.680580    0.999596    0.135097
C     -1.576095   -0.867859   -0.155403
H     -2.301591   -1.651399   -0.284065
N     -0.248906   -1.105056   -0.185541
H      0.241210   -2.036958   -0.330849
H      2.222677    0.658349   -0.899307
H      2.155303    0.789168    0.938700
H      2.324447   -0.805892    0.185817
