11

C      2.764059    0.294591    0.269145
C      1.512965   -0.053232    0.170665
C      0.287812   -0.363113   -0.133312
C     -1.014518   -0.422493   -0.158803
O     -1.636669   -1.629750    0.104834
H     -2.438632   -1.686222    0.712366
N     -1.843382    0.696643   -0.445703
H     -1.688744    1.547884    0.137461
H     -2.575050    0.706443   -1.187658
H      3.575300   -0.416084    0.215619
H      3.056858    1.325335    0.411217
