14

C     -2.145510    0.333949    0.383495
C     -0.652381    0.164887    0.248082
C      0.389403    0.948722    0.529177
H      0.522069    1.925669    0.937236
C      1.311911   -0.121744    0.102357
N      2.505386   -0.447562    0.634916
H      3.018923    0.180988    1.294926
O      2.386254    0.023647   -0.676877
C      0.150459   -0.989384   -0.216173
H      0.012934   -1.839569    0.473029
H      0.024405   -1.252867   -1.284726
H     -2.570225   -0.597996    0.810659
H     -2.581385    0.487008   -0.607319
H     -2.372243    1.184252    1.072530
