15

C      1.660832   -0.571837   -0.210888
C      0.544103    0.063870    0.594223
H      0.783436    0.167233    1.683060
C      0.061930    1.351492    0.087743
O      0.550166    2.489151   -0.108706
C     -1.273138    0.780572   -0.112978
H     -2.025973    1.255412    0.592663
H     -1.646490    0.786074   -1.165539
C     -0.803454   -0.532721    0.397459
O     -0.857976   -1.479058   -0.645938
H     -1.579043   -1.225945   -1.276591
H     -1.307566   -0.899922    1.328118
H      2.484773   -0.797468    0.495577
H      1.335845   -1.512009   -0.678141
H      2.072554    0.125155   -0.980062
