18

C      1.965224   -0.340326    0.576553
C      1.082674    0.626860   -0.133114
C      0.003545    0.012119   -0.964100
C     -0.951244   -0.845417   -0.178478
C     -1.666283   -0.094716    0.900462
H     -2.776521   -0.227221    0.869439
H     -1.364537   -0.418227    1.929736
H     -1.487334    0.995997    0.868784
H     -1.717259   -1.215799   -0.902660
H     -0.487359   -1.731420    0.264118
N     -0.727443    1.061550   -1.558262
C     -1.345055    1.921237   -2.035524
H      0.467204   -0.578705   -1.780560
H      1.721531    1.231190   -0.810919
H      0.595556    1.358797    0.557360
H      2.933392   -0.537043    0.054340
H      1.514543   -1.319686    0.785010
H      2.239368    0.100810    1.557817
