19

C      2.823720    0.110625    0.142584
C      1.538145   -0.370870   -0.485063
C      0.326581   -0.026878    0.353588
C     -0.871645   -0.553680   -0.371305
H     -0.669427   -1.421544   -1.038104
C     -2.244661   -0.401314    0.149581
C     -2.525893    0.237202    1.483242
H     -2.878716    1.280285    1.280106
H     -2.984280   -1.155380   -0.189459
C     -1.775381    0.519459   -0.939436
H     -2.160960    0.376678   -1.977220
H     -1.614832    1.574024   -0.665061
H      0.278888    1.060305    0.562405
H      0.413862   -0.552586    1.323141
H      1.393092    0.105051   -1.476990
H      1.538393   -1.476139   -0.607355
H      2.781672    1.208993    0.230862
H      3.635851   -0.120705   -0.579010
H      2.995591   -0.393525    1.099605
