8

C     -1.206260   -0.041108    0.057629
O      0.167023   -0.353626    0.045166
C      0.923094    0.433679    0.672718
O      2.277230    0.120557    0.657132
H      2.644281   -0.264889   -0.209065
H     -1.450622    0.869927    0.632099
H     -1.561797    0.141079   -0.983136
H     -1.792948   -0.905620    0.456292
