16

C     -2.182519    0.377800   -0.122943
C     -1.083619   -0.403453    0.560653
H     -1.427084   -0.842874    1.520785
C     -0.260685   -1.242029   -0.288479
H     -0.418937   -2.161051   -0.839005
N      0.833435   -0.376507   -0.108809
C      2.227120   -0.343391   -0.586280
H      2.205688    0.164483   -1.557057
H      2.608826   -1.380288   -0.669980
H      2.835638    0.215374    0.123814
C      0.156041    0.398180    0.645927
O      0.519948    1.591940    1.304363
H      1.225302    2.172414    0.899360
H     -3.020376   -0.246039   -0.456305
H     -1.730742    0.882794   -1.003517
H     -2.488036    1.192646    0.577474
