14

N      1.153772    1.373183   -0.353052
C      0.782998    0.145052   -0.137456
O      1.667971   -0.715504    0.454353
C      2.867484   -0.852898    0.075495
H      3.562842   -1.514877    0.524216
C     -0.589736   -0.202463   -0.564557
H     -0.686529   -0.483568   -1.628838
C     -1.600000   -0.685463    0.390938
H     -1.361958   -0.830955    1.460307
H     -2.368617   -1.374606   -0.016871
C     -1.695107    0.764686   -0.031318
H     -1.350288    1.533962    0.686242
H     -2.452210    1.084026   -0.746221
H      2.069380    1.759425   -0.113238
