11

C     -0.656403    0.056655    1.310703
C     -0.192450   -0.026133   -0.096688
C     -1.078887   -0.191809   -1.065529
O     -0.630314   -0.268807   -2.392508
H     -2.129675   -0.273000   -0.911780
N      1.151550    0.069387   -0.386553
C      2.294621    0.168878   -0.628054
H      3.328679    0.274552   -0.845275
H      0.006038    0.810969    1.820477
H     -1.712335    0.306219    1.412114
H     -0.380823   -0.926910    1.783092
