14

O     -0.508860    0.167236   -1.840931
C     -0.336861    0.322953   -0.450515
C     -1.610855    0.419954    0.345367
H     -2.377154    0.874874   -0.323968
H     -1.939441   -0.522719    0.785919
H     -1.507230    1.145991    1.199384
N      0.802521   -0.370705    0.109641
C      1.501048   -1.552603    0.481278
O      2.642061   -1.508341    1.014670
H      1.068650   -2.527937    0.314901
C      0.812088    1.104460    0.059124
H      0.699256    1.637711    1.024999
H      1.445113    1.597460   -0.686757
H     -0.690335   -0.788334   -2.033112
