9

O     -0.380646    1.193015   -0.771999
C      0.311261    0.167792   -0.136657
C     -0.336056   -0.682092    0.639703
O     -1.697694   -0.557968    0.824105
H     -2.158543    0.329618    0.898102
H      0.185735   -1.502500    1.154647
C      1.730584    0.039081   -0.329387
N      2.889451   -0.048086   -0.496675
H     -0.544091    1.061141   -1.781839
