12

C     -0.706028   -0.978235    0.531311
C     -0.827080    0.339859   -0.138550
O     -2.095990    0.890463   -0.242592
H     -2.554255    1.387964    0.527319
C      0.248033    0.948255   -0.610924
C      1.529920    0.319218   -0.467870
C      2.609112   -0.200239   -0.328846
H      3.566973   -0.680979   -0.210785
H      0.131720    1.900237   -1.090598
H     -0.553110   -1.730475   -0.261034
H      0.233293   -0.997318    1.157479
H     -1.582587   -1.198750    1.135089
