15

C     -1.940178    0.424476    0.026558
C     -0.634816    0.037446   -0.659883
H     -0.877926   -0.488937   -1.620740
O      0.252136    1.064510   -0.769264
C      1.186851    0.409252   -0.027247
C      2.485362    0.083679   -0.762919
H      3.220979    0.857900   -0.510578
H      1.426914    0.928903    0.942579
C      0.288403   -0.763510    0.148439
O     -0.042189   -0.953703    1.488624
H      0.680421   -1.524842    1.872297
H      0.659757   -1.683772   -0.358115
H     -1.850888    1.477578    0.387167
H     -2.811041    0.326574   -0.650912
H     -2.043785   -0.195554    0.947091
