14

C     -0.403608    1.420571   -0.254230
C     -0.327309    0.001273    0.059605
C     -1.456291   -0.867098   -0.215080
H     -1.374539   -1.302300   -1.249572
H     -2.449947   -0.410895   -0.127034
H     -1.447731   -1.748636    0.469694
C      0.880484   -0.538564    0.669594
H      0.765145   -1.455863    1.285263
C      2.143579   -0.421161   -0.037743
H      3.054656   -0.388540   -0.610288
O      1.832515    0.329600    1.070034
H      0.107742    2.013167    0.546606
H      0.118876    1.618276   -1.231543
H     -1.443574    1.750169   -0.375305
