15

C      1.422685   -0.494584   -0.842276
C      0.239987   -0.240957    0.080287
C     -1.101457   -0.927139    0.043152
H     -1.067793   -1.738341    0.737797
H     -1.113669   -1.353123   -1.117536
C     -1.787809    0.315594    0.063499
O     -2.986689    0.691503    0.063274
C     -0.511033    1.084454    0.118849
H     -0.292254    1.932835   -0.645372
C      0.448869    0.764846    1.255189
H      0.065622    0.288383    2.154125
H      1.396813    1.330489    1.193401
H      1.171525   -0.689832   -1.914930
H      1.980887   -1.353853   -0.394908
H      2.134316    0.389724   -0.794551
