13

C      2.424545   -0.570244   -0.198416
C      1.346319   -0.305519    0.047940
C      0.030808    0.011881    0.371615
H     -0.002692   -0.136544    1.546004
C     -0.505259    1.324806    0.106423
H     -0.371666    2.135506    0.810129
H     -0.255259    1.550324   -0.932185
C     -1.958209    0.829612    0.095359
O     -2.061417   -0.276658    0.024031
C     -0.859848   -0.912168   -0.213650
H     -0.769844   -1.955143    0.129075
H     -0.721523   -0.817304   -1.318523
H      3.704047   -0.878549   -0.467801
