12

O      0.861246    1.206289    1.275469
C     -0.504322    1.016873    1.140409
C     -0.932981    0.326928    0.103396
C      0.061495   -0.188772   -0.829417
C     -0.315571   -0.894561   -1.897579
H      0.393868   -1.291042   -2.608149
H     -1.355401   -1.106026   -2.106346
H      1.120926   -0.027150   -0.701542
H     -2.002264    0.135951   -0.069619
H     -1.224959    1.410494    1.847763
C      1.623994    0.143974    1.727953
N      2.273969   -0.732960    2.117664
