11

O      2.539229    0.718614    0.337494
C      1.340025    0.156609    0.004752
N      0.986690   -0.999180   -0.823130
C      0.044906   -0.272615   -0.211258
C     -1.117167    0.456339   -0.658313
H     -1.658187    0.174486   -1.567344
H     -1.194227    1.531305   -0.404929
C     -1.137514   -0.545253    0.529953
H     -1.190983   -0.105381    1.549358
H     -1.838197   -1.391987    0.354029
H      3.225426    0.277063    0.889389
