13

C      2.142263    0.252482    0.782360
O      0.939516   -0.475814    0.981785
C     -0.201946   -0.184841    0.212169
N     -0.439444    1.008550   -0.197186
N     -1.614508    1.048526   -0.932369
H     -2.075554    1.885861   -1.401544
C     -2.202554   -0.255379   -1.009088
C     -1.251849   -1.112971   -0.232658
H     -1.807284   -1.571973    0.616892
H     -0.873083   -1.886438   -0.935842
H      2.936629   -0.079418    1.444706
H      1.980657    1.343743    0.939917
H      2.467157    0.027672   -0.269142
