9

C     -1.060130    1.471146    0.438768
O     -1.615505    0.539541   -0.141460
C     -0.712522   -0.486975   -0.416427
H     -0.669580   -0.767139   -1.486210
H     -1.055855   -1.404846    0.110997
C      0.557243   -0.004262    0.120394
N      1.738414   -0.560436    0.137818
H      2.543509   -0.029070    0.586210
O      0.274426    1.242042    0.649912
