10

O      1.889762   -1.961494   -0.126270
N      0.951356   -0.980624   -0.099285
N      1.033964    0.143473   -0.952507
C      0.826321    1.319157   -0.459349
H      0.885532    2.185578   -1.095900
C     -0.043774   -1.043874    0.704972
N     -1.015177   -0.066392    0.759518
C     -1.822924    0.763372    0.789194
H     -2.557755    1.522091    0.832868
H     -0.147306   -1.881286    1.372577
