13

C      1.509178   -0.265590    0.617396
C      2.645825    0.372574    0.934247
C      0.947246   -0.076492   -0.732160
N     -0.463702   -0.234462   -0.819693
C     -1.210210    0.832576   -0.132462
H     -1.950729    1.306169   -0.785080
H     -0.685598    1.418737    0.641863
C     -1.312782   -0.632858    0.230922
H     -2.288302   -1.090011   -0.085974
H     -0.981745   -0.991928    1.202144
H      1.192667    0.973777   -1.046055
H      1.521521   -0.731533   -1.416989
H      1.076631   -0.880959    1.391840
