15

C      2.176613    0.046828    0.077840
C      0.702984   -0.006536    0.023860
C      0.036176   -1.208362    0.031918
H      0.629492   -2.119318    0.079387
C     -1.332432   -1.204361   -0.019701
H     -1.873001   -2.156435   -0.013770
C     -2.087967   -0.047289   -0.080053
H     -3.170649   -0.044143   -0.120890
C     -1.404593    1.154489   -0.087490
H     -1.956855    2.091419   -0.134125
C     -0.006208    1.173497   -0.035386
H      0.523535    2.114985   -0.041416
H      2.551311    0.972896    0.603688
H      2.589913    0.029266   -0.937828
H      2.621683   -0.796936    0.653967
