11

O     -2.044468   -0.306894    0.008435
C     -0.772467    0.019783    0.351769
N      0.285415   -0.922684    0.502521
H      0.205640   -1.591018   -0.356999
C      1.277409    0.064586    0.064440
H      1.940676   -0.195246   -0.731457
H      1.774935    0.434076    1.031535
C      0.111795    0.986145   -0.192685
H     -0.021165    1.426789   -1.203064
O     -0.632989    1.314695    0.880019
H     -2.124780   -1.230232   -0.354514
