14

O     -2.205930   -0.865519    0.800628
C     -1.862726   -0.630176   -0.353250
C     -0.726975    0.300517   -0.642440
H     -0.781080    0.762995   -1.632868
C     -0.331687    1.214689    0.551339
H      0.064749    2.226171    0.276128
H     -0.900316    1.093668    1.478874
C      0.480591    0.107976    0.081998
C      1.835604   -0.059916   -0.115464
H      2.589699    0.455114    0.532591
H      2.263550   -0.534842   -1.007892
N      1.003660   -0.980391    0.769983
H      0.927247   -1.951585    0.418056
H     -2.356387   -1.138702   -1.157684
