12

C     -1.698202   -0.579497    0.319503
N     -0.676571    0.333170    0.761591
C     -0.254336    1.349971   -0.220029
H     -0.513997    2.259964   -0.750136
C      0.639511    0.212065    0.131803
C      1.784052    0.509602    1.010494
N      2.872666   -0.152472    1.027215
H      2.969952   -0.957566    0.382265
H      0.751635   -0.515520   -0.709346
H     -2.588138   -0.438978    0.977604
H     -1.328680   -1.612994    0.476852
H     -1.957891   -0.407744   -0.760046
