15

C      1.930562    0.690207    0.089059
C      0.702286   -0.116932   -0.042155
C      0.472378   -1.307491   -0.614847
H      1.260823   -1.851783   -1.086414
O     -0.861398   -1.665297   -0.489309
C     -1.575201   -0.740519    0.233665
H     -2.347602   -1.118997    0.939273
C     -1.639889    0.627620   -0.309425
H     -1.282941    0.698795   -1.395824
H     -2.348265    1.382418   -0.050868
C     -0.603809    0.226778    0.638337
H     -0.519019    0.569424    1.672099
H      2.499354    0.269405    0.955771
H      2.575693    0.557387   -0.774548
H      1.737029    1.778984    0.235186
