17

C      2.703043   -0.458964    0.280105
O      1.454016   -0.189573    0.825749
C      0.731603    0.519079   -0.154550
C     -0.653511    0.832884    0.415668
C     -1.271495   -0.497453    0.719514
C     -2.410616   -0.811671    0.099252
O     -2.960723    0.103262   -0.789181
H     -3.278315    0.986841   -0.436549
H     -2.866423   -1.774377    0.313153
H     -0.823250   -1.178790    1.407938
H     -1.208751    1.341574   -0.393074
H     -0.578433    1.431152    1.329166
H      0.625342   -0.083869   -1.060751
H      1.308220    1.458442   -0.322706
H      3.254996    0.445529    0.008983
H      2.640740   -1.088883   -0.638529
H      3.333557   -1.035182    0.992554
