14

C     -1.560791   -1.178440    0.033914
C     -0.990439    0.083726   -0.551055
H     -1.133071    0.262648   -1.643108
C     -0.811756    1.280621    0.275657
H     -0.860583    2.300518   -0.207248
H     -1.284090    1.252593    1.288921
C      0.371878    0.518305   -0.045790
C      1.661889    0.401591    0.080554
C      2.904073   -0.021012    0.101739
H      3.541862    0.315290   -0.664166
H      3.253430   -0.681693    0.866742
H     -0.800061   -1.764709    0.602440
H     -1.859385   -1.851265   -0.815474
H     -2.432955   -0.918171    0.676873
