14

C      2.549190    0.918466    0.095579
O      1.195592    0.650433   -0.036864
C      0.757164   -0.538762   -0.046000
C     -0.661290   -0.864178   -0.183420
H     -0.930006   -1.924946   -0.178855
C     -1.580382    0.010329    0.708026
H     -1.108487    0.809393    1.302614
H     -2.382518   -0.529432    1.267793
C     -1.636600    0.088282   -0.763792
H     -1.307094    1.051119   -1.207840
H     -2.493618   -0.362505   -1.302036
H      1.461255   -1.349913    0.051995
H      2.879592    1.923408    0.089733
H      3.257201    0.118306    0.203067
