11

C      2.013276    0.035422    0.123413
C      0.716405    0.260374   -0.025106
N      0.052345    1.448720   -0.407634
O     -1.264498    1.281610   -0.445469
C     -1.614069   -0.002810   -0.101362
H     -2.166977   -0.486457   -0.963593
H     -2.270856   -0.023987    0.796578
C     -0.352422   -0.706544    0.181598
H     -0.194516   -1.745800    0.488682
H      2.678418    0.860230   -0.068930
H      2.402895   -0.920758    0.421823
