10

O     -1.503396   -0.543464    0.954088
C     -0.757638   -0.198756   -0.183587
C      0.551667   -0.737239   -0.445059
N      1.534403    0.044614   -0.219977
C      2.499979    0.752299    0.149835
H      2.748339    0.688969    1.211412
H      0.807234   -1.699528   -0.799881
N     -1.307743    0.638434   -1.001047
H     -2.252725    1.056439   -0.856899
H     -2.320121   -0.001768    1.191114
