12

C      1.268316   -0.548947   -0.210196
C     -0.000799    0.147764    0.065323
C      0.029992    1.347293    0.612170
H      0.988167    1.784985    0.842675
H     -0.912205    1.848447    0.809428
C     -1.296888   -0.466627   -0.256654
H     -1.663222   -1.019950    0.649294
H     -1.253928   -1.167974   -1.124983
H     -2.090550    0.272146   -0.519564
H      1.699191   -0.987587    0.716308
H      2.058784    0.140100   -0.607821
H      1.173144   -1.349650   -0.975980
