9

N      1.213864   -0.167331   -0.209556
C     -0.141226    0.195637    0.031592
O     -0.620629    1.473756   -0.159121
H     -0.232717    2.146451   -0.797686
C     -0.991171   -0.727330    0.459097
H     -0.662588   -1.745986    0.624057
H     -2.023877   -0.520921    0.659735
H      1.458922   -1.165397   -0.372802
H      1.999421    0.511122   -0.235316
