17

O      1.616193    1.679010    0.118359
C      1.346405    0.316711    0.116495
C      0.087279   -0.147825   -0.443967
C     -1.042973    0.503618    0.364684
C     -2.367954    0.048036   -0.184205
H     -3.162917    0.701088    0.278645
H     -2.580230   -0.982067    0.152582
H     -2.365850    0.130407   -1.291165
H     -0.950281    0.103837    1.386173
H     -0.892692    1.579575    0.360289
H     -0.091238   -1.216783   -0.401642
H     -0.033631    0.276445   -1.479727
C      2.206949   -0.553845    0.610779
C      1.851116   -1.968331    0.572520
H      1.594668   -2.365930   -0.415155
H      3.161459   -0.238292    1.039124
H      1.623696    2.134346   -0.783790
