15

C     -1.461095   -0.418416    0.837635
C     -0.811735    0.140026   -0.424241
H     -1.615609    0.406173   -1.139933
C      0.105175    1.222274   -0.128596
H     -0.152061    1.943475    0.641956
H      0.304928    1.808130   -1.104602
C      1.437447    0.616805    0.199571
C      2.416512   -0.273179    0.291688
H      3.468797   -0.448134    0.619388
C      1.289135   -0.795588   -0.418014
C      0.061794   -0.915478   -0.907484
H     -0.218813   -1.590842   -1.739425
H     -0.696541   -0.989484    1.381527
H     -2.241708   -1.130881    0.494343
H     -1.886226    0.425120    1.396188
