11

N      2.004091   -0.154612   -0.057274
C      0.592922   -0.093937   -0.027104
C     -0.286995   -1.021233   -0.244520
C     -1.665868   -0.554248   -0.115257
H     -2.207473   -1.091521    0.698315
H     -2.183864   -0.672342   -1.094644
N     -1.511255    0.827294    0.221236
N     -0.149331    1.074798    0.267028
H      0.271906    2.039620    0.498632
H      2.586025   -0.575078    0.716847
H      2.549843    0.221259   -0.863258
