9

O     -2.097172   -0.306939   -0.240487
C     -1.146299    0.419653   -0.446842
C      0.121475    0.109055    0.287331
O     -0.012816   -0.987927    1.101229
H      0.720543   -0.978987    1.776559
C      1.176978   -0.154612   -0.715831
N      2.014146   -0.354240   -1.491595
H      0.448903    1.004086    0.862134
H     -1.225757    1.249911   -1.132497
