14

C     -1.818998   -0.780467    0.128138
C     -0.498394   -0.098852    0.029853
C      0.682047   -0.685939   -0.067683
H      0.880966   -1.747138   -0.091907
C      1.706892    0.339326   -0.139915
N      2.971410    0.119470   -0.241095
H      3.372751   -0.847974   -0.280499
O      1.033472    1.548480   -0.077178
C     -0.362968    1.378762    0.031199
H     -0.914973    1.850499   -0.802396
H     -0.661703    1.793897    1.018848
H     -2.017128   -0.973979    1.210916
H     -1.759336   -1.759831   -0.417761
H     -2.614037   -0.136253   -0.300519
