9

C     -0.293799   -0.098856   -0.481664
C     -1.447683   -0.270122    0.035225
H     -1.851455    0.481569    0.814444
H     -2.260852   -1.015941   -0.198657
O     -1.218043    0.552438   -1.222964
C      1.081222    0.237450   -0.406841
N      2.163131    0.629982   -0.264783
H      3.115614    0.488134   -0.460561
O      0.711865   -1.004654   -1.179857
