12

O      2.771000   -0.833890    0.448203
C      1.530940   -0.494587    0.334280
N      1.116363    0.652238   -0.358040
H      1.628255    1.562047   -0.529221
C     -0.271852    0.446811   -0.712070
H     -0.865035    1.296023   -0.905450
H     -0.142270   -0.213993   -1.686636
C     -0.742346   -0.548300    0.307027
C     -1.528802    0.170333    1.384373
H     -2.532441    0.423155    1.008630
H     -1.391684   -1.328090   -0.115881
O      0.427871   -1.131747    0.824785
