12

C      1.682453    1.176135    0.240475
C      0.642618    0.095355    0.151760
N     -0.265874    0.147778   -0.757811
C     -1.214053   -0.955470   -0.740446
C     -2.088133   -0.757667    0.419121
N     -2.778778   -0.580932    1.335400
H     -0.694073   -1.922462   -0.652769
H     -1.774896   -0.907937   -1.693528
H      0.711674   -0.702355    0.883537
H      2.594908    0.819044    0.744051
H      1.899049    1.572864   -0.774702
H      1.285105    2.015646    0.844912
