10

N     -0.012495    1.106339    0.700051
C     -0.215501   -0.226759    0.295214
O      0.800779   -1.016484   -0.223432
N      1.843706   -0.404631   -0.782914
C      2.761001    0.123166   -1.278109
C     -1.415522   -0.780334    0.400805
H     -2.254318   -0.205391    0.802647
H     -1.630955   -1.786698    0.110427
H     -0.121082    1.364670    1.691546
H      0.244387    1.826121    0.009585
