12

O      0.622850    0.517755   -1.037649
C     -0.500948    0.889011   -0.333787
H     -0.742913    1.928770   -0.110944
C     -1.543215   -0.175990   -0.055899
H     -1.672588   -0.996176   -0.780889
H     -2.439644    0.135984    0.499810
C     -0.247472   -0.159235    0.656576
H     -0.157819    0.014736    1.739443
C      0.955640   -0.529533   -0.165839
O      2.185740   -0.376536    0.437707
H      2.739516    0.261265   -0.091571
H      0.800854   -1.510052   -0.692884
