11

C      1.936404    0.353234   -0.077148
C      0.969330    0.609590    0.983880
O     -0.240412    0.360049    0.978823
C     -0.947810   -0.224549   -0.049102
O     -0.398511   -0.567906   -1.113791
N     -2.334401   -0.436826    0.117381
H     -2.736828   -1.365753   -0.052895
H     -2.950883    0.336816    0.410160
H      1.594593    0.715137   -1.065293
H      2.873046    0.925752    0.153937
H      2.235472   -0.705543   -0.190121
