12

C      0.591407    0.417801   -0.078167
C      1.828067   -0.424879    0.088240
O      1.761889   -1.512434    0.596799
H      2.778008   -0.010244   -0.267880
C     -0.610117   -0.383593    0.444604
C     -1.861209    0.390511    0.340179
O     -1.967476    1.498507    0.827306
H     -2.709930   -0.028907   -0.182499
H     -0.648156   -1.367386   -0.059710
H     -0.349325   -0.598395    1.513948
H      0.760870    1.316836    0.557037
H      0.425973    0.702183   -1.132087
