10

C     -1.402616   -0.325870    0.394450
C      0.008774   -0.590541    0.839999
C      0.931670    0.426086    0.215947
O      1.480836   -0.177848   -0.912189
H      2.252417   -0.709325   -0.596389
H      0.329495    1.318829   -0.025912
H      1.747434    0.724624    0.892100
H     -1.991670   -0.095250    1.326189
H     -1.499911    0.583577   -0.238237
H     -1.856429   -1.154282   -0.170137
