16

C     -1.253471    0.712605    0.513465
C     -0.950105   -0.257024   -0.600817
C      0.439833   -0.869667   -0.411990
C      1.426505    0.222289   -0.422561
C      2.207544    0.442566    0.619658
H      2.177692   -0.146157    1.526342
H      2.926349    1.250517    0.591665
H      1.515850    0.849295   -1.284955
H      0.646296   -1.548297   -1.252389
H      0.470016   -1.477131    0.508984
O     -1.892354   -1.290697   -0.582611
H     -2.665160   -1.050015    0.017513
H     -0.988343    0.281394   -1.554741
H     -2.274576    1.103244    0.343809
H     -0.540555    1.561429    0.479059
H     -1.245522    0.215650    1.509570
