15

C      2.730946    0.244291   -0.418812
C      2.061098   -0.347467    0.553665
O      0.803869   -0.916267    0.357940
C     -0.294909   -0.064935    0.095588
C     -1.573577   -0.823058   -0.092072
O     -2.563480    0.093532   -0.338470
C     -2.504092    1.145786    0.304111
H     -3.279675    1.900904    0.132023
H     -1.801956   -1.416136    0.822992
H     -1.530861   -1.506353   -0.972992
H     -0.070035    0.464564   -0.860921
H     -0.459917    0.675615    0.908611
H      2.455113   -0.421533    1.556115
H      2.329170    0.311227   -1.408970
H      3.698305    0.659832   -0.185709
