13

N     -1.694900    1.300205    0.329110
C     -0.732721    0.446187   -0.245619
C      0.319918    0.866584   -0.834128
C      1.429414    0.179297   -0.305536
O      2.653322    0.478768    0.007875
H      2.932147    0.712135    0.979961
N      0.776292   -1.192657   -0.100272
H      1.284367   -2.030543    0.145655
C     -0.629756   -1.004533   -0.349214
H     -0.825911   -1.346176   -1.385952
H     -1.300069   -1.474875    0.338994
H     -2.170748    2.141863    0.118202
H     -2.041356    0.923747    1.300924
