15

O     -1.946170   -0.327156    0.234560
C     -1.154279   -0.224248   -0.913002
H     -1.453785    0.572205   -1.621384
H     -1.023485   -1.235199   -1.344260
C      0.027960    0.202768   -0.106488
C      1.179478   -0.741066   -0.214350
O      2.181419   -0.484909    0.722746
H      2.197507    0.504568    0.842290
H      1.657817   -0.543622   -1.218987
H      0.911954   -1.799855   -0.216437
O      0.437484    1.513086   -0.303574
H     -0.374005    2.103482   -0.285567
C     -0.872545    0.071135    1.064007
H     -0.609268   -0.657092    1.842161
H     -1.160082    1.045903    1.518286
