13

C     -1.450811   -0.340621   -0.223756
H     -2.079407   -0.415004   -1.104873
H     -2.054087   -0.730264    0.652195
C     -0.894618    0.987750    0.149056
H     -1.133190    1.426297    1.141106
H     -1.232366    1.812913   -0.579812
C      0.393713    0.372533    0.088499
N      1.625121    0.782413   -0.353299
C      2.157473   -0.297541    0.088854
H      3.237286   -0.572906    0.028936
C      0.899000   -0.832269    0.590843
H      0.739304   -1.253105    1.622938
N     -0.207418   -0.940195   -0.352945
