12

N      3.484862    0.788185    0.622963
C      2.368718    0.646431    0.368082
C      0.947580    0.467044    0.064694
C      0.609592   -0.935445    0.316026
N     -0.622305   -1.260941    0.511447
C     -1.614594   -0.247517    0.476798
N     -2.638213   -0.463523   -0.274526
H     -3.433334    0.163703   -0.407144
H     -1.592940    0.675249    1.013569
H      1.350433   -1.695385    0.342395
H      0.347673    1.191756    0.647779
H      0.792528    0.670443   -1.034312
