11

C      1.270909   -0.534311    0.313323
C      0.570574    0.761906    0.178775
C      1.193516    1.902875    0.391171
C     -0.826193    0.785304   -0.193042
O     -1.431851    1.880044   -0.310392
N     -1.511712   -0.433902   -0.425312
H     -1.379599   -0.997300   -1.299954
H     -2.188750   -0.827976    0.278138
H      1.213536   -1.099618   -0.625231
H      2.337172   -0.362329    0.533119
H      0.752398   -1.074692    1.159404
