12

C      1.736824    0.031441    0.991214
C      1.475448    0.233235   -0.461635
C      0.305562   -0.156085   -0.948035
C     -0.668640   -0.767781   -0.014810
H     -0.205538   -1.415030    0.748670
C     -1.751866    0.203888    0.430193
H     -1.854947    1.168519   -0.092063
H     -1.940264    0.226064    1.501462
O     -1.989534   -0.899125   -0.350607
H      0.103666   -0.013045   -2.010604
H      2.245422    0.696059   -1.103189
H      2.543866    0.691860    1.309402
