10

C      0.934164    1.531366    2.060344
C      0.551498    0.696532    1.152743
C      0.127784   -0.209778    0.196289
C      0.211284   -1.653615    0.266158
O      1.151706   -2.284997   -0.300532
H     -0.517999   -2.244466    0.798129
C     -0.420882    0.257390   -0.923482
N     -1.122389    0.862904   -1.825096
H     -2.159240    0.843776   -1.646032
H      1.244075    2.200888    2.771428
