11

C      1.625102   -0.281753   -0.093062
C      0.162429   -0.058287   -0.022201
N     -0.463147    1.025732    0.441042
H     -0.039446    1.908593    0.835568
C     -1.782076    0.810321    0.322325
C     -1.956402   -0.437026   -0.227230
H     -2.845495   -0.984134   -0.483285
O     -0.748067   -0.903527   -0.409237
H      2.077187    0.353526   -0.887958
H      2.129465   -0.084484    0.866725
H      1.840449   -1.348961   -0.342687
