14

C     -1.145666   -0.761570   -0.585970
C     -0.641766    0.322218    0.329060
C      0.720162   -0.013139    0.894851
C      1.752247   -0.193261   -0.140249
O      1.764426   -1.196091   -0.833855
H      2.519527    0.542299   -0.318095
H      1.035108    0.787397    1.581704
H      0.612370   -0.937223    1.507768
N     -0.658174    1.554680   -0.325019
C     -0.655532    2.570960   -0.877136
H     -1.323265    0.418713    1.208303
H     -1.049607   -0.501811   -1.658351
H     -2.250136   -0.857471   -0.404041
H     -0.679694   -1.735702   -0.378970
