13

C     -1.945205    0.106650    0.545708
C     -0.729891    0.187335   -0.343886
C      0.535527   -0.057001    0.425081
O      0.472786   -0.289061    1.647162
N      1.740553   -0.002789   -0.323380
C      2.751480   -0.741674   -0.111117
H      3.636443   -0.643525   -0.723280
H      1.759335    0.711909   -1.099677
H     -0.604640    1.182717   -0.819560
H     -0.810405   -0.599741   -1.146523
H     -1.687487    0.284422    1.596832
H     -2.378538   -0.929602    0.440695
H     -2.739959    0.790360    0.196430
