18

C     -3.094006    0.067913    0.077975
C     -1.763207   -0.589043   -0.180657
C     -0.719026    0.441705   -0.192692
N      0.662611    0.136218   -0.414718
C      1.663712    0.374200   -1.284277
H      2.011241    0.843189   -2.182264
C      1.927982   -0.472803   -0.110086
C      2.789714    0.129601    0.984216
H      2.450465   -0.281755    1.937565
H      2.665644    1.231142    0.905112
H      3.839918   -0.177939    0.802185
H      2.026188   -1.560351   -0.284704
H     -0.944800    1.488487   -0.033340
H     -1.745716   -1.129041   -1.153335
H     -1.575717   -1.329156    0.645166
H     -3.086585    1.070782   -0.417196
H     -3.945890   -0.515546   -0.264897
H     -3.162527    0.272395    1.165948
