10

N     -1.062529   -1.127556    0.064772
C     -0.498540    0.175780    0.194184
C      0.946987    0.286882    0.142164
N      1.643507   -0.382923   -0.704875
H      2.667092   -0.319987   -0.759581
H      1.450460    0.943401    0.826107
N     -1.373765    1.261420    0.362693
H     -0.980389    2.045815    0.931489
H     -0.726464   -1.762763    0.791931
H     -2.066360   -1.120069   -0.123065
