14

C     -2.049140   -0.314064    0.331590
C     -0.596880   -0.652483    0.476479
C      0.250083    0.059829   -0.233975
C      1.696085   -0.220027   -0.139612
C      2.379183    1.003833    0.342197
N      2.914239    1.952003    0.737132
H      2.165384   -0.440144   -1.126610
H      1.913370   -1.079794    0.524620
C     -0.212674    1.138068   -1.128152
H     -0.942560    0.809269   -1.870640
H     -0.273860   -1.464257    1.152307
H     -2.610439   -0.812248    1.155485
H     -2.405814   -0.751610   -0.610744
H     -2.226979    0.771625    0.389922
