8

C     -1.921018    0.492184   -0.875203
C     -1.038306   -0.092472   -0.296475
C      0.013234   -0.765462    0.403527
C      1.231860   -0.295699    0.413106
N      2.349601    0.275693    0.710372
H      2.297738    1.036532    1.452157
H     -0.236607   -1.672818    0.924655
H     -2.696502    1.022042   -1.403303
