13

N      0.613025   -0.863004    1.313978
C      0.822058   -0.190850    0.233756
C      2.217713    0.034634   -0.230775
H      2.459867    1.122026   -0.068434
H      2.935904   -0.636746    0.254165
H      2.292117   -0.172038   -1.336277
O     -0.252575    0.293407   -0.450063
C     -1.602437    0.006891   -0.166665
C     -2.544058    0.703487   -1.113612
H     -2.960401    1.633363   -0.630526
H     -1.883168    0.188386    0.883737
H     -1.740673   -1.093099   -0.336819
H     -0.357373   -1.026459    1.647537
