12

O      1.864548   -1.094372    0.782108
C      1.210337   -0.774235   -0.211927
C      0.394588    0.467613   -0.192699
C     -1.063572    0.115222   -0.453282
N     -1.493168   -0.722419    0.568493
C     -1.851137   -1.404138    1.431471
H     -1.658644    1.064266   -0.439793
H     -1.083418   -0.369490   -1.452944
O      0.509141    1.105212    1.017561
H      1.207201    1.816191    1.041906
H      0.746225    1.173201   -0.995538
H      1.217901   -1.377052   -1.095355
