16

C      2.774438    0.219019   -1.107559
C      1.284089   -0.132527   -1.182289
C      0.754683    0.090040    0.218629
C     -0.707079   -0.326569    0.312940
O     -1.497330    0.404746   -0.563916
C     -2.820560   -0.006436   -0.445388
H     -2.826762   -1.098251   -0.705027
H     -3.142561    0.159989    0.602055
H     -3.474992    0.509303   -1.158688
H     -1.095898   -0.130812    1.332703
H     -0.760579   -1.409892    0.145235
H      1.382909   -0.457300    0.929744
H      0.768205    1.191882    0.389552
H      3.369957   -0.343972   -1.827731
H      3.166387    0.020993   -0.083935
H      2.825093    1.309786   -1.313448
