12

O      2.739311   -0.428885    0.060406
C      1.564074   -0.169105   -0.009008
C      0.315534   -0.943544    0.146442
H      0.228496   -1.941594    0.238447
C     -0.296030    0.184513    0.796526
H     -0.389967    0.437475    1.774190
C     -1.325508    0.123469   -0.245853
H     -1.797487    1.075983   -0.583845
H     -2.025600   -0.710141   -0.283789
N     -0.136416   -0.218514   -1.063839
C      0.530130    0.815701   -0.235087
H      0.593463    1.774642   -0.530519
