13

O     -2.396263    0.694281    1.080521
C     -1.399764    0.212576    0.567612
C     -0.937045   -0.875620   -0.281182
H     -1.370234   -0.850503   -1.265621
H     -1.093514   -1.876765    0.258805
C      0.448373   -0.447939   -0.241235
O      1.481239   -1.295174    0.064070
H      2.316925   -0.874235    0.355001
C      0.694133    0.950008   -0.648086
H      0.069799    1.310739   -1.564844
H      1.668095    1.483683   -0.571732
C      0.037667    0.683077    0.638282
H      0.480587    0.885869    1.608409
