16

C      2.371353    0.275945   -0.426546
O      1.445392    0.175293   -1.449451
C      0.267844   -0.394412   -1.038633
C     -0.448966    0.347536    0.058335
C     -1.737479   -0.333735    0.452374
C     -2.710097   -0.451773   -0.675922
H     -2.979623    0.543331   -1.083308
H     -2.221751    0.256375    1.256038
H     -1.554734   -1.338638    0.872550
H      0.215082    0.332583    0.950177
H     -0.600481    1.409393   -0.207629
H      0.460340   -1.458160   -0.743791
H     -0.377880   -0.487931   -1.961290
H      3.304644    0.735797   -0.824125
H      1.975003    1.062035    0.283609
H      2.591354   -0.673640    0.080489
