9

C     -1.359531   -0.212031    0.139611
N      0.080779   -0.496552    0.152775
C      0.955670    0.454196   -0.025283
O      2.277887    0.100183    0.002171
H      2.551309   -0.808890   -0.389441
H      0.565588    1.439177   -0.179191
H     -1.817076   -0.982593   -0.513012
H     -1.495906    0.773506   -0.347259
H     -1.758721   -0.266995    1.159629
