11

N      0.956547    1.059035    0.814307
C      1.507359   -0.056916    0.418126
O      0.704112   -1.150197    0.197260
C     -0.608110   -1.014450   -0.239746
H     -1.149581   -1.984229   -0.378496
O     -1.342153   -0.152727    0.721087
C     -1.249715    0.190214   -0.658912
H     -0.684763    1.108627   -0.908536
H     -2.228227    0.131429   -1.153110
H      2.568105   -0.043480    0.289950
H      1.526425    1.912695    0.993898
