17

C      3.532339   -0.698024    0.657383
C      2.554912    0.075613    0.242067
O      1.258022   -0.046341    0.773591
C      0.176776    0.346630   -0.023583
C     -1.135294    0.148562    0.701564
C     -2.295917    0.561237   -0.131257
C     -3.246373   -0.301992   -0.457607
H     -4.104727   -0.045537   -1.059100
H     -3.162548   -1.319717   -0.104924
H     -2.328463    1.595724   -0.457493
H     -1.242097   -0.931949    0.944355
H     -1.144708    0.680242    1.672681
H      0.151076   -0.246516   -0.961046
H      0.317517    1.397745   -0.320722
H      2.740183    0.817571   -0.516857
H      3.417761   -1.459714    1.412199
H      4.511541   -0.573533    0.225491
