12

C      1.560473    0.639049    0.136400
C      0.293255   -0.133041   -0.001523
N     -0.915834    0.222726   -0.266738
N     -1.578309    1.437045   -0.536730
H     -1.846715    2.112503    0.217307
C     -1.334366   -1.135312   -0.177385
H     -2.251042   -1.711183   -0.275031
C     -0.100560   -1.539278    0.098256
H      0.437898   -2.448351    0.308186
H      2.351088    0.046239    0.625836
H      1.967081    0.941980   -0.866092
H      1.417031    1.567623    0.737513
