11

O      1.460988   -0.251090    0.948681
C      0.603883   -0.911991    0.080132
H      1.023960   -1.762152   -0.447224
C      0.947878    0.479267   -0.067449
H      1.558371    0.879560   -0.904217
C     -0.481997    0.901825    0.091289
H     -0.895189    1.584454   -0.645534
H     -0.662756    1.334393    1.126478
C     -0.844721   -0.539841    0.008330
H     -1.223459   -0.850235   -1.019935
H     -1.486957   -0.864190    0.829450
