17

C      2.689261   -0.430298    0.814234
C      1.434889   -0.118912    0.002878
O      0.546101    0.577698    0.805841
C     -0.581437    0.882369    0.070788
C     -1.246560   -0.349311   -0.396433
C     -2.515370   -0.586409   -0.011431
C     -3.249644    0.355502    0.863330
H     -3.381998    1.359553    0.403491
H     -3.017665   -1.480445   -0.342444
H     -0.815831   -1.097833   -1.036574
H     -0.254662    1.428001   -0.866041
H     -1.257363    1.533702    0.661412
H      1.041107   -1.105234   -0.350219
H      1.642240    0.470857   -0.891883
H      3.533662   -0.384942    0.065635
H      2.655916   -1.436013    1.239622
H      2.777352    0.381717    1.564536
