16

C      2.187519    0.381844   -0.706375
C      0.641084    0.454798   -0.574568
C      0.183302   -0.844951   -0.024870
C     -1.246990   -1.034134    0.198474
C     -2.164508   -0.141172   -0.048002
C     -1.829553    1.186201   -0.593220
H     -2.449632    1.936710   -0.021991
H     -3.233662   -0.332192    0.137955
H     -1.619560   -2.007251    0.611626
H      0.721747   -1.054387    0.960999
H      0.605171   -1.680536   -0.680591
H      0.247435    0.626861   -1.601784
H      0.448346    1.329488    0.078788
H      2.435843    1.184124   -1.438860
H      2.578727    0.607462    0.303945
H      2.494729   -0.612863   -1.058649
