8

O     -0.348860    1.796593    0.046533
C     -0.778594    0.713696   -0.301499
C     -0.047960   -0.557598   -0.084771
N      1.189350   -0.298743    0.572898
C      2.188261   -0.071250    1.111821
H     -0.657624   -1.251460    0.533871
H      0.194518   -1.002195   -1.085945
H     -1.739091    0.670957   -0.792908
