12

C     -1.263306   -0.241198   -0.972654
H     -2.225469   -0.795695   -0.999196
H     -0.743593   -0.021261   -1.917482
C     -0.358400   -0.407534    0.215913
C      1.126699   -0.211839    0.032368
O      1.795692   -0.407034    1.240569
H      2.280208    0.430919    1.501327
H      1.491582   -0.958254   -0.706656
H      1.334749    0.808446   -0.339045
H     -0.711270   -0.998758    1.083834
C     -1.182032    0.849082    0.037868
O     -1.544861    1.953125    0.409564
