15

N      1.252049    1.611558   -1.628866
C      0.486721    0.873588   -0.699172
C      0.222759   -0.408638   -0.842923
C     -0.552417   -1.230645    0.065746
C     -1.083265   -0.575209    1.288228
C     -0.086603   -0.028826    2.165926
N      0.727441    0.405095    2.856804
H     -1.837393    0.206529    0.973367
H     -1.686225   -1.304361    1.877790
H      0.107723   -2.085525    0.404291
H     -1.359693   -1.733133   -0.521241
H      0.638384   -0.872182   -1.738938
H      0.086786    1.388884    0.188509
H      0.838376    2.395872   -2.157227
H      2.245355    1.356991   -1.779196
