9

C     -0.090958    0.631313    0.163814
H      0.129609    1.682702    0.416642
C      0.680123   -0.376682   -0.163243
O      2.080035   -0.552411   -0.329299
H      2.718374    0.194972   -0.157239
O     -0.411718   -1.183879   -0.277878
C     -1.309616   -0.183687    0.058106
H     -2.001515    0.111517   -0.758910
H     -1.794334   -0.323843    1.048008
