16

C      1.765616   -0.269936    0.558709
C      0.576460    0.022883   -0.345047
H      0.936812   -0.102139   -1.435359
C     -0.040943    1.394087   -0.260599
H      0.515795    2.279314   -0.407992
H     -0.164173    1.394483    1.006376
C     -1.554443    1.385924   -0.429524
C     -1.766204   -0.150217   -0.484105
H     -2.212296   -0.069428    0.738819
H     -2.639718   -0.604393   -0.877674
C     -0.518773   -0.929073   -0.171620
H     -0.436738   -1.758282   -0.971453
H     -0.513520   -1.476533    0.781228
H      2.593808    0.372599    0.238059
H      2.005656   -1.370075    0.438214
H      1.452660   -0.119214    1.621968
