15

C     -1.699741    0.528896    0.278224
C     -0.423721    0.068265   -0.356553
O     -0.731781   -0.642724   -1.544318
H     -0.950515   -1.592281   -1.321599
C      0.412149   -0.809029    0.525549
H      0.047060   -0.744780    1.591120
H      0.397099   -1.852044    0.180824
C      1.768758   -0.215856    0.416335
H      2.669853   -0.726954    0.710723
C      1.635110    1.057897   -0.264885
H      2.437329    1.801036   -0.409634
C      0.437106    1.238970   -0.739972
H     -2.504165   -0.240287    0.164561
H     -1.989171    1.516697   -0.142309
H     -1.505371    0.612196    1.365031
