8

C      0.533019    0.541073    0.178711
O      1.370597   -0.548315    0.100781
H      1.930734   -0.711572   -0.726237
C     -0.747430    0.390037   -0.049255
O     -1.226926   -0.887294   -0.367898
H     -1.375731   -1.509696    0.433465
H     -1.446627    1.238881    0.004227
H      0.962363    1.486885    0.426206
