12

O     -0.971404    1.096996   -1.010742
C     -0.418725    0.420531    0.072298
H     -0.430823    1.004680    1.020962
C      0.845738   -0.305690   -0.216404
C      1.902547    0.010753    0.816596
H      2.571574    0.818300    0.515715
H      1.182107   -0.116073   -1.258364
O      0.298266   -1.544851   -0.040432
C     -0.924488   -0.964739    0.242769
H     -1.668601   -1.294322   -0.526317
H     -1.340512   -1.192728    1.245137
H     -1.045679    2.067145   -0.861215
