16

C      2.110522    0.277961    0.118357
C      0.903339   -0.391076    0.741406
C     -0.309620   -0.020725   -0.091739
C     -0.877315   -1.252220   -0.768385
H     -0.026795   -1.815445   -1.215897
H     -1.550462   -0.982014   -1.586878
H     -1.423134   -1.863119   -0.011717
C     -1.375278    0.446658    0.906297
H     -2.212405    0.892874    0.358784
H     -0.873142    1.186977    1.573528
H     -1.675180   -0.478257    1.457566
O     -0.051448    1.007283   -0.974899
H      0.029562    1.845434   -0.448991
H      2.065834    0.166997   -0.976860
H      2.267254    1.304531    0.468911
H      2.998268   -0.325857    0.450516
