12

C     -1.675396    0.105110   -0.682854
C     -1.145994   -0.578932    0.507986
O     -1.927737   -1.015659    1.375271
N      0.247037   -0.741332    0.669624
C      1.023532    0.162562    0.240687
N      2.443011    0.098618    0.352388
H      3.046181   -0.102733   -0.468722
H      2.888489    0.257498    1.279791
H      0.594939    1.030618   -0.236050
H     -2.424127   -0.589601   -1.154774
H     -0.913920    0.294727   -1.445276
H     -2.156016    1.079124   -0.438070
