11

C      2.538234   -0.798749    0.097975
C      1.238629   -0.764991    0.028733
C     -0.057449   -0.695183    0.034180
C     -1.319784   -0.543770    0.311737
N     -1.932488    0.691066    0.011548
N     -1.208056    1.699841   -0.571832
C     -0.596854    2.557161   -1.051769
H     -2.941070    0.814741    0.242958
H     -1.915986   -1.321269    0.760749
H      3.107251   -1.241355   -0.707879
H      3.087573   -0.397491    0.939429
