12

C      2.228528   -0.339860   -1.357880
C      1.424063   -1.251167   -0.491071
C      0.191830   -0.901428   -0.195158
N     -1.084526   -1.166940    0.482423
H     -1.610518   -1.832102    1.090150
C     -0.935540    0.024254   -0.282456
C     -0.859552    1.276930    0.468179
C     -0.801607    2.306878    1.063450
H     -0.740437    3.230734    1.579167
H     -1.430094    0.132797   -1.269438
H      1.848496   -2.163476   -0.124943
H      1.769356    0.683380   -1.376012
