14

C      1.512917    0.681075    0.130391
C      0.760168   -0.612854    0.216110
C     -0.589409   -0.543216   -0.480156
H     -0.493346   -0.530482   -1.601943
C     -1.535544    0.447321    0.016856
H     -2.096046    0.952360   -0.808198
H     -1.175191    1.166240    0.797953
C     -2.177828   -0.744162    0.434421
O     -1.386485   -1.473474    0.014413
H      1.340607   -1.407275   -0.294998
H      0.593567   -0.896055    1.253140
H      2.561029    0.466444    0.463199
H      1.104746    1.463850    0.782217
H      1.580815    1.030227   -0.923407
