13

N      0.187813    0.963148    0.070410
H      0.603602    1.951067    0.158405
C      0.915314   -0.209417   -0.082463
C      2.238239   -0.309107   -0.150525
H      2.874649    0.549180   -0.092661
H      2.746666   -1.278375   -0.249660
O      0.006224   -1.272955   -0.152772
C     -1.294220   -0.834302   -0.028459
H     -1.683421   -1.262443    0.927399
H     -1.934122   -1.143445   -0.907810
C     -1.236462    0.653895    0.080777
H     -1.816610    1.180407   -0.680018
H     -1.607671    1.012346    1.107378
