15

C      2.131817    0.428283    0.294113
C      0.924214   -0.496628    0.263328
C      0.379168   -0.835140   -1.055049
H      0.826040   -0.468926   -2.007885
H     -0.070600   -1.852728   -1.163656
N     -0.277996    0.118133   -0.208234
C     -1.562480   -0.324417    0.307232
C     -2.594058    0.700267    0.115538
N     -3.404344    1.510864   -0.046099
H     -1.891097   -1.286588   -0.173041
H     -1.526088   -0.540647    1.396169
H     -0.267628    1.139925   -0.463184
H      2.113197    1.097471    1.172658
H      2.190726    1.007957   -0.658712
H      3.029129   -0.197826    0.361299
