8

O     -0.887605   -0.033983    1.311512
C     -0.509355    0.408315   -0.066850
H     -1.223024    1.076685   -0.455448
C      0.908837    0.507896   -0.390389
H      1.450011    1.347769   -0.921104
N      1.167114   -0.571174    0.023879
C     -0.247866   -0.877815    0.393872
H     -0.658113   -1.857693    0.104528
