12

N     -1.911144   -0.193219    0.032993
C     -0.502606    0.112195    0.032925
C      0.020033    1.315865    0.156076
H     -0.612620    2.207565    0.272342
N      1.422174    1.229131    0.111834
C      1.814379    0.019567   -0.034450
H      2.831728   -0.369833   -0.103442
C      0.620636   -0.835115   -0.101635
H      0.536198   -1.265796   -1.122556
H      0.609830   -1.622215    0.681500
H     -2.504670    0.244867    0.763700
H     -2.323939   -0.843012   -0.689288
