14

C      0.109883    0.456357    0.459447
C      1.321355   -0.062015   -0.227612
C      2.519921    0.054918    0.320304
H      2.626437    0.535460    1.285498
H      3.410745   -0.318487   -0.169834
H      1.239019   -0.544432   -1.189976
C     -0.864565   -0.654141    0.718884
C     -2.090524   -0.648558    0.222162
C     -2.570307    0.465346   -0.624607
H     -2.414010    1.463637   -0.174002
H     -2.766136   -1.461484    0.427281
H     -0.498974   -1.463605    1.341007
H     -0.382207    1.279228   -0.133017
H      0.359363    0.897774    1.445776
