13

O     -1.778126    0.321743    0.680455
C     -0.700872    0.126471   -0.179699
H     -0.981683    0.233586   -1.226086
C      0.478299    0.985578    0.150811
H      0.592400    1.799177   -0.615079
H      0.378138    1.330266    1.222310
C      1.605989    0.087872   -0.086784
H      2.698416    0.355980   -0.099237
N      1.241048   -1.123667   -0.222476
C     -0.157231   -1.277850   -0.050890
H     -0.550036   -2.007342   -0.799624
H     -0.364817   -1.674204    0.984507
H     -2.461525    0.842390    0.241793
