13

O      2.978066    0.272601    0.214558
C      1.943973    0.032041    0.791051
C      0.645151    0.553972    0.325866
C     -0.088466   -0.581584   -0.357616
C     -1.405845   -0.063713   -0.826558
N     -2.294118    0.100269    0.093907
H     -3.233004    0.437654   -0.016148
H     -1.660431    0.171446   -1.838488
H     -0.291517   -1.391295    0.356504
H      0.503263   -1.014064   -1.191326
H      0.103695    0.984124    1.177938
H      0.813230    1.374419   -0.411345
H      1.986002   -0.591383    1.681657
