12

N     -0.086853    1.770020    0.293353
C     -0.258836    0.508089    0.048315
C     -1.566218   -0.114206   -0.221574
H     -2.223885   -0.070564    0.691993
H     -2.088189    0.288024   -1.091763
O     -1.217212   -1.470462   -0.419840
N      0.139891   -1.650992   -0.286433
C      0.734986   -0.557262   -0.019676
N      2.135315   -0.399508    0.179066
H      2.648344    0.494512    0.014678
H      2.712521   -1.205486    0.508044
H     -0.929865    2.407836    0.303836
