18

C      1.487435    1.129612   -0.053115
C      0.834203   -0.010749    0.123163
C      1.590788   -1.292070    0.135025
H      1.130887   -1.960798   -0.622314
H      2.645326   -1.143221   -0.196169
H      1.551448   -1.691288    1.158591
C     -0.631532   -0.041322    0.309025
C     -1.231237    1.334901    0.440857
H     -0.825745    1.815451    1.373820
H     -1.015139    1.940381   -0.464177
H     -2.318938    1.233258    0.584370
C     -1.348139   -0.837191   -0.740805
H     -2.427450   -0.610498   -0.697208
H     -0.980310   -0.595455   -1.778853
H     -1.163714   -1.939581   -0.607774
H     -0.838606   -0.559637    1.292953
H      2.556546    1.141995   -0.187681
H      0.984176    2.086211   -0.069708
