14

C     -1.305806   -0.081753   -1.262327
C      0.185292   -0.333763   -1.208857
N      0.548932   -0.732411    0.140248
C      0.451364    0.253024    1.163384
N     -0.228049    1.100298    1.367663
H     -0.771584    1.954316    1.734281
N      1.608275    0.052350    2.138269
C      2.458459   -0.080844    2.835325
H      0.856994   -1.701031    0.322951
H      0.738491    0.598330   -1.497873
H      0.474070   -1.074420   -1.956722
H     -1.501438    1.034090   -1.296545
H     -1.797598   -0.419420   -0.322295
H     -1.717400   -0.568767   -2.157500
