10

O      2.077786    1.345979   -0.092098
C      0.972521    0.526574   -0.039118
C     -0.278715    0.936111    0.013938
H     -0.673559    1.946166    0.026119
C     -1.137304   -0.292459    0.058161
H     -1.784624   -0.306118   -0.868267
H     -1.750784   -0.296007    0.975342
O     -0.215419   -1.340412    0.022931
C      0.972466   -0.926060   -0.031597
H      1.817631   -1.593775   -0.065411
