16

C      0.875874   -0.751606   -0.583495
C      2.090638    0.089232   -0.182882
H      1.767659    0.733583    0.639381
H      2.883565   -0.591367    0.178233
H      2.477408    0.616355   -1.058074
C     -0.287039    0.187139   -0.725263
H     -0.067182    1.010507   -1.429133
C     -1.554278   -0.517268   -1.119048
C     -2.188346   -0.110299    0.209442
H     -2.398173   -0.952057    0.880237
H     -3.032786    0.551667    0.015240
C     -0.909805    0.589118    0.583749
H     -1.017110    1.702744    0.605796
H     -0.432627    0.177429    1.479247
H      1.065412   -1.227413   -1.562586
H      0.726791   -1.507764    0.184745
