15

C      0.970359   -1.589913    0.096848
N      0.706350   -0.166789   -0.005181
C      1.690445    0.850491   -0.120992
H      2.761277    0.765558   -0.153476
C      1.023000    1.965175   -0.184082
C     -0.295583    1.846231   -0.126547
H     -0.997719    2.644027   -0.163528
N     -0.551488    0.456285   -0.008063
C     -1.870658   -0.119542    0.085457
H     -1.893461   -1.188643   -0.200394
H     -2.570605    0.412908   -0.609072
H     -2.240753    0.024755    1.142475
H      0.074589   -2.174798    0.299479
H      1.801682   -1.779988    0.835108
H      1.392564   -1.945757   -0.888031
