13

C      2.350848   -0.444208    0.344990
N      0.902185   -0.435997    0.422862
C      0.382926    0.667452   -0.344716
C     -1.072260    0.964019   -0.297363
H     -1.389724    1.820840   -0.909892
C     -1.950965   -0.158008    0.022596
H     -3.030212   -0.174114   -0.276373
H     -1.515645   -1.149899    0.162409
O     -1.693800    0.857104    0.953913
H      1.049515    1.269509   -0.946665
H      0.511023   -1.317271   -0.002818
H      2.776513   -0.544378    1.385114
H      2.679596   -1.355050   -0.229571
