15

C      2.503133   -0.163001    0.560318
N      1.225371    0.085553    0.374118
C      0.721925    1.129529   -0.446214
H      1.371770    1.826944   -1.001991
C     -0.589978    1.099479   -0.412164
H     -1.233222    1.784164   -0.947711
C     -1.055033    0.001785    0.458191
C     -1.760231   -1.059602   -0.397717
H     -2.732949   -0.651508   -0.687301
H     -1.855730   -1.950644    0.261359
H     -1.093458   -1.293287   -1.253013
H     -1.710933    0.342182    1.277787
N      0.158112   -0.621042    0.940414
H      2.825676   -0.972316    1.196786
H      3.225547    0.441765    0.077138
