17

C     -3.198369    0.254035    0.880869
C     -2.069658    0.137588   -0.094796
O     -0.807135    0.077565    0.529748
C      0.353370   -0.030964   -0.215825
C      1.378608   -0.784707    0.157300
O      2.535074   -0.915330   -0.550434
C      3.562827    0.043206   -0.619070
H      4.405797   -0.265029   -1.245510
H      3.837446    0.297744    0.425092
H      3.104905    0.972417   -1.040842
H      1.295592   -1.341339    1.095856
H      0.491245    0.503909   -1.163527
H     -2.073978    0.970772   -0.823599
H     -2.218143   -0.816411   -0.657307
H     -3.991014    0.881901    0.398668
H     -2.908059    0.741679    1.834343
H     -3.698507   -0.727037    1.089034
