11

N      2.080049    0.400754    0.380418
C      0.693210    0.058862    0.411902
O     -0.054285    0.372829    1.383878
N      0.063162   -0.657684   -0.649529
C     -1.344469   -0.961349   -0.537242
N     -2.128826   -0.010919   -0.146088
H     -3.151857   -0.300718   -0.084103
H     -1.859423    0.950584    0.092023
H      0.625583   -0.947262   -1.478200
H      2.786874   -0.311051    0.591017
H      2.289982    1.405953    0.131753
