15

O      2.854279    0.562126   -1.378477
C      2.017374   -0.034440   -0.736809
C      0.819666    0.672540   -0.268397
C     -0.112931   -0.239097    0.517586
H      0.427111   -0.833036    1.297121
C     -1.327075    0.477223    0.992482
H     -1.499799    0.404698    2.096903
H     -1.340284    1.543084    0.633183
O     -2.149324   -0.264514    0.205724
C     -1.105715   -0.980713   -0.293220
H     -0.881403   -0.795703   -1.393513
H     -1.210358   -2.070461   -0.071213
H      1.116292    1.484728    0.435123
H      0.227265    1.152961   -1.064999
H      2.164902   -1.079395   -0.518396
