18

C     -1.545728    0.225109   -0.534702
C     -0.293861   -0.096968    0.245817
C      0.895712   -0.323514   -0.662950
C      2.066143   -0.630939    0.199455
C      3.156774    0.113551    0.200642
H      3.261557    0.985432   -0.422184
H      3.986236   -0.143566    0.842374
H      1.993660   -1.500451    0.837663
H      1.086647    0.538361   -1.299865
H      0.662596   -1.181343   -1.358127
H     -0.496351   -1.010137    0.843041
H     -0.039567    0.742587    0.931555
C     -2.663904    0.431685    0.452124
H     -3.562867   -0.110186    0.082497
H     -2.405706   -0.007064    1.422942
H     -2.950162    1.496613    0.559635
H     -1.377999    1.134645   -1.167661
H     -1.773179   -0.663815   -1.172255
