12

O     -0.235919    1.250636   -1.010690
C     -0.424462    0.499686    0.167298
H     -0.703414    1.172788    0.981002
C     -1.313920   -0.715031   -0.028640
H     -1.794924   -0.776850   -1.013861
H     -2.038040   -0.873454    0.804721
C     -0.116273   -1.605299    0.185704
C      0.765915   -0.388261    0.380258
O      1.741109   -0.359959   -0.592612
H      2.430655    0.333705   -0.440021
H      1.155757   -0.386809    1.427632
H      0.533516    1.848850   -0.860791
