14

C      2.233415    0.144862    0.325494
C      0.722754    0.137736    0.147146
C     -0.260819    0.921095    0.382568
O     -0.357464    2.205137    0.944195
N     -1.182162    0.022459   -0.125163
C     -2.474759    0.007299   -0.281813
H     -3.082802    0.848139    0.022786
H     -3.003533   -0.830485   -0.716876
C     -0.128590   -0.887850   -0.409100
H      0.070110   -1.083841   -1.491420
H     -0.164929   -1.863245    0.147188
H      2.636292   -0.035972   -0.692401
H      2.431692   -0.706262    1.010366
H      2.560794    1.120927    0.737030
