13

C     -1.158741   -1.210337   -0.234434
N     -0.063673   -0.269034   -0.044892
C      1.347438   -0.369810    0.017212
H      1.848902   -0.635662   -0.962148
H      1.744153   -0.994226    0.857463
C      1.416411    1.065269    0.219847
H      2.143001    1.871570    0.370733
C     -0.017802    1.109085    0.148653
C     -0.958408    2.085108    0.233262
H     -1.985086    1.809532    0.139691
H     -1.127192   -1.930408    0.633884
H     -1.042185   -1.821327   -1.145060
H     -2.146816   -0.709760   -0.234209
