11

C     -1.382116    0.382413    0.368957
C     -0.040463    0.469769   -0.106953
C      0.674217   -0.606097    0.054864
C      1.410968   -1.650159   -0.208263
H      2.085877   -1.842920    0.548458
H      1.358046   -2.251436   -1.074968
C      0.449452    1.650285   -0.709242
N      0.852381    2.623157   -1.221717
H     -2.076637   -0.002557   -0.420953
H     -1.769524    1.420225    0.589447
H     -1.562201   -0.192679    1.292918
