10

O     -0.389230   -0.662810    0.132753
C     -1.448908    0.227499    0.179726
N     -1.342132    1.395036   -0.355392
H     -2.135803    2.076670   -0.326465
H     -2.368943   -0.056838    0.666561
C      0.935769   -0.206988   -0.037485
C      1.877066   -1.328742   -0.056295
N      2.614468   -2.238886   -0.074403
H      1.230722    0.422365    0.840887
H      1.026991    0.372695   -0.969887
