13

C     -1.349508   -0.437021    0.150460
C     -0.306880    0.655651   -0.079450
O     -0.053349    1.253195    1.127449
H      0.745890    1.825190    1.151146
C      0.910268   -0.016665   -0.676584
N      1.337930   -1.000672    0.233604
C      1.696980   -1.791289    0.988811
H      0.656717   -0.412202   -1.665171
H      1.745978    0.702707   -0.802344
H     -0.732961    1.356784   -0.809076
H     -0.788896   -1.278097    0.628868
H     -2.105444   -0.079175    0.853344
H     -1.756725   -0.778405   -0.816572
