13

C      1.901205    0.371525    0.362376
O      0.569815    0.882121    0.305576
C     -0.454732    0.051870   -0.100003
C     -1.832207    0.451324    0.253483
H     -2.101417    1.309180   -0.397749
H     -1.862607    0.716219    1.328959
H     -2.497244   -0.420005    0.124457
C     -0.175765   -1.043326   -0.773053
H     -1.005898   -1.682638   -1.081879
H      0.793919   -1.367834   -1.047551
H      2.612866    1.134553    0.699444
H      2.163521    0.119808   -0.693218
H      1.888544   -0.522798    1.019158
