12

N     -1.194927    0.144941    0.781448
C     -0.377491    0.190134   -0.521591
H     -0.899686    0.649820   -1.283055
C      0.771045    1.057772   -0.046089
H      0.748739    2.117999   -0.185322
N      1.664638    0.566752    0.688159
C      1.928839   -0.726357    0.718346
N      1.088893   -1.445684   -0.070353
C      0.150520   -1.195996   -0.598051
H     -0.479077   -1.806543   -1.301364
H     -1.548985    1.080638    0.981261
H     -1.852509   -0.633476    0.836612
