11

C      0.991456   -0.938359   -0.017680
C      0.162014    0.231863   -0.370131
C     -0.982209    0.537147    0.460710
N     -1.485997   -0.300569    1.282183
H     -2.326146    0.043526    1.835957
H     -1.403464    1.548172    0.345463
N      0.523520    0.963934   -1.465696
N      0.815775    1.590940   -2.373236
H      2.008041   -0.888874   -0.469932
H      0.527545   -1.895488   -0.319072
H      1.169464   -0.892293    1.091434
