12

C      2.669987   -1.797488   -0.376183
C      1.808038   -0.979488   -0.167393
C      0.772790   -0.011848    0.085299
C     -0.463638   -0.349767    0.415415
C     -1.535902    0.645791    0.677261
O     -1.083765    1.938688    0.534359
H     -1.587606    2.472906   -0.127470
H     -2.377194    0.503121   -0.048318
H     -1.934305    0.446411    1.694153
H     -0.682115   -1.404950    0.492631
H      0.978922    1.048755    0.011223
H      3.434787   -2.512130   -0.543208
