21

C      1.860336    1.382164   -0.359848
C      1.346351    0.153937    0.322436
C      0.386112   -0.583236   -0.546688
H      0.847664   -0.845188   -1.514151
C     -0.163836   -1.840824    0.103549
H      0.136590   -1.899142    1.170616
H      0.004045   -2.775682   -0.484699
C     -1.569935   -1.311055   -0.015293
H     -2.094388   -1.154836    0.944408
H     -2.194020   -1.948059   -0.684492
C     -1.000036   -0.072373   -0.658292
C     -1.303618    1.210549    0.072795
H     -1.217981    1.056592    1.166673
H     -0.633630    2.025644   -0.201190
H     -2.337341    1.545493   -0.147060
H     -1.347922    0.000784   -1.716701
H      2.226924   -0.531426    0.493031
H      0.960969    0.383208    1.329353
H      1.415089    1.562917   -1.360246
H      2.970810    1.333414   -0.530674
H      1.707817    2.307118    0.238369
