15

O     -0.207894    0.925681   -1.299716
C     -0.453549    0.401051   -0.045550
C      0.849119    0.120623    0.713644
C      1.624568   -0.865856   -0.079822
O      2.682685   -0.529729   -0.603882
H      1.288897   -1.877454   -0.216165
H      1.365210    1.071573    0.798911
H      0.587503   -0.331895    1.687440
C     -1.207636   -0.909257   -0.226561
H     -1.084939   -1.345107   -1.232597
H     -0.923333   -1.560300    0.591074
H     -2.294278   -0.667250   -0.110953
C     -1.322985    1.352177    0.752802
H     -1.104299    2.397297    0.523048
H      0.200933    1.818447   -1.251674
