17

O     -0.898193    1.248972   -0.715165
C      0.138646    1.516435    0.157940
H     -0.280640    1.659123    1.152460
H      0.674717    2.401916   -0.176363
C      1.117611    0.360488    0.204273
O      1.649164    0.081165   -1.039057
H      2.553404   -0.309492   -0.928196
H      1.937468    0.554709    0.904866
C      0.373731   -0.886957    0.675880
H      0.001654   -0.775372    1.691224
H      1.081707   -1.733695    0.610347
C     -0.728173   -1.109549   -0.353377
H     -1.296992   -1.995763   -0.020828
H     -0.269018   -1.342600   -1.322754
C     -1.611876    0.115727   -0.371693
H     -2.411655   -0.038466   -1.095559
H     -2.031555    0.253359    0.626001
