16

C      2.833650   -0.195412   -0.631920
O      1.590323   -0.675100   -0.228900
C      0.658011    0.326243   -0.298208
H      1.082695    1.284290   -0.652701
C     -0.341743    0.399392    0.767984
H     -0.303145    0.663650    1.811764
N     -1.406148   -0.009973   -0.076135
C     -2.832065   -0.257382    0.015810
H     -3.402818    0.454352   -0.648657
H     -3.193286   -0.131525    1.044358
H     -3.010205   -1.311054   -0.279961
C     -0.572416   -0.093911   -1.058464
H     -0.631571   -0.364641   -2.112790
H      3.619230   -0.968218   -0.592947
H      2.780479    0.304318   -1.641587
H      3.129009    0.574970    0.125230
