10

N     -1.458508    1.167548   -0.227852
H     -1.247511    1.650269   -1.132964
H     -1.694756    1.802826    0.551414
C     -0.430584    0.186471    0.067871
C      0.828428   -0.051241    0.368899
C      1.259255   -1.419263    0.553560
O      2.453326   -1.653997    0.839671
H      0.551896   -2.256437    0.446018
H      1.534333    0.741253    0.478960
N     -1.795880   -0.167429   -0.219758
