15

O      2.594765   -0.132196    0.174050
C      1.387319    0.575992    0.038391
C      0.316228   -0.370099   -0.457104
H      0.514157   -0.652137   -1.519218
O      0.067547   -1.430037    0.360628
C     -1.220530   -1.012677    0.553829
H     -1.956239   -1.719813    0.123174
H     -1.385383   -0.761945    1.621890
C     -1.065111    0.177514   -0.318391
C     -1.103713    1.500015    0.434950
H     -1.530545    2.270551   -0.252094
H     -1.659595    0.188034   -1.256683
H      1.154203    0.986371    1.030342
H      1.567168    1.395557   -0.656927
H      2.319728   -1.015131    0.576260
