13

N      2.247965    1.007474    0.796232
C      1.184030    0.323966    0.257075
O      0.022521    1.225084    0.317709
C     -1.218417    0.771396   -0.291086
H     -2.070936    1.272109    0.107015
H     -1.083037    1.096558   -1.298399
C     -1.283894   -0.643926   -0.241305
H     -2.348376   -1.140775   -0.387350
H     -1.308750   -0.745725    1.091128
C     -0.120524   -1.353769   -0.537974
N      0.930405   -0.859061   -0.264773
H      1.919005   -1.415145   -0.388818
H      3.130007    0.461814    0.840547
