14

C     -1.531023    0.410489    0.320842
H     -1.399206    1.361836    0.823136
H     -2.591438    0.079205    0.132330
C     -0.632093    0.160798   -0.864371
H     -0.993477   -0.220105   -1.837092
C      0.552219    1.111093   -0.966469
H      0.456063    2.135294   -1.231327
O      1.739111    0.453033   -0.690287
C      1.809662   -0.427285    0.252805
H      2.764102   -0.892414    0.414311
N      0.667698   -0.713014    0.984052
H      0.721672   -0.908146    2.039114
C     -0.602700   -0.750611    0.328838
H     -0.960589   -1.800173    0.294120
