16

C      3.433579    0.644464   -0.722862
C      2.392916   -0.061176   -0.372131
C      1.149083   -0.489347   -0.335795
C      0.007522    0.364491   -0.308560
C     -1.188812   -0.173936   -0.133101
C     -2.374144    0.721789   -0.105755
H     -2.942892    0.616459   -1.057509
H     -3.016480    0.491841    0.779473
H     -2.070814    1.784017   -0.030037
N     -1.379943   -1.553908    0.027502
H     -1.933718   -1.936877    0.817575
H     -0.951712   -2.197813   -0.667898
H      0.068609    1.454348   -0.426414
H      1.096634   -1.528577   -0.330725
H      3.748449    0.858268   -1.711180
H      3.961723    1.005957    0.120294
