9

O      2.042227    0.198589    0.348010
C      0.705987   -0.173715    0.223073
N      0.190587   -1.415610    0.342477
N     -1.116256   -1.307170    0.148181
N     -1.469870   -0.071971   -0.088400
H     -2.439340    0.311874   -0.278829
C     -0.349143    0.675416   -0.050012
H     -0.218009    1.740488   -0.194708
H      2.653816    0.042098   -0.449792
