12

C     -0.468586   -0.054064    0.217693
C      0.839783   -0.756650    0.245262
C      1.962951    0.237823    0.246356
O      1.759011    1.428201    0.226831
H      2.968163   -0.163531    0.265539
H      0.969482   -1.420655   -0.621784
H      0.953357   -1.405676    1.150251
C     -1.142433    1.093082    0.192400
H     -1.091707    2.183159    0.177688
C     -1.954793   -0.111062    0.198446
H     -2.421120   -0.509332    1.112571
H     -2.374107   -0.521296   -0.763483
