11

C     -1.131752   -0.914152    0.213603
C     -0.723549    0.359915    0.830912
O     -1.338930    0.862085    1.788194
C      0.432648    1.047380    0.303175
O      0.831631    2.251680    0.874597
C      1.098514    0.531341   -0.711343
O      1.914987    0.186947   -1.730636
H      2.595154   -0.585141   -1.672254
H     -1.436835   -0.782319   -0.859298
H     -1.999338   -1.366005    0.727097
H     -0.242530   -1.591732    0.235954
