10

C     -0.254725    0.963209    0.888080
C     -0.008648    0.009137    0.012571
C     -0.957110   -1.062758   -0.155158
O     -2.000888   -1.062300    0.540423
H     -0.764714   -1.847422   -0.868561
C      1.198987    0.010538   -0.790753
O      2.009694    0.953617   -0.627339
H      1.421674   -0.759549   -1.513452
H     -1.117589    1.021468    1.506259
H      0.473317    1.774060    1.007930
