12

N     -1.535999    0.881485   -0.720729
C     -0.473044    0.001729   -0.402445
O      0.418949   -0.163079   -1.298995
C     -0.408924   -0.686558    0.905726
O      0.744206   -1.493973    0.957266
C      1.981591   -0.889017    0.840990
O      2.021738    0.343474    0.698157
H      2.838801    0.908173    0.602433
H     -0.453590    0.035394    1.755403
H     -1.327117   -1.339437    0.954936
H     -1.564343    1.806902   -0.246597
H     -2.242268    0.594907   -1.398376
