14

O      0.905673   -1.133919    1.244812
C      0.593077   -0.423122    0.090658
C     -0.809241   -0.559266   -0.425292
H     -1.057202   -1.383204   -1.123468
C     -1.849256    0.432776   -0.154980
H     -1.605359    1.418884    0.280437
H     -2.729104    0.460511   -0.821606
O     -1.732588   -0.677899    0.728013
C      1.258609    0.911212   -0.163322
H      0.752462    1.670744   -0.754988
H      1.832981    1.291065    0.699322
N      1.688034   -0.289707   -0.841547
H      2.601751   -0.717259   -0.641506
H      0.150163   -1.000817    1.883468
