13

O     -1.368203    1.565412    0.532464
C     -1.385959    0.161045    0.660275
H     -2.115567   -0.182270    1.406028
C     -1.153358   -0.695697   -0.529545
H     -1.685050   -1.656432   -0.590875
H     -0.917709   -0.206541   -1.493701
C     -0.081855   -0.570427    0.509520
O      1.058709    0.239621    0.197480
C      1.989649   -0.340995   -0.410155
O      3.136481    0.348173   -0.759504
H      3.545756    0.934448   -0.030408
H      0.147735   -1.405500    1.195958
H     -1.170629    1.809164   -0.403050
