13

O      2.427181   -1.186339    0.368424
C      1.275740   -0.490462    0.038954
C      1.336382    0.769785   -0.391864
H      2.336897    1.180556   -0.507049
O      0.237878    1.543303   -0.628855
C     -0.988093    1.180733   -0.292141
H     -1.777961    1.806691   -0.560448
C     -1.123327   -0.076756    0.438446
H     -0.990824    0.227320    1.527593
H     -2.167837   -0.499200    0.358344
C     -0.115878   -1.055222    0.063327
H     -0.171752   -2.038567    0.659485
H     -0.278406   -1.361840   -1.074218
