13

C     -0.770398    1.109291   -0.283750
C     -0.238932   -0.216196    0.208654
N      1.108309   -0.160513    0.723013
O      2.004235    0.249152   -0.172303
H      2.782027    0.634897    0.328466
H      1.194521    0.235050    1.663422
C     -0.714371   -1.440196   -0.430393
H     -1.462390   -1.440731   -1.237304
H     -0.051601   -2.331562   -0.365740
O     -1.169226   -1.030046    0.861855
H     -1.516450    1.539208    0.413832
H      0.042421    1.865246   -0.403599
H     -1.208144    0.986402   -1.306153
