13

C      2.356935   -0.292628   -0.052674
N      1.381588   -0.925187    0.466379
C      0.063669   -0.455364    0.261394
C     -0.213067    0.974421    0.356448
H     -1.235617    1.261437    0.069758
H      0.474955    1.600447   -0.261512
H     -0.079808    1.335293    1.417255
O     -0.841076   -1.277339    0.001943
C     -2.135284   -0.828741   -0.200683
H     -2.688386   -0.197352    0.476623
H     -2.646334   -1.124910   -1.103053
H      2.208840    0.597110   -0.648407
H      3.353584   -0.667188    0.115539
