14

C      2.293287   -0.079088   -0.074222
N      1.144868    0.763140   -0.119616
C     -0.063483    0.342314   -0.066063
C     -1.355586    1.019207   -0.096152
H     -1.544355    1.762455    0.711942
H     -1.510078    1.464279   -1.129301
N     -2.042458   -0.218404    0.011561
H     -2.706734   -0.346506    0.793650
C     -0.806912   -0.910985    0.043964
H     -0.588370   -1.508669    0.960565
H     -0.719498   -1.525538   -0.889328
H      2.542425   -0.496160   -1.075926
H      2.200414   -0.847176    0.697126
H      3.156479    0.581132    0.231800
