11

C     -1.160467    0.755740    0.641550
H     -2.261495    0.890140    0.842686
H     -0.670641    1.696856    0.380892
C     -0.714819   -0.542120    0.190542
C      0.503507   -0.809623   -0.572239
O      0.640656   -1.898600   -1.198956
C      1.589050    0.139995   -0.644921
O      1.570687    1.253506   -0.064545
H      2.502543   -0.056485   -1.216534
H     -1.487181   -1.361172    0.176887
O     -0.511839   -0.068236    1.560466
