13

C     -1.695485    0.588745    0.293458
C     -0.853177   -0.492822   -0.391974
C      0.299870   -0.892373    0.391256
C      1.440767   -0.303997    0.168197
C      2.521126    0.353233   -0.144981
H      3.120488   -0.080847   -0.914865
H      2.689105    1.255174    0.401436
H      0.319158   -1.631003    1.146952
H     -0.564869   -0.053591   -1.384613
H     -1.560290   -1.309954   -0.629827
H     -1.051992    1.165605    0.977718
H     -2.558860    0.099847    0.823239
H     -2.105841    1.301983   -0.451508
