15

C      1.476576    0.624374   -0.884189
C      0.636692    0.007219    0.232337
O      0.431859    0.826336    1.304176
C     -0.953890    0.688304    1.192824
H     -1.295503    1.708603    0.846189
H     -1.541580    0.337521    2.000454
C     -0.775270   -0.268510    0.048190
O     -1.508435   -0.201685   -1.095483
H     -2.356695   -0.757598   -0.987764
C      0.179088   -1.380294    0.206654
H      0.185345   -1.970685    1.135541
H      0.386037   -1.982635   -0.706135
H      2.394662    0.966513   -0.362194
H      1.763826   -0.110023   -1.625262
H      0.977289    1.512559   -1.305339
