14

O      3.668595    0.540609   -0.997375
C      2.678662    0.722300   -0.244537
C      1.528909    0.938903    0.312483
C      0.614231   -0.146675    0.735088
C     -0.399625   -0.476361   -0.335762
N     -1.194912    0.660387   -0.642602
C     -2.430419    0.783626   -0.342375
H     -2.988589    0.029936    0.176038
H     -2.919820    1.708583   -0.637783
H      0.033113   -0.924937   -1.225634
H     -1.090816   -1.240202    0.112203
H      0.061621    0.189435    1.639875
H      1.230543   -1.035791    0.967149
H      1.208505    1.951499    0.483232
