11

C      0.089263    0.473671   -0.910185
C     -0.065591   -0.264698    0.394021
C      1.264563   -0.569404    1.023476
H      2.062582    0.123739    0.696565
O     -0.774342    0.538475    1.288755
H     -0.642523    1.479284    1.005968
C     -0.864409   -1.460591    0.166334
N     -1.491230   -2.418789    0.002113
H      1.048632    0.246814   -1.413036
H     -0.752847    0.292766   -1.593268
H      0.125901    1.558731   -0.660741
