9

N      2.148652    0.456807   -0.398350
C      0.993480   -0.095290   -0.480550
O      0.303175   -1.250983   -0.006032
C     -0.409185   -0.303509   -0.873434
C     -1.493152    0.413566   -0.178831
O     -1.353488    0.890036    0.935903
H     -2.463018    0.542083   -0.643504
H     -0.649076   -0.691786   -1.877047
H      2.922611    0.039077    0.156186
