11

C      1.221841   -0.083745    0.167068
H      1.592291    0.400497    1.181728
H      1.949753   -0.780260   -0.167912
O      1.241858    1.104795   -0.610074
C     -0.012613    1.516251   -0.844779
C     -0.928842    0.563473   -0.090371
H     -1.834399    0.872605    0.406787
N     -0.929735   -0.706031   -0.838412
H     -1.699726   -1.306188   -0.905663
C     -0.132150   -0.558246    0.365875
H     -0.468277   -1.023151    1.335753
