10

C     -0.759840    0.641168    0.353101
H     -1.187356    0.870378    1.306928
C     -0.285726    1.525426   -0.485549
N      1.079801    1.233837   -0.432800
C      1.404486   -0.106760   -0.002240
H      2.471477   -0.283812    0.224710
N      0.556235   -1.064608    0.196122
C     -0.912794   -0.684054   -0.141947
H     -0.783702   -0.773794   -1.291044
H     -1.582582   -1.357782    0.272717
