9

C     -1.368155   -0.464379   -0.187225
C     -0.029915    0.139139   -0.433029
C      1.003263   -0.357763    0.190824
C      2.239078   -0.741391    0.758960
C      3.299323   -1.081121    1.268312
H      0.028359    0.969925   -1.123553
H     -2.078579    0.369854   -0.007819
H     -1.740834   -0.999852   -1.092140
H     -1.352538   -1.200070    0.625672
