11

O      3.099098    0.075600    1.167209
C      2.155599   -0.236204    0.413701
N      1.163049   -0.974246    0.060641
C      0.062847   -0.330138   -0.581535
H      0.137778   -0.337273   -1.704204
C     -1.293632   -0.446253   -0.000463
H     -1.346522   -0.992624    0.966345
H     -2.199060   -0.549107   -0.605814
C     -0.600697    0.868977   -0.004778
H     -0.970828    1.688836   -0.677084
H     -0.207633    1.232433    0.965983
