10

C      2.204484   -0.606430   -0.823024
C      1.115695   -0.622199   -0.356469
C     -0.222874   -0.632232    0.242332
H     -0.316084   -1.475728    0.964547
C     -0.611051    0.677746    0.762052
H     -0.262860    1.332203    1.569698
C     -1.554459    0.776146   -0.123045
H     -2.301909    1.578772   -0.319734
O     -1.239165   -0.441858   -0.652407
H      3.188223   -0.586421   -1.263951
