14

C     -0.685129    1.268904    0.527065
C     -0.439338   -0.137436    0.029361
C      0.806697   -0.811198    0.450087
C      1.975608   -0.242382    0.404972
N      3.093938    0.322494    0.097118
H      3.395940    0.212408   -0.899463
H      0.751186   -1.818170    0.808786
O     -0.762469   -0.264053   -1.358206
C     -1.614081   -0.929480   -0.402722
H     -2.619692   -0.448219   -0.291993
H     -1.551476   -2.017144   -0.496594
H     -1.701185    1.564883    0.199866
H     -0.669400    1.295863    1.643598
H      0.019400    2.003531    0.097998
