13

C      2.253432    0.031772    0.361095
C      0.796007   -0.162059    0.144875
C      0.109962   -1.283845    0.048631
N     -1.256703   -0.960140   -0.156837
H     -1.870851   -1.380324    0.589809
H     -1.533575   -1.385509   -1.092555
C     -1.311499    0.444218   -0.172547
O     -2.488971    1.203535   -0.352146
H     -2.377738    2.219098   -0.286556
N     -0.126736    0.891089    0.001666
H      2.404580    0.967821    0.940269
H      2.705439   -0.798454    0.899779
H      2.696654    0.212798   -0.640998
