12

O      2.056378    0.055802    1.760016
C      0.855891   -0.281286    1.149549
C      0.636764   -0.080940   -0.137869
C     -0.675287   -0.468932   -0.717164
C     -1.316741    0.730685   -1.282890
O     -2.423088    0.685804   -1.828949
H     -0.805256    1.678266   -1.218828
H     -1.333847   -0.938860    0.031959
H     -0.529669   -1.256681   -1.509008
H      1.426911    0.362934   -0.733426
H      0.056652   -0.724330    1.724877
H      2.051292    0.237538    2.761735
