16

C     -1.689834    0.929143   -0.878412
C     -0.464845    0.063435   -0.634816
C     -0.942902   -1.130700    0.178740
H     -1.153358   -2.015370   -0.485218
H     -1.919103   -0.916045    0.679203
H     -0.239806   -1.396600    0.988791
C      0.608153    0.810690    0.017722
C      1.802983    0.280680   -0.025526
C      2.964621   -0.324748   -0.120979
H      3.176540   -0.995146    0.672484
H      3.530043   -0.063127   -0.974747
H      0.559811    1.734497    0.529501
H     -0.155992   -0.304928   -1.656201
H     -1.915975    1.513276    0.047096
H     -1.583737    1.565372   -1.768233
H     -2.576601    0.249569   -1.026528
