15

C      1.774417   -0.224051   -0.124800
C      0.359946   -0.326054   -0.074558
C     -0.423118    0.312681    1.082977
H     -0.452850   -0.327246    1.972316
H     -0.270589    1.380587    1.209159
C     -1.567781    0.043771    0.090983
H     -2.453879    0.599195    0.195790
O     -1.547138   -1.291560   -0.042479
C     -0.351471   -1.628923   -0.135099
C     -0.539310    0.513413   -0.953112
H     -0.740059    0.050819   -1.918120
H     -0.386733    1.595194   -0.910293
H      2.156205   -0.009989   -1.143375
H      2.256268   -1.203809    0.162699
H      2.186091    0.515972    0.587911
