13

C     -1.562866   -0.173643   -0.382230
H     -2.355216   -0.940613   -0.244013
H     -1.909463    0.527408   -1.187946
O     -0.346607   -0.707070   -0.706330
C      0.592840   -0.368576    0.209426
C      1.807351    0.308743   -0.396208
H      2.504198   -0.483556   -0.738563
H      2.330311    0.923418    0.355727
H      1.544122    0.916358   -1.283030
H      1.007380   -1.256452    0.759999
C     -0.090250    0.467394    1.224855
N     -1.440025    0.565504    0.817167
H     -2.081775    0.221085    1.571146
