12

C      2.188930    0.403091    0.188769
O      0.847271    0.084194    0.395409
C      0.218869   -0.790236   -0.290217
N     -1.159325   -1.003189    0.045711
C     -1.915885    0.208241    0.376713
H     -1.315111    0.762093    1.105675
H     -2.882511   -0.050798    0.831995
H     -2.045227    0.750958   -0.589784
H     -1.594137   -1.953222    0.054303
H      2.804835    0.043211    1.052107
H      2.269719    1.525518    0.234667
H      2.582572    0.020139   -0.757578
