12

C      0.268062   -1.013910   -0.140217
H      0.743841   -1.878809   -0.394741
C     -0.605015   -0.072541   -1.035961
O     -0.111621    1.188949   -1.280251
H     -0.599744    1.911998   -0.818708
H     -1.245593   -0.600609   -1.752452
C     -0.853042   -0.467884    0.458065
H     -1.733836   -0.678446    0.927154
C      0.526022   -0.070266    1.082163
O      0.996306    1.195141    0.800769
H      1.799392    1.088030    0.216974
H      0.815227   -0.601651    2.001279
