13

C     -0.474259   -1.252443    0.293239
H     -0.823642   -2.187988   -0.198737
H      0.225860   -1.516236    1.125994
O     -1.512435   -0.503524    0.846190
C     -1.479991    0.774969    0.357303
H     -2.162464    1.607132    0.597713
C     -0.488324    0.946473   -0.492142
H     -0.241682    1.877614   -1.025263
C      0.242490   -0.325789   -0.611447
O      1.574052   -0.194925   -0.330186
C      1.952093    0.701026    0.428646
H      3.005122    0.811747    0.656784
H      0.183179   -0.738056   -1.648094
