10

N      3.129115   -0.575559    0.035461
C      1.872566   -0.404531   -0.198926
C      0.626343   -0.048643    0.004292
N      0.084982    1.286138   -0.083668
H      0.575858    2.152137   -0.314002
C     -1.276296    1.118201    0.221417
C     -1.621846   -0.133372    0.479376
H     -2.605015   -0.503780    0.736912
N     -0.444567   -0.925132    0.355446
H     -0.341141   -1.965459    0.489511
