19

C     -2.370605    0.573143   -0.676019
C     -1.000550   -0.098032   -0.663760
H     -0.458304    0.021792   -1.616031
C     -1.028866   -1.456790    0.008964
H     -1.928721   -1.773279    0.564386
H     -0.469598   -2.268833   -0.489531
C     -0.268202   -0.293377    0.594208
C      1.218587   -0.437095    0.556742
C      1.895483    0.792381   -0.043437
O      3.277387    0.612333   -0.057302
H      3.716773    1.413095   -0.388342
H      1.615337    1.693583    0.518435
H      1.543616    0.880423   -1.104230
H      1.577022   -0.566420    1.605308
H      1.533420   -1.335497   -0.006299
H     -0.668062    0.228399    1.482357
H     -2.357669    1.553878   -1.152094
H     -3.045539   -0.144625   -1.212083
H     -2.781508    0.604921    0.374839
