14

C     -0.729155   -1.626058   -1.110616
C     -0.069166   -0.294686   -0.934665
C      0.262783    0.135185    0.256118
C      0.913802    1.429492    0.516940
O      0.137133    2.240788    1.352124
H     -0.727390    2.406622    0.878753
H      1.893944    1.312120    1.045673
H      1.054234    1.967344   -0.454653
C     -0.037026   -0.729811    1.393233
N     -0.255080   -1.399101    2.291280
H      0.131848    0.302839   -1.789424
H     -0.381216   -2.024370   -2.084771
H     -1.830431   -1.469476   -1.091013
H     -0.364279   -2.250888   -0.268981
