12

O     -0.861226    2.279689   -0.261020
C     -0.535874    1.099019   -0.081906
C     -1.195649   -0.187705   -0.276906
H     -2.080414   -0.247489    0.416902
H     -1.476544   -0.445136   -1.325339
C      0.014327   -0.898648    0.220932
H     -0.137643   -1.513832    1.139957
H      0.455249   -1.533701   -0.601884
C      0.656146    0.416393    0.407832
C      1.932637    0.667848   -0.355587
H      2.379491   -0.258307   -0.772371
H      0.849500    0.621871    1.489391
