11

O      2.165138   -0.316607    0.541748
C      0.825107   -0.040089    0.289661
N     -0.227470   -0.973239    0.235753
H     -0.072349   -1.748190   -0.446359
C     -1.395664   -0.197832   -0.050941
H     -2.078602   -0.260454    0.837229
H     -1.918282   -0.571879   -0.965730
C     -0.990471    1.193829   -0.159520
C      0.301174    1.288912    0.038164
H      0.856444    2.217806    0.011914
H      2.534974   -0.592256   -0.331918
