13

C      2.067728   -0.271936    0.097817
C      0.577781   -0.157081    0.012741
C     -0.296667   -1.037046    0.465615
C     -1.689688   -0.606489    0.214567
H     -2.261242   -1.312779   -0.415340
H     -2.182934   -0.525734    1.207809
N     -1.600074    0.668941   -0.460890
H     -1.993093    1.424466    0.149653
C     -0.207474    0.916552   -0.569766
H      0.202266    1.802347   -1.033193
H      2.448223    0.046090    1.076001
H      2.405304   -1.318335   -0.072132
H      2.529870    0.371004   -0.672882
