8

O     -1.348861   -0.469419   -0.675603
C     -0.344220   -0.349545    0.290955
H     -0.681479   -0.635841    1.306694
C      1.040542   -0.442268   -0.132737
H      1.865615   -1.110465   -0.437837
C      0.577821    0.795319    0.112495
H      0.781215    1.851999    0.142207
H     -1.890633    0.360220   -0.606174
