9

N      3.376646   -0.489602   -0.345103
C      2.233628   -0.333004   -0.230129
N      0.833333   -0.163578   -0.093969
C      0.236473    0.925462    0.173236
C     -1.062826    0.868347    0.255544
H     -1.714682    1.703556    0.474552
N     -1.387369   -0.495675   -0.001559
H     -2.353550   -0.876794   -0.010016
N     -0.161653   -1.138711   -0.222556
