17

C      1.735859   -0.088558   -0.418669
H      1.889101    0.832427   -0.979054
H      2.578612   -0.784384   -0.387234
C      1.079364    0.158516    0.942786
H      1.694668    0.357471    1.771383
C     -0.038137    1.078806    0.549709
H      0.407589    1.975657    0.078689
H     -0.764814    1.283098    1.333945
C     -0.642485    0.232922   -0.589817
C     -1.876357   -0.415946   -0.004190
H     -2.268460    0.189554    0.856994
H     -1.633364   -1.431992    0.423558
H     -2.680102   -0.569371   -0.725505
H     -0.820515    0.814270   -1.484031
C      0.421854   -0.814358   -0.695105
H      0.396095   -1.556979   -1.442418
C      0.521092   -1.261134    0.768960
