12

C     -1.434826    0.440256   -0.136130
C     -0.575091   -0.704441    0.224485
C     -0.991985   -1.924236   -0.037325
C      0.727293   -0.444019    0.869070
C      1.611116    0.387701    0.009027
O      1.450597    1.588583   -0.005787
H      2.382988   -0.057628   -0.593186
H      0.613377   -0.003943    1.888808
H      1.289617   -1.406830    1.045568
H     -2.119109    0.618592    0.729544
H     -0.833083    1.339484   -0.363444
H     -2.120894    0.166479   -0.982860
