14

O      2.794870    0.623548    0.291751
C      1.560150    0.004409    0.060568
C      0.987154   -1.121099    0.440340
H      1.289953   -1.941877    1.062216
N     -0.170478   -0.816198   -0.290987
H     -0.447564   -1.482832   -1.040281
C     -1.249619   -0.188221    0.417647
H     -2.261883   -0.392075    0.076309
H     -1.082537   -0.306287    1.522895
C     -0.680589    1.160860   -0.038570
H     -1.367977    1.667032   -0.739143
H     -0.309004    1.792231    0.787439
C      0.400232    0.432304   -0.743228
H      0.537293    0.568206   -1.806957
