12

N      2.085429   -0.429964   -0.059850
C      0.666361   -0.379609   -0.085378
O     -0.150116   -1.285628   -0.353232
C     -1.459941   -0.852780   -0.272178
H     -2.366491   -1.443596   -0.457166
C     -1.504197    0.418147    0.070723
O     -2.641173    1.212589    0.254450
C     -0.103222    0.844158    0.224739
H      0.173938    1.660759   -0.480873
H      0.123306    1.149834    1.275196
H      2.596871   -0.345792   -0.942372
H      2.579236   -0.548119    0.825939
