14

C     -2.359319    0.173155    0.285573
C     -0.943627    0.517225    0.090208
C      0.187341   -0.379953    0.427857
N      1.438849    0.271619    0.108607
C      2.697457   -0.342929    0.322571
O      2.691163   -1.511798    0.815310
H      3.623226    0.171530    0.072711
H      1.438831    1.233407   -0.296631
H      0.044956   -1.302846   -0.207079
H      0.150707   -0.730486    1.480777
O     -0.677240    1.607874   -0.378719
H     -2.572544   -0.908526    0.215038
H     -2.955924    0.666142   -0.503165
H     -2.763875    0.535585    1.268254
