8

O     -0.700058   -1.105393   -0.807876
C     -0.319540   -0.213067    0.179002
N      1.008550   -0.178522    0.674879
N      1.924848    0.477024    0.075223
H      2.884152    0.463043    0.491451
N     -1.166144    0.578045    0.641360
N     -1.985801    1.459311    0.927422
H     -1.646007   -1.480442   -0.852627
