11

O     -1.178352   -0.275584   -0.591957
C     -0.169228   -0.017247    0.100922
C      1.154865    0.101623   -0.470271
C      2.230725    0.371473    0.230896
H      3.180040    0.443878   -0.264800
H      2.204773    0.525666    1.294769
H      1.249101   -0.045757   -1.558980
H     -0.288036    0.122021    1.160619
C     -2.452162   -0.394146   -0.070728
H     -3.087732    0.475893   -0.053430
H     -2.843992   -1.307820    0.318791
