13

O      2.147359   -0.181883    1.106941
C      0.762343   -0.269255    0.799607
C      0.490556    0.552440   -0.433882
C     -0.918032    0.521267   -0.837517
O     -1.311078    1.204292   -1.836814
C     -1.897475   -0.268974   -0.133546
O     -1.685572   -0.998577    0.861557
H     -2.963524   -0.280463   -0.448516
H      1.140711    0.096050   -1.245121
H      0.850210    1.607164   -0.278043
H      0.578172   -1.342451    0.641142
H      0.165211    0.082176    1.664585
H      2.641118   -0.721785    0.424093
