15

C     -1.518046   -0.648548   -0.770526
N     -1.182818   -0.145715    0.535115
C      0.129253    0.450421    0.591469
C      1.211472   -0.550881    0.221906
O      2.445445    0.058247    0.288538
H      2.823569    0.062789    1.208129
H      1.040384   -0.823025   -0.847884
H      1.152447   -1.453865    0.823637
N      0.174930    1.578342   -0.237585
C      0.192951    2.509911   -0.927353
H      0.297638    0.764436    1.646991
H     -1.868443    0.617482    0.752191
H     -1.239128    0.038279   -1.588933
H     -2.619308   -0.822476   -0.785132
H     -1.040347   -1.635399   -0.910564
