11

C      1.325676    0.487896   -0.016683
O      1.343650    1.688943    0.164806
C      0.147486   -0.274047    0.456842
C     -1.085908    0.321442   -0.164135
H     -1.384992    1.248752    0.392829
H     -1.958488   -0.379238   -0.109691
H     -0.875363    0.600246   -1.207329
O      0.261227   -1.632773    0.183847
H      0.083229   -1.851910   -0.765740
H      0.017609   -0.185942    1.566755
H      2.125874   -0.023369   -0.501501
