9

C     -1.581423    0.014683   -0.543826
O     -0.275102   -0.205135   -0.024062
C      0.691901    0.221851   -0.674949
N      1.992668    0.007261   -0.164961
H      2.458308   -0.891273   -0.375506
H      2.453763    0.737276    0.401459
H     -2.155847   -0.933383   -0.366296
H     -2.007554    0.851379    0.015727
H     -1.576714    0.197342   -1.633243
