14

C     -1.029205   -0.860750   -0.162298
H     -0.389274   -1.697578   -0.518481
H     -1.828696   -1.258397    0.534088
C     -0.352581    0.286044    0.471572
C      1.134238    0.341706    0.395694
C      1.911848   -0.712555    0.247891
H      1.522903   -1.713118    0.169405
H      2.979441   -0.574529    0.203101
H      1.563285    1.344737    0.472309
H     -0.695214    0.581283    1.485969
C     -1.037341    1.067291   -0.610198
H     -1.808675    1.762433   -0.214604
H     -0.361180    1.512737   -1.368903
O     -1.609549   -0.079305   -1.105544
