13

O      1.778123   -0.307801   -0.801777
C      0.657297   -0.022220   -0.355486
C     -0.607097   -0.830959   -0.356369
H     -0.497383   -1.684052    0.360005
H     -1.062035   -1.058747   -1.318947
N     -1.014622    0.386059    0.286730
H     -1.871626    0.604182    0.624737
C      0.220155    0.320708    1.027122
H      0.281618   -0.548313    1.723118
H      0.526727    1.285527    1.437687
C     -0.274982    1.086190   -0.730631
H     -0.688019    1.091537   -1.736849
H      2.551844   -0.322111   -0.159339
