8

N      2.297032   -0.307877   -0.549217
C      1.132809   -0.490930   -0.081495
C     -0.080722   -0.336057    0.405346
C     -1.453413    0.170227    0.364927
H     -2.220416   -0.325367   -0.256771
H     -1.525069    1.279883    0.520710
O     -0.950626   -0.598110    1.420356
H      2.800404    0.608232   -0.495021
