15

C      0.621556    1.496570    0.312801
C      0.050065    0.108681    0.279928
C      1.064153   -1.004951    0.222287
O      1.707482   -0.946911   -1.022880
H      1.046307   -1.326475   -1.674306
H      1.779603   -0.831158    1.058571
H      0.572848   -1.966971    0.391342
C     -1.056321   -0.145142    1.279861
C     -1.985748   -0.239785    0.088558
H     -2.438449   -1.258824    0.030422
H     -2.775161    0.564225    0.075659
O     -0.907631   -0.001732   -0.727167
H      1.709984    1.417908    0.537196
H      0.132599    2.107548    1.098059
H      0.478714    2.027017   -0.656924
