14

O      2.763785   -0.577169    0.354715
C      2.145259    0.644928    0.498779
C      0.931857    0.802431    0.532431
N     -0.106068   -0.077121    0.388726
C     -1.349921   -0.949998    0.664076
H     -1.549415   -1.432235    1.557352
C     -2.411533   -0.033724   -0.099583
H     -2.171394    1.077853    0.046157
H     -3.359876   -0.360250   -0.355547
C     -1.121529   -0.807688   -0.594658
H     -0.852504   -1.012909   -1.548172
H      0.643350    1.937873    0.654650
H      2.842762    1.545270    0.567768
H      3.595227   -0.757262    1.034618
