11

C     -1.183951   -0.210452   -0.484910
C     -0.348748    0.195144    0.705477
C      0.981680    0.600606    0.168625
O      1.274093    1.800181    0.088169
C      1.904882   -0.407248   -0.250768
N      2.671420   -1.228483   -0.598819
H     -0.835031    1.013035    1.283446
H     -0.178460   -0.686207    1.346625
H     -0.619337   -0.301659   -1.409358
H     -2.056090    0.466323   -0.555267
H     -1.610459   -1.241239   -0.293221
