17

C      2.118771   -0.166663   -0.577873
O      1.460588    0.965553   -0.208874
C      0.416938    0.777800    0.626038
C     -0.706949   -0.045649    0.173861
C     -0.633046   -1.481251   -0.173133
H     -0.642450   -1.687833   -1.249828
H     -1.599645   -1.981668    0.194713
H      0.196725   -1.929733    0.396037
C     -1.908974    0.519957    0.103619
O     -2.122962    1.849571    0.442389
H     -1.722246    2.624901   -0.092196
H     -2.724981   -0.093282   -0.229129
H      0.747328    0.297467    1.615701
H      0.047709    1.793610    0.947287
H      2.484981   -0.720384    0.324597
H      1.503745   -0.821385   -1.169281
H      3.084468    0.098989   -1.123928
