17

C      2.171626    0.257850   -0.744836
C      1.251698   -0.715800   -1.295182
C      0.158651   -1.022236   -0.616596
C     -0.091186   -0.380174    0.654457
C     -1.395017    0.367463    0.556700
C     -2.410496    0.097346    1.342529
H     -2.346784   -0.672988    2.089328
H     -3.321355    0.650798    1.242754
O     -1.524830    1.373802   -0.395399
H     -1.260500    2.319976   -0.248097
H     -0.248840   -1.160615    1.426488
H      0.650848    0.309653    1.034956
H     -0.557281   -1.743604   -0.988013
H      1.487602   -1.173806   -2.261678
H      2.729591   -0.214489    0.115305
H      2.955825    0.493813   -1.490932
H      1.750446    1.213011   -0.421784
