16

C      2.454196   -0.418854   -0.327827
O      1.532298   -0.349227    0.739085
C      0.297987    0.308726    0.589466
C     -0.842199   -0.077506    0.114609
C     -1.402795   -1.338756   -0.481703
H     -1.591896   -1.109231   -1.550285
H     -0.674673   -2.143886   -0.330199
H     -2.393289   -1.546902   -0.025456
C     -1.451467    1.214023    0.368177
H     -1.787126    1.716492   -0.568392
H     -2.281622    1.084015    1.117553
N     -0.193203    1.581329    0.872245
H      0.253440    2.434524    1.295968
H      3.344270   -0.974645    0.007027
H      1.930130   -0.963124   -1.164390
H      2.805949    0.583022   -0.655879
