8

C     -1.166356   -0.054747   -0.732184
C      0.010160   -0.210083    0.174644
O      0.827150    0.752682    0.330663
C      1.864664    0.496431    1.183133
N      2.761849    0.291397    1.903095
H     -1.410002    1.034011   -0.846463
H     -2.024028   -0.563150   -0.288168
H     -0.863437   -0.417706   -1.724721
