10

C      0.160858    0.093727   -0.004343
C      1.557414   -0.147892    0.304313
O      2.388131    0.788258    0.208521
H      1.931748   -1.113284    0.620069
C     -0.515295    1.144693   -0.395405
H     -0.336110    2.195540   -0.635680
O     -1.682358    0.413805   -0.412022
C     -1.049805   -0.761920    0.003587
H     -1.052419   -1.572868   -0.721995
H     -1.402165   -1.040060    1.032955
