13

C      0.388673    1.639550   -0.113928
C      0.169767    0.344143   -0.091353
C      1.270497   -0.655418   -0.175195
H      1.148443   -1.281536   -1.071685
H      2.255131   -0.171392   -0.227005
H      1.232284   -1.357032    0.696221
C     -1.233378   -0.126124    0.022345
O     -1.386957   -0.891460    1.171898
H     -1.444343   -1.860845    0.962668
H     -1.933432    0.720311   -0.028724
H     -1.417483   -0.750496   -0.899176
H     -0.430536    2.332210   -0.051328
H      1.381334    2.058089   -0.194738
