14

C      1.747038    0.022807    0.441503
C      0.655332    0.028487   -0.624157
H      1.054382   -0.476621   -1.532524
C     -0.492694   -0.683963   -0.042156
N     -0.535900   -1.912906    0.357045
H     -1.406861   -2.329899    0.759820
C     -1.591732    0.259913    0.004714
H     -2.601710    0.045902    0.387173
C     -1.133422    1.386397   -0.491909
H     -1.793740    2.266337   -0.561933
O      0.168197    1.303398   -0.872207
H      2.640793    0.565915    0.103671
H      1.360468    0.550271    1.341697
H      1.929851   -1.026040    0.729264
