14

O      2.361424   -1.054354   -1.078039
C      1.467014   -0.575287   -0.169901
H      1.662798   -0.888352    0.838597
N      0.052724   -0.854433   -0.623155
C     -0.903507   -0.563653    0.519817
H     -1.102558   -1.277925    1.282373
C     -0.505084    0.811615    0.532499
H     -0.339471    1.547546    1.255305
C     -1.880429    0.491548    0.045563
H     -2.098675    0.548781   -1.035238
H     -2.767754    0.564810    0.714573
C      0.529057    0.466697   -0.548591
H      0.609705    1.187222   -1.326988
H      2.914754   -0.404217   -1.555347
