8

N      3.173154    0.114167   -0.033658
C      1.906063    0.209220    0.036494
C      0.677513   -0.225259    0.033055
C     -0.781950   -0.401348   -0.011759
O     -1.418575    0.748199   -0.507204
H     -1.407555    1.463773    0.187622
H     -0.995229   -1.247537   -0.696789
H     -1.153421   -0.661214    0.992238
