14

C      1.843287   -0.201178   -0.282089
C      0.550573    0.412076   -0.686878
O      0.468468    1.215536   -1.600879
C     -0.634934   -0.006952    0.103051
N     -0.936443   -1.440681    0.140513
H     -0.138640   -2.034173   -0.064335
H     -1.719569   -1.570084   -0.523839
C     -1.563251    0.981746    0.600963
H     -2.557264    0.812783    1.014430
H     -1.401097    2.082278    0.260609
O     -0.511702    0.523290    1.417933
H      2.653230    0.517631   -0.609612
H      1.976995   -0.075236    0.853141
H      1.970347   -1.217038   -0.623006
