19

C     -1.994770    1.172988   -0.274565
C     -1.129030   -0.026672    0.067077
C     -1.849886   -1.334093   -0.240011
H     -2.413599   -1.682474    0.627604
H     -2.434313   -1.172197   -1.152405
H     -1.076730   -2.105651   -0.491781
C      0.094711    0.003729   -0.820883
C      1.263427   -0.533382    0.006205
C      2.323966    0.574051   -0.037334
O      3.452696    0.244205    0.667447
H      4.222377    0.297311    0.058760
H      1.808540    1.487007    0.319728
H      2.539010    0.711124   -1.133231
H      0.991178   -0.725608    1.043804
H      1.662672   -1.472712   -0.444053
H     -0.879228    0.066341    1.142978
H     -2.766106    0.920804   -1.037816
H     -1.323002    1.985337   -0.644241
H     -2.491911    1.589894    0.638829
