14

O     -1.697577    0.944481    0.707600
C     -0.929168   -0.186115    0.959931
H     -0.949930   -0.510337    2.018038
C     -1.025197   -1.232220   -0.132183
H     -1.223573   -2.258258    0.238083
H     -1.582449   -0.995991   -1.062103
C      0.242787   -0.528850    0.124189
C      0.758338    0.439295   -0.876287
C      1.992195    0.896762   -0.802897
H      2.634153    0.561120   -0.003431
H      2.328190    1.599080   -1.549641
H      0.075769    0.757273   -1.674670
H      1.041918   -1.104951    0.641624
H     -1.665456    1.618710    1.411745
