10

N     -1.400774    1.031917    0.658901
C     -0.351207    0.268917    0.074806
N      0.474757   -0.383009    0.827469
N      1.492997   -1.123355    0.303328
H      2.453953   -0.784976    0.234067
H      1.306012   -2.094041   -0.055969
N     -0.254246    0.250217   -1.283565
C     -0.183720    0.218680   -2.476993
H     -1.586771    1.987787    0.282203
H     -1.951002    0.627864    1.435753
