15

O      0.569541    0.249388   -1.474498
C      0.902668    0.036925   -0.263262
N      2.203639   -0.426608    0.013171
C      3.168404   -0.127001   -0.764282
H      4.167928   -0.471928   -0.569012
H      2.370895   -1.007585    0.844905
N     -0.043687    0.273194    0.763090
C     -1.377125    0.743686    0.535913
C     -2.089052   -0.282058   -0.356020
H     -3.182094   -0.097757   -0.270154
H     -1.717842   -0.223960   -1.393250
H     -1.886368   -1.267454    0.113720
H     -1.954597    0.752927    1.481469
H     -1.401564    1.761315    0.051070
H      0.269254    0.086916    1.740240
