18

C      2.423943   -0.693706    0.044528
N      1.629659    0.359874   -0.558875
C      0.317749   -0.054476   -0.865413
O     -0.023662   -0.155625   -2.016274
C     -0.650790   -0.368383    0.192749
C     -1.993207   -0.790689   -0.363137
H     -2.585208    0.084006   -0.695074
H     -2.549116   -1.279597    0.469530
H     -1.831880   -1.499655   -1.214419
C     -0.903084    0.929343    0.967649
H     -1.760298    0.713135    1.637872
H      0.015242    1.205922    1.503862
H     -1.220900    1.691534    0.218401
H     -0.287856   -1.101174    0.932564
H      1.560391    1.141930    0.125706
H      2.160009    0.714451   -1.374732
H      3.492460   -0.443419   -0.108817
H      2.206549   -0.853358    1.103880
