11

O     -0.508251    1.099765   -1.295347
C     -0.254414    0.050014   -0.388513
C      1.131677    0.063952    0.140382
N      2.063946   -0.684661   -0.314723
H      2.988893   -0.583722    0.136244
H      1.336371    0.754136    0.954582
C     -1.303148   -0.017459    0.680942
H     -1.741102    0.492710    1.513819
C     -1.161355   -1.031184   -0.197570
H     -1.608797   -2.006515   -0.420454
H     -0.943820    1.862964   -0.809362
