15

C     -1.160690   -0.812294   -0.085011
H     -1.290048   -1.137414   -1.144588
H     -2.014607   -1.101623    0.540783
C      0.199056   -1.167057    0.437382
H      0.112353   -1.612766    1.447165
H      0.815462   -1.756980   -0.246986
N      0.584213    0.227306    0.511521
C      1.684377    0.524398   -0.383973
H      2.398255    1.179531    0.148391
H      1.361182    1.049262   -1.301400
H      2.157977   -0.435995   -0.722948
C     -0.715632    0.624691    0.009218
O     -1.423675    1.267727    1.025857
H     -2.000962    1.991239    0.704268
H     -0.707262    1.159977   -0.939680
