13

N      1.038186   -0.769025   -0.057475
H      1.215034   -0.994040   -1.113478
H      1.784251   -1.156510    0.508399
C      0.984804    0.630914   -0.033140
O      1.950461    1.345020   -0.116101
C     -0.436345    1.070143    0.033967
H     -0.731169    1.877944   -0.591524
H     -0.587603    1.362777    1.147773
C     -1.197042   -0.199783   -0.204884
H     -2.176643   -0.300014    0.201113
H     -1.240462   -0.283083   -1.373954
C     -0.268845   -1.302269    0.215888
H     -0.334626   -1.282074    1.383415
