12

N      2.451068   -0.053522   -0.095702
C      1.029539   -0.126038   -0.149349
C      0.168336    0.766873    0.364678
C     -1.011510    0.519336    0.356566
O     -1.994924    1.207414    0.925963
H     -2.374111    1.308675    1.841614
C     -1.104993   -0.739059   -0.488210
H     -1.823482   -1.446183   -0.092672
H     -1.606768   -0.396925   -1.459568
O      0.181345   -1.065655   -0.716242
H      3.168063   -0.473823    0.477858
H      2.917437    0.498907   -0.964937
