10

N      1.831732   -0.158083    0.038573
C      0.406088   -0.236332    0.104686
C     -0.531022    0.663107   -0.294223
H     -0.328682    1.624985   -0.745942
N     -1.738069    0.141607   -0.026453
H     -2.687257    0.578696   -0.210022
C     -1.483346   -1.056790    0.525757
O     -0.216196   -1.270058    0.598566
H      2.365344   -0.913085   -0.446468
H      2.381407    0.625953    0.455526
