16

C     -0.225228    1.459275   -0.821168
C      0.172154    0.404951    0.079335
C      1.442799    0.163571    0.195537
C      2.738642   -0.105111    0.228120
H      3.071798   -0.816108   -0.476750
H      3.236226    0.447778    0.969616
C     -0.687961   -0.455816    0.905091
C     -1.608329   -1.201901   -0.073120
H     -1.708711   -0.636624   -1.007460
H     -1.175841   -2.218450   -0.281807
H     -2.620937   -1.326506    0.360375
H     -0.162043   -1.218688    1.474667
H     -1.375891    0.136030    1.540491
H     -1.325730    1.376593   -1.051857
H     -0.126392    2.446735   -0.290607
H      0.355444    1.544270   -1.750463
