18

C     -2.760647    0.376534   -0.025295
C     -1.615974   -0.605027   -0.323060
C     -0.345039    0.149043   -0.008116
N      0.820987   -0.676936   -0.263073
C      2.136440   -0.141627   -0.116564
O      3.199052   -0.792111   -0.712822
H      3.713248   -1.454261   -0.144382
C      2.355185    0.952250    0.569116
H      3.331463    1.414503    0.719191
H      1.530153    1.494041    1.057107
H      0.645859   -1.662630   -0.548344
H     -0.238140    1.087009   -0.564147
H     -0.372943    0.412330    1.095857
H     -1.665789   -0.916447   -1.398177
H     -1.722382   -1.526109    0.279594
H     -2.548688    0.958274    0.876125
H     -3.728361   -0.165707    0.002473
H     -2.734423    1.096873   -0.895372
