12

O     -0.926446    1.662567    0.053292
C     -0.516877    0.349635    0.376128
H     -0.775003    0.088712    1.430942
C     -0.861484   -0.639853   -0.659459
H     -1.481483   -0.176462   -1.465423
H     -1.359702   -1.550482   -0.228425
O      0.448277   -0.801964   -1.008653
C      0.854903    0.103966   -0.071565
C      1.779530   -0.586324    0.920126
H      1.571989   -1.682779    0.979782
H      1.377990    1.009269   -0.465977
H     -0.111694    2.223715    0.139231
