16

C     -1.910928    0.443849    0.341055
H     -1.856120    0.928507   -0.790890
H     -2.729320    0.734200    0.728301
C     -0.563617    0.982376    0.885765
C      0.480729    0.149401    0.262575
C     -0.175782   -1.199964    0.173792
H      0.051348   -1.890766    0.918939
H      0.105076   -1.684478   -0.852075
N     -1.581353   -0.954830    0.017379
H     -2.161324   -1.402951   -0.547925
C      1.264099    0.754061   -0.818293
H      1.056137    1.885213   -0.950010
H      1.484395    0.202289   -1.699092
C      1.871959    0.361560    0.535637
H      2.118467    1.192085    1.252367
H      2.546233   -0.500554    0.542477
