13

C      2.158385    0.360373    1.112445
O      0.773521    0.135539    1.304859
C     -0.003142    0.255703    0.155463
C     -1.095905   -0.500710    0.013439
C     -1.927523   -0.381834   -1.201684
H     -1.382678   -0.922131   -2.014302
H     -2.936314   -0.806312   -1.021390
H     -2.085874    0.667964   -1.524416
H     -1.312677   -1.179431    0.827956
H      0.251954    0.949516   -0.635827
H      2.671657    0.235161    2.106864
H      2.603071   -0.256208    0.337468
H      2.285524    1.442370    0.823612
