14

N     -1.532376   -1.843277   -0.311357
C     -0.675939   -0.824973    0.178429
C      0.022729    0.064037   -0.772105
H      0.436343   -0.371548   -1.714968
C      0.905701    1.110648   -0.191484
N      2.133390    1.418732    0.449067
H      2.657729    2.245901    0.140447
H      2.519892    0.837425    1.218445
C     -0.281213    1.486641   -0.712807
H     -0.922860    2.334427   -0.900945
N     -0.527555   -0.699809    1.450821
H     -0.990206   -1.291389    2.147302
H     -2.459607   -2.015532    0.150373
H     -1.286029   -2.451283   -1.131217
