13

C     -1.847551   -0.032255    0.110489
C     -0.453295    0.365555    0.530094
H     -0.471401    0.968440    1.455987
O      0.366058   -0.761302    0.683744
C      1.470228   -0.710818   -0.153763
N      2.497768   -1.684560   -0.253616
H      3.494791   -1.394021   -0.037184
C      1.350759    0.425519   -0.823285
N      0.211089    1.155864   -0.479753
H     -0.085692    2.060928   -0.866204
H     -2.484687    0.866209    0.164443
H     -2.238658   -0.760425    0.829271
H     -1.809409   -0.499135   -0.875736
