15

C      2.435298    0.117798   -0.376994
C      0.994720    0.471588   -0.163606
O      0.168882   -0.661482    0.006379
C     -1.182530   -0.445569    0.210758
C     -1.956927   -1.460722    0.521103
H     -3.020494   -1.394296    0.699511
H     -1.513497   -2.437379    0.607738
N     -1.796262    0.833098    0.103277
H     -2.627199    1.012339   -0.513414
H     -1.454741    1.678964    0.635904
H      0.625132    1.003811   -1.067520
H      0.916378    1.185495    0.684979
H      2.927214    1.016431   -0.843386
H      2.946710   -0.171138    0.566627
H      2.537316   -0.748938   -1.071356
