15

C      2.502609    0.151504    0.032987
C      1.091844   -0.319888    0.175907
C      0.093850    0.160844   -0.534445
C     -1.293720   -0.343346   -0.353463
O     -1.343945   -1.508723    0.381087
H     -1.987679   -1.439214    1.137625
C     -2.133871    0.725216    0.275118
O     -2.240649    1.833295   -0.196213
H     -2.665917    0.495420    1.187106
H     -1.711331   -0.526225   -1.357702
H      0.291139    0.931425   -1.256728
H      0.876812   -1.096501    0.900065
H      2.512176    1.213493   -0.332347
H      3.083326   -0.463566   -0.665175
H      2.925356    0.186264    1.059278
