10

O      3.143052    0.107586   -0.872534
C      2.145632    0.284207   -0.128769
C      1.087880    0.091696    0.613046
O      1.277099   -0.209775    1.956232
N     -0.237017    0.175125    0.116194
C     -1.313414    0.805789   -0.282294
H     -1.717778    1.800083   -0.425035
C     -1.388077   -0.622671   -0.323485
H     -1.830947   -1.191544    0.540117
H     -1.166430   -1.240496   -1.193472
