14

C      1.305375   -0.827220   -0.506640
H      1.868465   -1.007690   -1.438412
H      1.463553   -1.524458    0.357435
C      0.034353   -0.061027   -0.546776
C     -1.026711   -0.441800    0.443798
C     -2.227480    0.394175    0.293333
O     -2.238354    1.254486   -0.563881
H     -3.102705    0.274279    0.915543
H     -0.613637   -0.418236    1.480936
H     -1.274369   -1.521303    0.261820
H     -0.361537    0.169882   -1.561128
C      1.252246    0.638095   -0.069361
N      1.960068    1.595824    0.376993
H      2.960733    1.474991    0.556341
