11

C      1.461062    0.338164   -0.040110
C      0.249236   -0.473470    0.363444
H      0.520481   -1.334470    0.980687
C     -0.825461    0.394398    0.966408
C     -1.655222   -0.043426   -0.227082
H     -2.537598   -0.599270    0.119659
H     -1.882243    0.818501   -0.901220
O     -0.592629   -0.815182   -0.693880
H      1.240884    0.808362   -1.038334
H      2.366737   -0.267027   -0.102559
H      1.654753    1.173420    0.668816
