8

O     -2.166909    0.605313   -0.649289
C     -1.468429   -0.285899   -0.147704
N     -0.081835   -0.082005    0.019501
C      1.051274    0.782940   -0.137079
H      1.424543    1.740731   -0.471185
C      1.220535   -0.435601    0.405467
H      1.919120   -1.114478    0.817921
H     -1.898298   -1.211002    0.162367
