12

O      2.559485    0.321741   -0.447463
C      1.489553   -0.516587   -0.200080
C      0.282590   -0.024404   -0.015271
C     -0.642605    1.100071    0.077410
H     -0.981828    1.630906   -0.851397
H     -0.623539    1.794295    0.947744
C     -1.176355   -0.251391    0.262006
O     -1.835896   -0.869955   -0.773477
H     -2.405578   -1.623620   -0.488549
H     -1.465694   -0.532854    1.304267
H      1.650612   -1.584918   -0.159015
H      3.149254    0.556716    0.343823
