11

C     -1.187928   -0.846354   -0.248837
N     -0.422800    0.358756   -0.386628
C      0.666869    0.460064    0.536674
C      1.736692   -0.436102    0.103005
N      2.580106   -1.163178   -0.230105
H      0.366835    0.247722    1.588429
H      0.994533    1.532277    0.541257
H     -1.034334    1.213436   -0.286541
H     -0.033823    0.376509   -1.353267
H     -1.659785   -0.944397    0.752499
H     -2.006364   -0.798733   -1.016487
