14

C      0.830854   -1.498818    0.540453
N      0.100207   -0.320737    0.137812
C     -1.210146    0.012344    0.652349
H     -1.956359    0.192691   -0.144429
H     -1.569294   -0.744811    1.378561
H     -1.121051    0.971028    1.219709
C      0.640330    0.470423   -0.719341
C     -0.066462    1.690248   -1.164579
N      0.507619    2.453903   -2.021931
H     -1.030947    1.902781   -0.763270
H      1.616963    0.221604   -1.102350
H      1.649387   -1.178367    1.248301
H      1.370427   -1.932520   -0.335413
H      0.238471   -2.239770    1.074127
