9

O      0.913837    0.547948    1.174953
C      0.173031    0.718679    0.042699
H      0.209170    1.659557   -0.478487
C      0.964803   -0.399108    0.131026
H      1.945261   -0.609570   -0.385013
O     -0.055743   -1.268471    0.013186
C     -0.989956   -0.219334   -0.081510
H     -1.719216   -0.195636    0.687335
H     -1.441188   -0.234065   -1.104189
