10

O      1.503193    1.694711   -0.136331
C      0.773573    0.663812   -0.031574
C     -0.690433    0.585225   -0.129142
H     -0.916254    0.904147   -1.190415
H     -1.209004    1.254107    0.592408
N     -1.007180   -0.797038    0.060903
H     -1.987150   -1.234479    0.055104
C      0.072480   -1.453064    0.243285
N      1.229801   -0.656926    0.206890
H      2.230975   -0.960495    0.328872
