10

N      2.092498   -0.067980    0.050573
C      0.664659   -0.036169    0.015919
N     -0.137644   -1.017167    0.295790
N     -1.464078   -0.624201    0.154684
N     -2.534924   -1.282137    0.333010
C     -1.408784    0.745053   -0.254671
H     -2.295188    1.363164   -0.455497
N     -0.177195    1.058846   -0.327036
H      2.574853    0.218607    0.931650
H      2.685801   -0.358017   -0.744420
