15

C      2.156166    0.237620    0.082472
O      1.362240    0.112036   -1.035790
C      0.130505   -0.362549   -0.725185
C     -0.660085    0.504185    0.215058
C     -2.005533   -0.225281    0.388185
H     -2.709219    0.418806    0.916486
H     -1.758781   -1.166628    0.911597
H     -2.319217   -0.504761   -0.639648
H     -0.164017    0.598227    1.204817
H     -0.887594    1.494780   -0.214407
H     -0.519845   -0.514521   -1.617505
H      0.164882   -1.394673   -0.252381
H      1.709591    0.948715    0.776008
H      3.189353    0.582756   -0.168076
H      2.311554   -0.728711    0.611467
