10

O      1.125610    2.012608    0.473710
C      0.688204    0.782060    0.244714
C      1.335797   -0.455546    0.196388
H      2.322743   -0.588341    0.348071
O      0.282880   -1.467749   -0.005900
C     -0.821002   -0.973506   -0.132553
H     -1.707350   -1.618496   -0.303647
C     -0.835247    0.460655   -0.079986
H     -1.471787    1.050407    0.508250
H     -0.919848    0.797907   -1.249046
