19

C     -1.179300   -1.710977   -0.079603
C     -0.091952   -0.730116    0.169047
C     -0.354658    0.729467    0.309549
C     -0.989847    1.313345   -0.923498
O     -1.191436    2.671271   -0.688524
H     -1.257365    2.827677    0.272033
H     -1.972166    0.845115   -1.131914
H     -0.335551    1.238090   -1.814479
H      0.529468    1.298738    0.590213
H     -1.115576    0.850160    1.135652
C      1.155840   -1.169185    0.269651
C      2.235973   -0.184020    0.517902
H      2.122314    0.283777    1.528460
H      3.220899   -0.709567    0.431358
H      2.257241    0.599235   -0.279626
H      1.366914   -2.248446    0.168031
H     -2.131217   -1.412713    0.420115
H     -0.940604   -2.718294    0.286438
H     -1.328976   -1.773558   -1.180806
