17

C      2.371460   -0.097714    0.069656
C      1.493206   -0.591661   -1.041933
C      0.073497   -0.295744   -0.863351
H     -0.507293   -0.695408   -1.725279
C     -0.525206   -0.938159    0.422489
H     -0.641725   -2.020890    0.359434
H      0.033432   -0.575204    1.298710
C     -1.912048   -0.156232    0.439125
H     -2.294717   -0.197610    1.474624
H     -2.582846   -0.663897   -0.270272
C     -1.421775    1.066858   -0.019644
H     -1.944381    2.051060    0.285243
C     -0.349492    1.097475   -0.603998
H      0.307371    1.993423   -0.884767
H      3.158739    0.605788   -0.298703
H      2.938355   -0.975743    0.468168
H      1.803423    0.393661    0.890498
