11

O      2.725468    0.666253    0.472629
C      1.997417    0.009412   -0.296829
C      0.528295   -0.033551   -0.141031
N     -0.318873   -0.664958   -0.859372
C     -1.639169   -0.431470   -0.356857
H     -2.008255   -1.430767    0.006454
H     -2.328258   -0.003814   -1.111294
N     -1.436462    0.438264    0.772446
C     -0.183335    0.681795    0.915177
H      0.245378    1.310924    1.691150
H      2.417793   -0.542087   -1.092473
