14

C      2.472127    0.293856    0.546220
O      1.477736   -0.389507   -0.146155
C      0.222819   -0.094646    0.378204
H      0.163428    0.603747    1.230082
C     -1.003895   -0.557710   -0.319152
C     -2.296079    0.129353    0.045109
H     -2.156465    1.239008   -0.094466
H     -2.562002   -0.076035    1.102984
H     -3.142004   -0.207516   -0.594010
H     -0.881933   -1.008212   -1.304201
O     -0.431448   -1.358380    0.766087
H      3.441612    0.025325    0.091801
H      2.398672    0.020867    1.611526
H      2.297432    1.379850    0.387285
