16

C     -2.209475   -0.038952   -0.987571
C     -1.454077    0.534809    0.179136
C      0.027339    0.653458   -0.092612
C      0.681596   -0.612046   -0.390252
C      1.984011   -0.663008   -0.181504
C      3.264610   -0.612924    0.036454
H      3.864815   -0.302439   -0.791311
H      3.562601   -0.889673    1.025661
H      0.278334   -1.515156   -0.753184
H      0.486243    1.141675    0.792348
H      0.177038    1.369087   -0.953381
H     -1.571575   -0.158144    1.040679
H     -1.809213    1.541637    0.471778
H     -1.674918    0.158556   -1.940557
H     -3.182434    0.502683   -1.061606
H     -2.424896   -1.109563   -0.851202
