15

C      1.817759    0.258834    0.604408
C      0.793029   -0.411805   -0.216431
H      1.390188   -0.859411   -1.121909
C      0.237170   -1.570149    0.406007
O     -0.980832   -1.514194    0.717822
C     -1.655727   -0.456970    0.433842
H     -2.320990   -0.191072    1.364598
H     -2.407580   -0.615914   -0.429672
C     -0.961118    0.830640    0.186713
H     -1.711911    1.459976   -0.354554
H     -0.497502    1.330247    0.997587
O      0.004160    0.499548   -0.919521
H      2.078056   -0.391665    1.437138
H      2.740581    0.399221   -0.014387
H      1.474716    1.232713    1.025048
