15

C      1.080877    0.985296   -1.344330
C      0.563385   -0.387405   -1.065312
C     -0.251903   -0.473735    0.164178
C     -0.959677   -1.525249    0.860335
H     -0.289313   -2.358571    1.258089
H     -1.794429   -2.019559    0.298085
O     -1.357027   -0.611440    1.822706
C     -0.703530    0.402549    1.196432
C     -0.537404    1.711461    1.436788
H     -0.995170    2.166925    2.318580
H      0.046993   -0.840379   -1.934308
H      1.462258   -1.047277   -0.883475
H      0.358944    1.627209   -1.896157
H      2.058230    0.894976   -1.871491
H      1.317767    1.475199   -0.360119
