12

O     -0.798274    0.533059   -1.022884
C     -1.165321   -0.479107   -0.113517
H     -1.899692   -1.183919   -0.373446
C      0.180968   -0.877951    0.429831
H      0.324675   -1.632782    1.186180
C      1.342927   -0.340083   -0.349530
H      1.231579    0.018552   -1.376561
H      2.352431   -0.661958   -0.066668
N      0.716748    0.498699    0.695669
C     -0.406501    1.234045    0.143589
H     -0.378878    2.293529    0.103975
O     -1.500661    0.597916    0.743363
