15

O      2.025245   -0.545780    1.094758
C      1.774116   -0.332032   -0.269578
C      0.407103    0.345121   -0.362182
N     -0.676381   -0.326733    0.119056
C     -1.792939   -0.985194    0.596800
H     -2.480650   -0.479436    1.288823
H     -2.038828   -1.991173    0.319890
C     -1.639486    0.869552   -0.365724
H     -2.568049    0.614832   -0.129703
H     -1.062232    1.592275   -0.791749
H      0.361447    0.660397   -1.449741
H      0.543218    1.348004    0.148810
H      2.481790    0.475370   -0.657810
H      1.838582   -1.240607   -0.848260
H      2.827064   -0.004596    1.306611
