9

N     -1.182940    0.623315   -0.488829
C     -0.936184   -0.769812   -0.367873
N      0.373401   -1.310502   -0.251248
C      1.404027   -0.562295   -0.116742
N      2.399748    0.143677   -0.449650
H      2.411011    1.154181   -0.269784
O     -1.889025   -1.592553   -0.359505
H     -2.112569    1.015120   -0.238644
H     -0.467469    1.298867   -0.823384
