10

C      1.314838   -0.222462   -0.232522
H      1.397127   -0.561830   -1.291195
H      2.307654   -0.269159    0.261842
O      0.927304    1.235765   -0.184877
C      0.154007    0.231614    0.289983
C     -1.206624   -0.117597   -0.184590
H     -1.272305   -1.135625   -0.603750
H     -1.689907    0.638409   -0.835328
O     -1.512412   -0.046998    1.139183
C     -0.419681    0.247883    1.641255
