13

C      1.132915    0.500381    0.548482
H      0.601599    1.429065    0.847818
H      2.085575    0.291690    1.057429
C      0.909675    0.039962   -0.843524
H      1.751592   -0.321618   -1.461581
C      0.322769   -0.741297    0.257075
H      0.727625   -1.735698    0.482720
C     -1.170972   -0.503757    0.281499
H     -1.389132   -0.073996    1.291929
H     -1.757892   -1.420561    0.112442
N     -1.421169    0.508246   -0.712533
H     -1.508903    1.460972   -0.271745
C     -0.283680    0.566612   -1.590010
