13

C      1.868412    0.775386    0.774622
C      0.998380   -0.038424   -0.117879
N      0.648935   -0.232530   -1.392655
C      0.031281   -1.047880   -0.386265
C     -1.420688   -0.850923   -0.267011
O     -2.197634   -1.848784   -0.146721
N     -1.990245    0.445058   -0.282622
H     -1.576576    1.266339    0.200520
H     -2.888172    0.636635   -0.802862
H      0.384824   -2.107904   -0.363516
H      1.227673    1.063286    1.659409
H      2.762259    0.211715    1.108061
H      2.151551    1.728024    0.301405
