10

C      0.560953   -0.988485   -0.094942
H      1.092579   -1.895339   -0.344691
N     -0.740667   -0.877240    0.249221
H     -1.417424   -1.666338    0.320826
C     -1.041833    0.411649    0.488943
H     -2.003184    0.797429    0.781594
C      0.085307    1.173513    0.299682
H      0.234317    2.245128    0.397711
C      1.099583    0.281590   -0.070559
H      2.130370    0.518094   -0.301966
