12

C     -1.429322   -0.361373    0.280233
C     -1.003793    0.967282   -0.198017
C      0.284895    1.166355   -0.428630
C      1.257752    0.103296   -0.216409
C      2.044929   -0.889913    0.037125
O      1.607027   -1.904882    0.860002
H      3.024658   -0.908455   -0.396092
H      0.605751    2.141048   -0.780601
H     -1.721176    1.785264   -0.365363
H     -2.528530   -0.338862    0.410607
H     -1.009640   -0.621425    1.281070
H     -1.132552   -1.138336   -0.483926
