14

C     -1.184107   -0.361529    0.892231
C     -0.486703   -0.166630   -0.442761
H     -1.030255   -0.653940   -1.286748
C      0.020260    1.173641   -0.738631
H     -0.244405    1.612416   -1.737817
H     -0.236336    1.939269    0.041175
O      1.309713    0.763866   -0.702178
C      0.956969   -0.512993   -0.425234
O      1.410313   -0.827343    0.889522
H      2.252920   -0.327636    1.057008
H      1.278629   -1.292957   -1.160110
H     -0.425033   -0.271688    1.703835
H     -1.581739   -1.391119    0.895390
H     -2.040226    0.316642    1.014317
