16

C      2.365482    0.012596    0.273516
C      0.938311    0.043029   -0.122980
C     -0.115807    0.485867    0.825050
H     -0.092058    1.099900    1.687298
C     -1.022312   -0.097511    0.086821
C     -2.577820   -0.024621    0.317310
H     -2.838797   -0.145012    1.337750
H     -2.975611   -0.832953   -0.371531
H     -2.926849    0.943498   -0.108613
C     -0.029142   -0.753730   -0.713824
H      0.018238   -1.851532   -0.771081
N      0.740355    0.092086   -1.517382
H      0.165466    0.837048   -2.015778
H      2.976037   -0.673811   -0.366014
H      2.544105   -0.166647    1.367660
H      2.830403    1.031793    0.091797
