14

C      2.247106    0.036110   -0.154132
O      1.049493   -0.376707   -0.731732
C      0.025706    0.294386   -0.063809
H      0.394657    0.977872    0.745318
C     -0.964393    1.002937   -0.897583
C     -2.038878    0.129657   -0.359496
H     -2.709525    0.733598    0.302855
H     -2.589261   -0.490341   -1.100309
C     -1.044136   -0.588767    0.483905
H     -1.198926   -0.524546    1.582794
H     -0.937157   -1.641520    0.121782
H      3.082517   -0.469831   -0.652314
H      2.304609   -0.219553    0.929831
H      2.378189    1.136704   -0.207109
