16

C     -2.044224   -0.018331    0.075502
N     -0.887460   -0.137007    0.931947
C      0.157485   -0.967675    0.388946
H      0.241085   -1.969041    0.504071
C      0.389593   -0.031200   -0.645224
H     -0.000829    0.187774   -1.546510
C      1.830931    0.080805   -0.238568
H      2.201933    1.111996   -0.428439
H      2.491958   -0.742962   -0.515615
C      1.134528    0.000986    1.085089
H      1.545279   -0.212459    1.977904
C      0.103043    0.843263    0.593641
H     -0.035021    1.841914    0.508469
H     -2.926509   -0.336925    0.700594
H     -2.002844   -0.691432   -0.794409
H     -2.198948    1.040293   -0.194329
