12

C      1.491837    0.096968    0.021462
H      1.959960    0.742872   -0.659679
H      2.265385   -0.062172    0.943399
O      0.482347    0.894509    0.736735
C     -0.662721    0.851244   -0.117461
H     -0.248592    0.717077   -1.174527
H     -1.386138    1.561110    0.009632
C     -1.185790   -0.682364    0.072099
H     -1.421237   -0.795816    1.189064
H     -2.059326   -0.744703   -0.542305
O     -0.125455   -1.451625   -0.235070
C      0.889732   -1.127100   -0.243348
