17

C      1.098221   -0.805337    0.298964
H      1.742901   -1.605720   -0.247647
H      1.279524   -1.008223    1.372964
C      1.593787    0.521976   -0.129128
H      2.180479    0.538290   -1.026455
H      2.372870    0.789125    0.711531
C      0.618998    1.683770   -0.024745
C     -0.737686    1.298176    0.530981
H     -0.755480    1.542215    1.641885
H     -1.476040    2.082158    0.154392
C     -1.244451   -0.045225    0.243719
H     -2.197259   -0.310315    0.811550
C     -1.023067   -0.511598   -1.153669
H     -1.932112   -1.074068   -1.544266
H     -0.617568    0.152101   -1.893315
C     -0.310408   -1.102564   -0.009174
H     -0.592710   -2.144760    0.262414
