13

O      1.624761   -0.376148    0.794068
C      1.352742   -0.023864   -0.534290
C     -0.143239    0.192849   -0.663425
H     -0.425087    0.717071   -1.612267
C     -0.984923   -0.942877   -0.349072
H     -1.179522   -1.967337   -0.747048
C     -1.543082   -0.374496    0.675796
H     -2.317440   -0.660176    1.434018
C     -0.780432    0.815720    0.490517
O     -0.742190    1.918164    1.125421
H      1.828562    0.968235   -0.695179
H      1.743926   -0.744091   -1.249356
H      1.565923    0.476949    1.330816
