14

C     -1.632922    0.759757   -0.039152
C     -0.306947    0.211775    0.392433
O     -0.525134   -0.727048    1.387902
H     -0.495007   -1.659995    1.057341
C      0.420684   -0.467845   -0.742863
N      1.688340   -1.009180   -0.330051
C      2.634928   -0.323505    0.129237
O      3.408480    0.529196    0.553756
H     -0.157960   -1.295219   -1.195787
H      0.614232    0.290086   -1.526159
H      0.367253    1.027811    0.750790
H     -2.006815    0.247809   -0.959841
H     -1.608630    1.853317   -0.224631
H     -2.400502    0.563043    0.747027
