16

C     -1.364907   -0.120372    0.324587
H     -1.978041   -0.420758    1.233624
H     -2.022085    0.177893   -0.530221
C     -0.326973   -1.136026    0.014814
O     -0.257565   -1.341523   -1.367704
H     -1.076214   -1.041271   -1.830603
H     -0.368347   -2.078117    0.605585
C      0.702641   -0.146177    0.421246
C      1.681201    0.249887   -0.676513
H      1.124515    0.671340   -1.512332
H      2.222194   -0.687351   -0.950969
H      2.413860    0.924441   -0.210084
H      1.283539   -0.448947    1.341995
C     -0.336299    0.827358    0.715870
N     -0.391907    2.052388    1.150708
H     -1.305615    2.517234    1.269997
