17

C      0.777782    1.139727   -0.377116
N      0.443407   -0.170211    0.096525
C      1.416515   -0.778586    0.975334
H      1.227929   -0.471723    2.023322
H      2.456402   -0.484867    0.688318
H      1.320187   -1.892393    0.907374
C     -0.225369   -1.008482   -0.896379
H     -0.533314   -0.533985   -1.862558
H      0.294373   -1.967003   -1.054843
C     -0.902656   -0.585317    0.300783
C     -2.023433    0.407273    0.227301
H     -2.979698   -0.184872    0.239343
H     -2.043938    0.972534   -0.723147
H     -2.011286    1.106433    1.084842
H      0.556797    1.955834    0.314118
H      0.337795    1.347845   -1.389061
H      1.888510    1.147793   -0.554155
