12

C     -1.640303   -0.257966    0.433180
H     -2.573494   -0.336520    1.016890
C     -1.509040    0.549016   -0.601105
H     -2.295295    1.228739   -1.001633
O     -0.231273    0.394196   -1.086465
C      0.478520   -0.547504   -0.332374
C      1.627925    0.186277    0.356601
H      2.581683   -0.088109   -0.162076
H      1.517635    1.287816    0.263548
H      1.652247   -0.075461    1.421201
H      0.849200   -1.394843   -0.943064
O     -0.457803   -0.945643    0.635298
