12

N      3.225343   -0.764001   -1.294640
C      2.188641   -0.760519   -0.536535
C      1.152576   -0.695751    0.246729
N      0.794974    0.558005    0.784225
C     -0.417469    1.146905    0.466998
N     -1.291820    0.435585   -0.061470
C     -2.138191   -0.331296   -0.581288
H     -2.773906   -0.826579    0.100469
H     -2.094928   -0.376045   -1.641173
H     -0.705137    2.171378    0.625637
H      1.464245    1.030926    1.424556
H      0.595672   -1.588610    0.466491
