12

C     -0.011128    2.087679   -0.625824
C     -0.157878    0.777851    0.031899
N      0.457411   -0.290494   -0.350654
C      0.250606   -1.528284    0.356079
N      0.286130   -2.663824   -0.256414
H      0.130799   -3.555778    0.288208
C      0.006711   -1.440646    1.752978
N     -0.191320   -1.353839    2.890023
H     -0.820929    0.677691    0.897168
H      0.128952    2.843770    0.175075
H     -0.926895    2.385567   -1.177737
H      0.847541    2.060306   -1.333031
