14

C      2.310093   -0.508109    0.288945
C      0.815929   -0.381202    0.570507
C      0.132225    0.456710   -0.468877
C     -1.280277    0.722840   -0.065846
H     -1.698952    1.745624   -0.127276
C     -2.218390   -0.387269    0.143728
H     -3.293391   -0.155962    0.086712
H     -1.860583   -1.391098   -0.202010
O     -1.568189    0.153934    1.262000
H      0.637340    1.451948   -0.552367
H      0.131870   -0.046876   -1.476674
H      2.380963   -0.861872   -0.772868
H      2.754959    0.493149    0.409568
H      2.756402   -1.291818    0.904460
