9

C     -1.457347    0.179673    0.066278
O     -0.569285   -0.892789    0.300977
C      0.658318   -0.694464    0.150730
C      1.828312   -0.146804   -0.035408
O      2.377483    0.117861   -1.274001
H      2.391834    0.111166    0.840466
H     -2.399217   -0.052887    0.620401
H     -1.777097    0.219152   -1.016212
H     -1.053001    1.159091    0.346770
