13

C     -1.337252   -1.265346    0.116979
C     -0.900696    0.131745   -0.330708
H     -1.632946    0.614992   -0.974184
C     -0.349784    0.941745    0.809518
H     -0.725433    1.988556    0.776793
H     -0.518502    0.515271    1.795717
N      1.003379    0.852830    0.323953
C      1.496398   -0.521453    0.150651
H      1.093288   -1.290181    0.843689
H      2.511979   -0.671212   -0.245034
C      0.522209    0.067269   -0.786558
H      0.796699    0.363167   -1.817937
H     -1.959337   -1.727382   -0.662879
