10

N     -0.285739   -1.508607    0.553560
C     -0.392468   -2.654375    0.627256
C     -0.159165   -0.113923    0.477278
C      1.045992    0.305833   -0.217567
C      2.033626    0.670393   -0.799751
H      2.913395    1.013591   -1.313668
C     -1.396857    0.464929   -0.130747
O     -1.456512    1.687711   -0.274254
H     -2.216317   -0.147853   -0.438109
H     -0.085956    0.282301    1.516002
