16

C     -2.026872   -0.453670    0.702202
N     -1.082697   -0.416854   -0.399941
H     -1.381073   -1.099138   -1.149674
C      0.153045   -0.916802    0.102157
C      1.096782   -0.007246   -0.063842
C      2.503674   -0.193336    0.344794
H      2.592603   -0.578798    1.398610
H      3.106371    0.713372    0.300683
H      2.912671   -1.022047   -0.287550
C      0.438936    1.127544   -0.700724
H      0.932411    2.053097   -0.978964
C     -0.836749    0.868507   -0.889243
H     -1.548082    1.525419   -1.335323
H     -2.810480    0.312426    0.631521
H     -1.497069   -0.461525    1.681340
H     -2.553471   -1.450948    0.643954
