10

C     -0.795115    0.585157    1.740418
O     -0.221013    0.889598    0.486353
C      0.278878   -0.055642   -0.376156
O      0.215862   -1.256985   -0.017088
O      0.830993    0.275163   -1.589392
C      1.297293   -0.520845   -2.410168
H      1.360677   -1.576241   -2.342156
H     -0.051361    0.679290    2.541735
H     -1.325355   -0.381263    1.757391
H     -1.590859    1.361768    1.934883
