13

N     -2.156811   -0.157004   -0.046395
C     -0.746941    0.124952   -0.102299
C     -0.210622    1.205382   -0.596176
C      1.101476    1.290324   -0.561973
H      1.733663    2.087244   -0.912644
C      1.532826    0.045604    0.067321
O      2.826294   -0.356367    0.336889
H      2.771311   -1.239018    0.781592
N      0.332135   -0.671633    0.346614
H      0.233041   -1.598485    0.791028
H     -2.496568   -0.437902   -0.994038
H     -2.641357    0.685749    0.300144
H     -2.278446   -0.978847    0.589937
