13

C     -1.834725   -0.023621   -0.000142
C     -0.693478    0.796106    0.539888
H     -0.974884    1.802912    0.877443
O      0.167737    0.166727    1.492805
C      0.677256    0.571030    0.132262
C      1.151167   -0.630274   -0.551411
C      2.396035   -1.002983   -0.419423
O      3.630885   -1.177122   -0.351270
H      0.520650   -1.232378   -1.166074
H      1.392015    1.407337    0.202745
H     -2.784675    0.567667   -0.028116
H     -2.025424   -0.936052    0.614484
H     -1.622557   -0.309350   -1.058704
