11

N     -1.747178    0.614082   -0.366197
C     -0.798497   -0.169090    0.396045
H     -1.196309   -0.452459    1.392115
N     -0.365280   -1.282840   -0.380504
N      0.852775   -1.221991   -0.618476
C      1.390315   -0.051005   -0.026256
N      2.628859    0.297181   -0.093756
H      3.317625   -0.294429   -0.609824
O      0.354434    0.607109    0.608717
H     -2.732252    0.321412   -0.126866
H     -1.704492    1.632030   -0.079168
