14

C      1.178395    0.295949    1.005568
H      1.564316   -0.525557    1.678798
H      1.417813    1.296126    1.431265
N      1.543990    0.222102   -0.437375
H      2.001218   -0.676115   -0.741352
H      1.765665    1.106910   -0.947557
C      0.236852    0.083714    0.041503
C     -0.735582   -0.801100   -0.485477
H     -0.742046   -1.852133   -0.609626
C     -1.833608   -0.044526    0.152683
H     -1.799076   -0.041964    1.260736
H     -2.784177   -0.113062   -0.328418
C     -0.887875    0.985629   -0.478474
O     -0.925885    0.064026   -1.542274
