14

C      2.228640   -0.418444   -0.264205
O      1.017844    0.094301   -0.761778
C      0.167807    0.203563    0.341724
C     -1.138379    0.747080   -0.139062
H     -1.066086    1.428529   -1.017593
C     -2.304030   -0.181980   -0.018301
H     -2.951101   -0.230064   -0.908605
H     -2.161532   -1.132645    0.521278
O     -2.186991    0.967026    0.729048
H      0.674850    0.889844    1.053886
H      0.100665   -0.781238    0.830486
H      2.623213    0.286847    0.487044
H      2.050147   -1.382971    0.232824
H      2.944953   -0.489846   -1.086746
