12

C     -1.912579   -0.240339    0.254012
C     -0.515525   -0.078577    0.733910
N      0.360922    0.744696   -0.022535
C      1.738988    0.447369   -0.130846
C      2.179869   -0.705941    0.275714
N      2.839337   -1.725851    0.645051
H      2.412097    1.198930   -0.557651
H     -0.040210    1.595607   -0.510190
H     -0.231434   -0.599369    1.642765
H     -2.590413   -0.662886    1.007848
H     -2.287537    0.802418    0.035728
H     -1.953515   -0.776056   -0.726036
