12

N      3.410959   -0.495159   -1.350189
C      2.341985   -0.728004   -0.914777
O      1.095569   -0.979860   -0.421304
C      0.309847    0.144283   -0.040582
H      0.841443    1.120982   -0.203849
C     -1.058156    0.200054   -0.571117
H     -1.335882    1.133051   -1.132316
H     -1.374968   -0.728662   -1.125676
C     -1.490795    0.127945    0.807426
H     -2.476702    0.114501    1.349435
C     -0.300562    0.079324    1.270710
H      0.037264    0.011545    2.332239
