10

O      2.659538   -0.689307   -0.189713
C      1.521023   -0.196369    0.009836
N      0.253491   -0.857815   -0.039943
H      0.078220   -1.871076   -0.253949
C     -0.756365    0.099731    0.253975
N     -2.015341   -0.155537    0.294799
H     -2.423094   -1.099582    0.114471
C     -0.030749    1.341854    0.476496
H     -0.518159    2.272439    0.723624
N      1.231437    1.155661    0.336224
