14

C     -1.644011    1.405397   -0.062631
N     -0.647242    0.862883   -0.654726
C     -0.015517   -0.330567   -0.237026
N     -0.655499   -1.601563   -0.272318
H     -1.325973   -1.679647   -1.079860
H      0.075580   -2.348052   -0.368290
H     -1.138270   -1.716062    0.640517
C      1.236385   -0.275430    0.212229
O      1.909991   -1.411654    0.636296
N      1.937712    0.954105    0.276435
H      2.824947    1.048074   -0.265181
H      1.602582    1.749326    0.835047
H     -2.125977    1.022955    0.825425
H     -2.034707    2.320236   -0.485917
