11

N      1.646859   -0.086301   -0.066908
C      0.254194    0.198399    0.059305
C     -0.426967    1.246145   -0.022054
H      0.085605    2.178508   -0.264606
N     -1.822685    0.988341    0.154860
N     -2.013279   -0.222992    0.306646
C     -0.817729   -0.924522    0.200141
H     -0.519497   -1.744635    0.807317
H     -0.818705   -1.254921   -0.974262
H      2.376369    0.556623    0.357314
H      2.055837   -0.934646   -0.557752
