9

C     -0.149979    0.844618   -0.293522
N      1.091082    1.018469    0.009350
O      1.728131   -0.048622    0.639046
H      1.891304   -0.875049    0.048277
C     -0.837912   -0.423383    0.019090
H     -0.156788   -1.294464    0.024622
H     -1.659003   -0.549078   -0.707614
H     -1.256401   -0.341326    1.043226
H     -0.650434    1.668835   -0.782475
