18

C     -1.660107    1.285258    0.152806
C     -1.143129   -0.052095    0.682989
N     -0.138559   -0.534326   -0.264982
C     -0.312351   -2.026177   -0.214978
H     -1.387067   -2.215178   -0.324815
H      0.224075   -2.484606   -1.068874
C      1.132451   -0.078456   -0.079495
O      1.178920   -0.649440    0.997527
C      2.361946    0.594904   -0.322844
H      2.580423    1.190026   -1.198046
H      3.216287   -0.148102   -0.255690
H      2.574474    1.292280    0.545839
H     -0.458498   -0.389784   -1.133195
H     -1.989738   -0.762032    0.785432
H     -0.744667    0.126919    1.678180
H     -1.424886    1.411289   -0.924483
H     -2.778607    1.298586    0.242645
H     -1.230967    2.140933    0.701983
