8

O     -1.340810   -1.200007    0.930464
C     -1.436368   -0.409479   -0.026763
C     -0.403359    0.555130   -0.276124
C      0.847472    0.336834    0.032781
C      2.063076   -0.113711    0.094598
O      3.189945   -0.210840    0.630883
H     -0.606596    1.521888   -0.736652
H     -2.313360   -0.479816   -0.649185
