9

C      0.179128    0.466392    0.713232
H      0.725511    1.075393    1.310337
C     -0.804172   -0.306245    0.249213
H     -1.696435   -0.791887    0.225340
C      0.617030   -0.849989    0.019219
H      1.057608   -1.640138    0.506430
O      0.777436   -0.157123   -1.110102
C     -0.206539    0.673891   -0.777291
H     -0.649566    1.529706   -1.136379
