15

N      3.334882    0.233040   -0.265135
N      2.511033   -0.692463   -0.899326
C      1.318394   -0.822627   -0.420732
C      0.202264   -0.800157    0.249824
C     -0.788993    0.233013   -0.098865
C     -2.179769   -0.192858    0.382377
O     -3.094109    0.798685    0.040846
H     -2.640508    1.676497    0.011568
H     -2.146603   -0.365174    1.480297
H     -2.439345   -1.156419   -0.116593
H     -0.863716    0.243476   -1.214778
H     -0.532776    1.223347    0.284464
H      0.042808   -1.518795    1.023167
H      3.875365    0.952163   -0.773774
H      3.401071    0.188271    0.769757
