13

C     -0.836026   -1.001253    0.678078
C     -0.295839    0.312195    0.132793
O      0.040789    1.111725    1.214139
H      0.775220    1.701235    0.976418
C      0.915860    0.010352   -0.692567
N      2.045881   -0.203544   -0.171009
H      2.847950   -0.406660   -0.780684
H      0.804112   -0.021846   -1.763564
C     -1.293049    0.968340   -0.684943
N     -2.092182    1.485565   -1.321910
H     -0.057789   -1.769915    0.608017
H     -1.703732   -1.266613    0.074690
H     -1.151195   -0.919581    1.730541
