16

C      2.260921    0.371322    0.699830
C      1.718323    0.706398   -0.642639
C      0.634683    0.061539   -1.042758
C      0.025730   -0.950607   -0.139717
C     -1.483097   -0.898037   -0.352642
C     -2.167307   -0.032740    0.650651
H     -1.504303    0.246843    1.512605
H     -3.086405   -0.551195    1.000032
H     -2.509157    0.951472    0.234497
H     -1.721113   -0.478841   -1.368659
H     -1.853055   -1.942832   -0.367389
H      0.173715    0.248309   -2.013288
H      2.197891    1.464789   -1.286629
H      2.857741   -0.585540    0.652070
H      1.451527    0.245026    1.452552
H      3.003906    1.144096    1.011485
