14

O      1.020147    1.057119   -0.942623
C      1.767028    0.881413    0.197962
H      1.503464    1.539611    1.047176
H      2.790545    0.507943    0.182769
C      0.729154   -0.115644   -0.293382
O      1.213535   -1.276400   -0.919149
H      0.514807   -1.632637   -1.553762
C     -0.458385   -0.246868    0.604963
C     -1.773556    0.011127   -0.103787
H     -2.563330   -0.062266    0.694363
H     -2.003165   -0.797547   -0.832772
H     -1.838914    1.020286   -0.532429
H     -0.495489   -1.307023    0.954646
H     -0.405844    0.420885    1.496026
