16

C     -1.482427    0.772549   -0.967474
C     -1.270286   -0.056741    0.240959
H     -2.064334    0.097807    1.030869
C     -0.793802   -1.449513    0.121658
H     -0.396365   -1.798327   -0.868549
H     -1.094181   -2.260605    0.836492
C      0.096010   -0.339964    0.751319
C      1.277834    0.136621    0.013366
N      1.794850   -0.427974   -1.305150
C      2.437470    0.604224   -0.710792
H      2.451099    1.601135   -1.221785
H      3.483162    0.381014   -0.314447
H      0.208463   -0.403766    1.855274
H     -2.291861    1.537909   -0.829035
H     -0.585826    1.407334   -1.223688
H     -1.769806    0.198296   -1.866137
