11

O     -0.203518    2.087651   -0.434659
C     -0.051223    0.889891   -0.154203
C     -1.203216   -0.040686   -0.262023
H     -1.714484   -0.096711   -1.268273
H     -2.039439    0.210896    0.534284
C     -0.607482   -1.306623    0.122118
H     -1.146540   -2.202360    0.102713
C      0.605088   -1.144255    0.481510
C      1.044737    0.126145    0.287677
O      2.402467    0.373661    0.551132
H      2.913611    1.102391    0.135554
