10

C     -1.691445   -0.044465   -0.094449
N     -0.302206    0.110557   -0.549731
C      0.670693   -0.037896    0.279081
N      1.989757    0.118636   -0.194919
H      2.768814    0.280297    0.469531
H      2.211057    0.076498   -1.208024
H      0.424372   -0.274126    1.291757
H     -1.862162   -1.143922   -0.064832
H     -1.827138    0.443243    0.877275
H     -2.381741    0.471178   -0.805689
