14

C     -0.707549   -0.675091    0.709679
H     -0.292076   -1.076428    1.626452
H     -1.776429   -0.777201    0.560743
C     -0.214076    0.756267    0.432325
H     -0.514605    1.488527    1.118385
C      1.258745    0.468631    0.272464
H      1.833739    0.621836    1.191245
H      1.626160    1.160564   -0.532429
O      1.336318   -0.845099   -0.210588
C      0.025568   -1.202353   -0.540725
H     -0.140887   -2.230156   -0.736654
N     -0.447373   -0.271329   -1.515371
C     -0.742596    0.870801   -0.971227
H     -1.244936    1.711031   -1.404298
