13

C      1.242803   -1.344442   -0.182646
C      0.838887    0.071365   -0.518646
H      1.619755    0.796940   -0.825106
C     -0.430637    0.163819   -1.298500
H     -0.987346    0.036945   -2.200412
C     -0.426941    0.567672    0.055298
C     -1.335120    1.114033    1.103443
H     -2.121170    0.356010    1.375365
H     -1.810140    2.051267    0.734985
H     -0.725022    1.266542    1.988702
H      0.993155   -2.068029   -0.986475
H      2.350720   -1.370366   -0.043124
H      0.791055   -1.641756    0.797116
