13

C     -1.743361   -0.039645    0.274976
C     -0.307735   -0.474292    0.432583
H     -0.166430   -1.134686    1.315282
C      0.600962    0.680013    0.614261
H      0.530308    1.445040    1.390219
N      1.582955    0.609141   -0.407946
H      2.367050    1.321406   -0.513456
C      1.293895   -0.531982   -1.181145
H      1.909211   -0.820806   -2.047580
C      0.232031   -1.163295   -0.730187
H     -1.871658    0.919065    0.824286
H     -2.055219   -0.011397   -0.766490
H     -2.372011   -0.798561    0.795197
