14

C     -0.101031    1.426342   -0.493880
N      1.010141    0.560051   -0.561417
C      1.154024   -0.507448    0.096358
O      2.304493   -1.338593   -0.008967
H      3.177951   -0.820343   -0.198264
N      0.089520   -0.876978    0.982380
C     -1.221331   -0.715618    0.485180
N     -1.453027   -0.838529   -0.759287
H     -2.363774   -0.743975   -1.244059
H     -2.033424   -0.503875    1.147961
H      0.327258   -1.250226    1.937296
H     -0.666767    1.521121    0.450803
H     -0.669496    1.634457   -1.417279
H      0.445463    2.453613   -0.416824
