12

C     -1.778482   -0.207394    0.132653
C     -0.307978   -0.326651   -0.159780
C      0.547244    0.872289   -0.381453
N      1.894614    0.395201   -0.634235
C      2.361250   -0.535644    0.111262
O      2.867889   -1.178338    1.040391
H      0.193177    1.515166   -1.195433
H      0.605537    1.427408    0.596303
O      0.128780   -1.465221   -0.201754
H     -2.390582   -0.424129   -0.754293
H     -2.036053    0.818974    0.490469
H     -2.085396   -0.891660    0.955871
