14

C      0.551611    1.237748    0.464824
C      0.225211   -0.256823    0.407196
C      1.400013   -0.959570   -0.176234
O      1.976118   -1.809233    0.457901
H      1.720444   -0.700243   -1.157148
C     -0.972652   -0.406813   -0.523497
O     -2.011182    0.333338    0.032694
H     -2.898058   -0.046840   -0.170360
H     -1.203204   -1.475910   -0.598738
H     -0.741214    0.027226   -1.500653
H     -0.003099   -0.642806    1.408616
H      0.847452    1.518997   -0.570636
H     -0.328240    1.807846    0.803593
H      1.436802    1.373083    1.122442
