17

O      3.021249    0.989224    0.766104
C      1.755124    0.467093    0.534615
C      1.584264   -0.517834   -0.326842
C      0.310245   -1.149875   -0.656615
C     -0.875085   -0.608688    0.060570
O     -1.085164    0.750840   -0.188079
C     -2.225507    1.126418    0.544973
H     -2.419624    2.193872    0.371346
H     -3.119554    0.556425    0.228510
H     -2.041191    0.904159    1.622575
H     -1.776029   -1.132582   -0.322305
H     -0.861359   -0.735873    1.147138
H      0.131431   -1.025406   -1.750878
H      0.382289   -2.229315   -0.454964
H      2.468944   -0.885404   -0.829996
H      0.895875    0.850323    1.047154
H      3.854093    0.446621    0.803432
