8

O      1.099114   -0.780287   -0.507516
C      0.364780    0.335602   -0.113657
C     -1.044268   -0.061126    0.101539
O     -1.871895    0.776260    0.456075
H     -1.432560   -1.061621   -0.029101
H      0.405236    1.072473   -0.936306
H      0.756727    0.770493    0.818841
H      1.722867   -1.051794    0.210125
