17

C     -1.279796   -0.462640    0.637014
H     -2.214702   -0.985098    0.489766
H     -1.012054   -0.369174    1.753853
C     -0.149698   -0.911851   -0.218287
H     -0.456985   -1.716891   -0.979502
C      1.135288   -1.173891    0.435066
H      1.872786   -1.647624   -0.267940
H      0.982062   -1.857925    1.269242
C      1.603048    0.169310    0.888284
C      1.198432    1.051481   -0.252722
H      1.993659    1.117746   -0.982034
H      0.957939    2.054582    0.187517
C     -0.086263    0.430522   -0.892861
H     -0.183381    0.555919   -1.933745
C     -1.270531    0.912903   -0.006337
H     -0.977223    1.724033    0.604363
H     -2.112583    1.108601   -0.731679
