14

C      0.276668   -1.100999   -0.200182
H      0.016314   -1.152882   -1.310861
H      0.564208   -2.130506    0.123126
C      1.419925   -0.162675   -0.153247
H      2.444707   -0.581290   -0.148703
C      1.180157    1.134455   -0.105243
H      2.000763    1.813465   -0.084476
O     -0.108802    1.614505   -0.091965
C     -1.241633    0.775051   -0.096952
H     -2.153795    1.216680    0.320212
H     -1.410624    0.478180   -1.188123
C     -0.852985   -0.510949    0.599147
H     -0.422291   -0.217410    1.610834
H     -1.712612   -1.175626    0.726433
