14

C     -2.276397   -0.645723    0.286019
C     -1.087875   -0.059575    0.221067
C     -0.723730    1.299985    0.586584
H     -1.434101    2.029770    0.978205
O      0.621988    1.425606    0.337302
C      1.157104    0.396421   -0.114307
N      2.562302    0.250217   -0.465209
H      2.801525   -0.397998   -1.229607
H      3.319501    0.758929    0.009846
C      0.158073   -0.677492   -0.249560
H      0.409115   -1.571791    0.364859
H      0.018396   -0.968728   -1.328109
H     -3.177336   -0.171300    0.635347
H     -2.348566   -1.668321   -0.032435
