12

N      1.246834   -0.267527   -0.401562
C     -0.017721    0.083739    0.058348
C     -1.090240   -0.924409   -0.006445
H     -1.584016   -1.249982    0.929384
H     -0.867895   -1.805569   -0.699296
C     -1.245783    0.347922   -0.681194
O     -1.442346    1.568722   -0.033070
C     -0.280913    1.404315    0.669022
O      0.401106    2.058579    1.530927
H      1.288696   -0.781995   -1.314506
H      1.672903   -0.965640    0.302937
H      1.919376    0.531846   -0.354543
