15

C      2.283411    0.084155    0.096886
C      0.782825   -0.030555    0.040206
C     -0.075782    0.926739   -0.267584
H      0.194367    1.952861   -0.528033
C     -1.441524    0.430150   -0.213577
N     -2.542187    1.083625   -0.453695
H     -2.508429    2.099082   -0.725076
N     -1.394137   -0.921599    0.153061
H     -1.833834   -1.009507    1.106752
H     -1.880793   -1.552297   -0.520218
C     -0.021381   -1.214407    0.311967
H      0.429257   -2.176230    0.597153
H      2.689019   -0.567495    0.906553
H      2.721201   -0.220592   -0.861280
H      2.597989    1.116070    0.356886
