11

C     -1.826400    0.037440    0.578665
C     -0.415681   -0.330504    0.262770
C      0.502367    0.849599    0.268021
C      1.761936    0.584988   -0.000630
C      3.029004    0.360457   -0.095029
H      4.042126    0.018112   -0.194052
H     -0.372594   -0.749743   -0.765325
H     -0.030947   -1.022680    1.030501
H     -2.482284   -0.767497    0.155892
H     -2.049475    0.047082    1.674056
H     -2.158052    0.972747    0.076021
