9

N     -1.259385    0.727941   -0.042344
H     -1.400774    1.065011    0.954260
C     -1.436225   -0.716372   -0.110610
C      0.049965   -0.852978   -0.261866
H      0.497372   -1.591502   -0.920958
C      0.153293    0.549525   -0.242015
H      0.713238    1.220029   -0.916954
N      0.823467   -0.202307    0.781143
H      1.859049   -0.199346    0.759344
