14

C     -1.668435   -0.899481   -0.279052
C     -0.541812   -0.102297    0.261069
N     -0.372579   -0.001273    1.537269
O     -1.229441   -0.628108    2.437855
H     -1.978073   -0.119337    2.897859
O      0.368942    0.561739   -0.552901
C      1.649411    0.811837   -0.026652
C      2.550433    1.530294   -0.978658
H      3.390274    0.914514   -1.345800
H      2.121309   -0.178504    0.213086
H      1.513369    1.395521    0.908956
H     -1.536678   -1.988111   -0.109750
H     -1.654297   -0.770423   -1.393363
H     -2.612422   -0.526371    0.131393
