10

C     -0.974922   -0.566326    0.117063
C      0.200320    0.306948   -0.082709
C      1.579202   -0.117333    0.100961
O      1.747470   -1.317865    0.454827
H      2.392328    0.560602   -0.058528
N     -0.024673    1.522882   -0.443546
H     -1.009338    1.896217   -0.595004
H     -1.833889   -0.210247   -0.493823
H     -1.277188   -0.461552    1.180758
H     -0.799309   -1.613325   -0.179998
