13

C      1.363562   -0.086224    0.460128
C     -0.005566    0.564299    0.411628
H     -0.339415    0.884124    1.419250
C      0.099316    1.692056   -0.541073
O     -0.604908    1.564272   -1.487623
C     -1.338947    0.448083   -1.504546
C     -1.019020   -0.312212   -0.267145
O     -0.535230   -1.593780   -0.514713
H     -0.821671   -2.147848    0.267395
H     -1.919130   -0.330635    0.387971
H      1.443687   -0.851222    1.256746
H      2.116564    0.711796    0.648408
H      1.560758   -0.542709   -0.536426
