17

C      2.131286    0.876502   -0.552101
C      1.669284   -0.172014    0.090235
C      0.660659   -1.078974   -0.521424
C     -0.580554   -1.082006    0.352403
C     -1.171173    0.266027    0.478392
C     -2.398815    0.466023    0.069499
H     -2.959608   -0.345003   -0.349912
H     -2.854368    1.432931    0.147890
O     -0.473577    1.343254    1.017747
H     -0.523231    2.228453    0.494599
H     -1.344229   -1.777290   -0.042405
H     -0.337097   -1.426870    1.377139
H      0.443843   -0.820927   -1.555640
H      1.088859   -2.101411   -0.477113
H      2.018540   -0.407221    1.102356
H      2.869919    1.518400   -0.071707
H      1.760260    1.080127   -1.559957
