15

C      1.232094   -0.776869    1.899964
C     -0.158844   -0.771926    1.306235
C     -0.082902   -0.072925   -0.127015
O     -1.253305    0.471269   -0.365525
C     -2.217645   -0.084343   -1.105689
H     -2.510035   -1.063146   -0.563008
H     -3.186853    0.504552   -1.105146
H     -1.989094   -0.325005   -2.157147
C      0.989145    0.998672    0.126280
C      1.719869    1.747794    0.314544
H      2.499998    2.553171    0.506657
H      0.279116   -0.868142   -0.719416
H      1.940973   -0.658243    1.085786
H      1.356370   -1.749139    2.400950
H      1.381114    0.094279    2.619217
