14

C     -2.537677    0.463738    0.438459
C     -1.168494    1.045131    0.577787
C     -0.067732    0.159636    0.089626
O      0.956826    0.132430    1.031605
C      2.012738   -0.682314    0.624255
O      2.575331   -0.243489   -0.580777
H      2.570714    0.755272   -0.537209
H      2.821014   -0.607033    1.380567
H      1.712893   -1.757244    0.553303
H     -0.416392   -0.874343   -0.166836
H      0.316734    0.606034   -0.862011
H     -2.553088   -0.626906    0.267827
H     -3.060523    0.924671   -0.436025
H     -3.162343    0.704416    1.320740
