18

C     -1.889889    0.886547   -0.211178
C     -0.982944   -0.191639   -0.778601
N     -0.133184   -0.669463    0.282385
C     -0.760497   -1.422903    1.332376
H     -1.791087   -1.732858    1.293931
H     -0.184407   -1.694058    2.201721
C      1.109638   -0.423698    0.292282
C      1.899399    0.338503   -0.689177
O      2.477607    1.432716   -0.007258
H      2.959710    1.141608    0.800847
H      2.777884   -0.239071   -1.067136
H      1.333028    0.785798   -1.515845
H      1.657143   -0.847341    1.163620
H     -0.479267    0.094433   -1.703523
H     -1.683975   -1.040224   -1.084411
H     -1.685503    1.085399    0.855975
H     -2.949278    0.654015   -0.417211
H     -1.674377    1.842235   -0.748797
