12

N      2.139547    0.631523   -0.005948
C      0.870504    0.398038    0.006219
C      0.291760   -0.954305   -0.016214
H      0.641472   -1.586456    0.827512
H      0.518909   -1.414098   -1.002901
C     -1.158512   -0.720565    0.008910
H     -1.967126   -1.463465    0.003301
C     -1.414255    0.570512    0.041417
H     -2.399306    1.041354    0.065491
N     -0.207600    1.313018    0.041549
H     -0.099675    2.365320    0.063698
H      2.784281   -0.180876   -0.033033
