15

C     -0.968932   -1.498916    0.267445
C     -0.539283   -0.364373   -0.629155
H     -0.343504   -0.780583   -1.638658
C     -1.572645    0.719013   -0.669566
N     -0.898985    1.888085   -0.152666
H     -1.360731    2.832509   -0.050348
C      0.424113    1.552426    0.174132
H      1.133392    2.272985    0.584819
C      0.685667    0.279957   -0.076753
N      1.936949   -0.381281    0.142368
H      2.529681   -0.101571    0.937813
H      2.195503   -1.134685   -0.531790
H     -0.685126   -1.217060    1.309263
H     -0.457849   -2.451553    0.044628
H     -2.078252   -1.614953    0.288471
