16

C      1.720410   -1.136912    0.289432
C      0.852223   -0.359908   -0.679224
C     -0.405867    0.053030   -0.116853
C     -1.445271   -0.814416    0.414801
H     -2.259686   -0.883578   -0.346868
H     -1.077477   -1.874262    0.550546
H     -1.923659   -0.445791    1.339614
C     -0.685021    1.313506   -0.057004
C     -0.918046    2.618264   -0.089328
H     -0.585387    3.100071    0.782878
H     -1.391400    2.961337   -0.967933
H      0.710072   -1.028359   -1.578934
H      1.491503    0.469595   -1.061257
H      2.327245   -0.425008    0.920121
H      2.447992   -1.706015   -0.314383
H      1.142368   -1.841554    0.914389
