12

O     -1.211923    0.666869   -1.624647
C     -1.710175    0.085425   -0.693115
C     -0.962739   -0.111712    0.563439
C      0.417148    0.475143    0.523506
N      1.232493   -0.103659   -0.521454
C      2.451363    0.263817   -0.566170
O      3.615164    0.585517   -0.902060
H      0.906585    0.276319    1.492211
H      0.388145    1.563325    0.355364
H     -1.522311    0.434661    1.364586
H     -0.895162   -1.195042    0.787495
H     -2.708587   -0.292893   -0.779156
