10

N      2.440185    0.167935    0.015582
C      1.143671    0.124804    0.086035
C      0.193690    1.232553   -0.139277
C     -1.153581    0.631524    0.069115
H     -1.754582    0.764058   -0.867093
H     -1.622803    1.146590    0.930608
C     -0.923071   -0.766023    0.398144
O     -1.802663   -1.616159    0.645464
O      0.432091   -1.016451    0.396342
H      3.047063   -0.668832    0.190901
