15

C      1.970537   -0.625038   -0.119602
C      0.521545   -0.244648    0.150241
H      0.184758   -0.952199    0.985170
C      0.355435    1.119690    0.560254
H      1.227873    1.631340    1.005411
O     -0.731671    1.710837    0.421448
C     -1.783875    1.010879   -0.131064
H     -2.751229    1.470933   -0.359540
C     -1.598776   -0.432173   -0.430557
H     -1.642739   -1.035234    0.517154
H     -2.353385   -0.734012   -1.160880
O     -0.291111   -0.643442   -0.925743
H      2.032401   -1.725258   -0.005258
H      2.275646   -0.403112   -1.161359
H      2.584591   -0.148563    0.654325
