13

C      1.961346   -0.158461    0.003587
C      0.512458    0.177085   -0.214377
O      0.154101    1.223101   -1.030409
H     -0.257320    2.087789   -0.694327
C     -0.442483   -0.528283    0.375202
C     -1.895036   -0.229844    0.186724
H     -2.458627   -0.240603    1.126188
H     -2.365772   -1.004065   -0.481367
H     -2.019991    0.730584   -0.322031
H     -0.122496   -1.343366    1.009735
H      2.341622   -0.437801   -1.018575
H      2.528326    0.715485    0.356641
H      2.063872   -0.991620    0.703010
