14

C     -1.779336    0.597702    0.644226
C     -0.985994   -0.098381   -0.440779
N     -0.273941   -1.206691    0.209830
N      0.613729   -0.831236    1.230354
C      1.669642   -0.190987    0.898423
C      2.728572    0.342782    0.306008
H      3.542631   -0.311678    0.076732
H      2.658699    1.395374    0.112406
H     -0.428120   -2.196027   -0.077591
H     -1.629161   -0.456812   -1.266018
H     -0.194262    0.570314   -0.822211
H     -2.849344    0.431386    0.516639
H     -1.582904    1.703426    0.651282
H     -1.490211    0.250827    1.662013
