12

C     -1.463808   -0.303478    0.199884
H     -1.712813   -1.276878   -0.265306
H     -2.339869    0.391801    0.291896
C     -0.753411   -0.371567    1.514741
C      0.396033    0.340072    0.926800
H      0.692669    1.303575    1.392813
C      1.392413   -0.397900    0.156457
H      2.339872    0.188280    0.053702
H      1.593047   -1.432354    0.517607
O      0.666674   -0.294705   -0.995956
C     -0.302681    0.414215   -0.373807
H     -0.508127    1.438940   -0.771062
