13

C      2.496893   -0.629485   -0.784564
O      1.256290   -0.071274   -0.403926
C      0.688875   -0.554136    0.626924
N     -0.570853   -0.037840    1.072061
C     -1.459641    0.584316    0.103315
H     -1.102162    0.623146   -0.943787
C     -2.873541    0.537217    0.310998
H     -3.934370    0.316437    0.418427
N     -2.170851    1.751957    0.518653
H     -0.857139   -0.100758    2.069880
H      2.823911   -1.431162   -0.091814
H      3.307111    0.141205   -0.824595
H      2.395478   -1.129622   -1.787084
