8

N     -1.167035    0.687452   -0.422220
C     -1.066865   -0.394551    0.254780
N      0.132650   -1.133139    0.383289
C      1.282514   -0.599272    0.365582
N      2.378023   -0.003713    0.169520
H      2.422916    1.007170    0.323159
H     -1.936880   -0.771337    0.757411
H     -2.045323    1.207391   -0.502687
