10

O      3.174411   -1.177963   -0.070393
C      2.039141   -0.760063    0.193707
C      0.947705   -0.050625    0.129472
C      0.197382    1.236156    0.134835
H      0.293038    1.854873   -0.794608
H      0.058521    1.764776    1.095312
N     -0.503737   -0.061894   -0.015121
C     -1.704309   -0.785406   -0.178986
O     -2.785512   -0.164515   -0.247686
H     -1.716641   -1.855340   -0.246532
