17

C      1.593163    0.750635    1.077221
C      1.242783   -0.016569   -0.153104
H      2.120095   -0.552629   -0.556946
C      0.570663    0.797144   -1.224712
C     -0.598123   -0.110898   -1.151213
H     -0.878774   -0.660038   -2.065471
C      0.058095   -0.932202   -0.072418
H      0.198673   -1.992880   -0.251831
C     -1.044114   -0.512754    0.854132
H     -0.774573    0.041590    1.748142
H     -1.699745   -1.395297    1.069197
C     -1.685683    0.315578   -0.238719
H     -2.680799   -0.020266   -0.563334
H     -1.654610    1.391269    0.020823
H      2.409329    1.470625    0.787474
H      0.771282    1.346629    1.488942
H      2.052337    0.080063    1.828557
