14

C     -1.882954   -0.048486    0.208345
H     -2.349474    0.798514   -0.284835
H     -2.136815   -0.266881    1.206097
N     -1.528926   -1.117710   -0.757958
H     -1.583407   -2.088759   -0.346992
C     -0.516683   -0.366441   -0.116401
N      0.428762   -0.894627    0.777826
N      1.600519   -0.251042    0.693572
H      2.223970   -0.853309   -0.108387
H      2.170457   -0.102223    1.486014
C      1.451993    0.979092   -0.230718
H      2.167895    1.726804   -0.371005
C      0.166170    0.899165   -0.710665
H     -0.211506    1.585901   -1.444892
