13

C      1.677967    1.417482    1.093831
C      0.459823    1.160475    0.663224
N      0.233814    0.369819   -0.495262
C     -0.988784   -0.361255   -0.705104
H     -1.703999    0.186857   -1.379598
C     -1.446584   -1.386067    0.201274
H     -1.881559   -1.827140    1.064710
C     -0.809717   -1.786161   -1.067366
H     -0.544662   -2.679881   -1.598446
H      0.971649    0.305939   -1.231343
H     -0.364444    1.577269    1.229346
H      1.886016    2.015006    1.971099
H      2.510481    1.007655    0.538120
