19

C      3.076323    0.292957    0.098068
C      1.754350    0.367844    0.132399
C      0.927879   -0.659971    0.780766
C     -0.037206   -1.319593   -0.183029
C     -0.986349   -0.321223   -0.792836
O     -1.707420    0.274186    0.223097
C     -2.617238    1.218781   -0.248717
H     -3.360948    0.808079   -0.933615
H     -3.182960    1.572234    0.662476
H     -2.087768    2.110600   -0.653605
H     -1.716454   -0.908299   -1.403188
H     -0.494132    0.392316   -1.474055
H      0.536245   -1.836970   -0.973709
H     -0.658011   -2.020391    0.425843
H      0.413940   -0.262846    1.664621
H      1.605633   -1.469513    1.151463
H      1.250840    1.209368   -0.328816
H      3.657510    1.069196   -0.389064
H      3.625767   -0.516755    0.538014
