14

C     -0.718403   -0.612124   -0.769568
H     -0.212607   -1.394493   -1.397405
H     -1.806902   -0.633520   -0.776487
C     -0.081449    0.751813   -0.852103
H     -0.110435    1.388580   -1.620526
C      1.115785    0.116793   -0.213673
H      1.649182   -0.567592   -0.872984
H      1.718312    0.786614    0.423812
C     -0.047664   -0.457024    0.561350
O     -0.020606   -1.238064    1.532200
H      0.754828   -1.797466    1.676035
C     -0.579093    0.970800    0.548556
H     -1.672485    1.063557    0.572353
H      0.011537    1.622126    1.188439
