13

O      2.666708   -0.446878    0.580326
C      1.492953   -0.402489    0.772999
C      0.539434   -0.189450   -0.295671
C      0.050638    1.256302   -0.598672
H      0.019977    1.573926   -1.665367
H      0.231487    2.013632    0.157026
C     -0.856540    0.096755   -0.210702
O     -1.549871    0.265930    0.968520
H     -2.051454    1.146864    0.883000
C     -0.466855   -1.232384   -0.682494
H     -0.661504   -2.045798    0.045477
H     -0.536438   -1.447586   -1.767607
H      1.121465   -0.588825    1.813165
