12

C     -0.890987   -0.720964   -0.692296
C     -0.201637    0.140664    0.364390
N      1.101841    0.500592   -0.135406
C      1.929310   -0.631498   -0.406117
H      2.411523   -0.952952    0.530892
H      1.562228    1.248591    0.418329
C     -1.015270    1.319487    0.585958
N     -1.653043    2.275145    0.768964
H     -0.092513   -0.395162    1.323935
H     -1.670513   -1.311417   -0.151847
H     -1.350364   -0.061706   -1.462681
H     -0.130577   -1.410780   -1.144122
