12

N      1.480376   -0.520011   -0.062593
C      0.502947    0.505953    0.048307
C      0.716489    1.858492    0.188488
O     -0.462423    2.418364    0.251574
N     -1.380037    1.522477    0.161818
C     -0.861059    0.295290    0.031784
N     -1.552378   -0.940507   -0.094326
H     -1.566279   -1.667132    0.669365
H     -2.075310   -1.175113   -0.954218
H      2.248172   -0.225121   -0.717396
H      1.061704   -1.399384   -0.406372
H      1.887798   -0.673308    0.883567
