11

N     -1.216990    1.046862    0.357738
C     -0.552359   -0.198576    0.540945
O     -1.433238   -1.243795    0.571448
H     -1.061779   -2.099296    0.845815
C      0.616791   -0.421704   -0.381941
H      0.523337   -1.048292   -1.274080
C      1.755427    0.512025   -0.349367
H      2.372443    1.347979   -0.510423
O      1.797738   -0.672720    0.312265
H     -2.160903    0.977543   -0.065416
H     -0.640467    1.799975   -0.046984
