11

O      2.260059    1.025126    0.171895
C      1.544187   -0.161841    0.060769
C      0.240795   -0.138506   -0.004757
C     -0.640838   -1.293938   -0.122440
H     -0.383157   -2.347406   -0.175207
N     -1.842380   -0.810486   -0.153865
C     -1.818302    0.605900   -0.063884
H     -2.662229    1.287205   -0.064546
N     -0.595014    1.011865    0.024390
H      2.091989   -1.089128    0.030858
H      1.804891    1.911208    0.392617
