12

C      0.056140   -0.950135    0.235716
H      0.085398   -1.445633    1.233966
H     -0.200266   -1.738594   -0.525473
C      1.363445   -0.360341   -0.068254
H      2.295083   -0.915569   -0.122225
C      1.207773    1.066791   -0.281732
H      2.044913    1.769696   -0.530612
C     -0.049194    1.373925   -0.135233
C     -0.873319    0.212304    0.188084
O     -1.921705    0.019983   -0.715533
H     -2.632115    0.646727   -0.463498
H     -1.376152    0.320846    1.184794
