16

C      0.083577   -1.475360    0.717654
H     -0.960402   -1.728080    1.103483
H      0.745785   -2.401820    0.943702
C      0.481776   -0.241596    0.178184
C      1.735823    0.440094    0.221985
H      2.065330    1.018141   -0.683215
H      1.766562    1.123745    1.158034
H      2.564725   -0.321234    0.490644
N      0.066378   -1.232967   -0.758824
C     -1.082728   -0.383865   -1.238914
H     -2.020171   -1.093448   -1.043011
H     -1.077702   -0.302647   -2.305984
C     -0.742321    0.444051   -0.267970
C     -0.929808    1.679153    0.466398
H     -1.987228    2.076120   -0.082891
H     -0.709595    2.399714    1.100724
