11

C      1.671544   -0.056682   -0.031644
N      0.197240    0.062547   -0.059806
C     -0.683575   -0.831034    0.591998
H     -0.414105   -1.676435    1.167892
C     -1.861407   -0.373112    0.318222
N     -1.831937    0.760746   -0.468592
H     -2.662932    1.267092   -0.788743
N     -0.523828    1.050851   -0.718003
H      2.059082    0.239991    0.966901
H      1.965815   -1.097731   -0.212563
H      2.084104    0.653767   -0.765660
