14

O     -0.708087    1.231929   -1.152052
C     -0.011759    0.661719   -0.104368
C     -0.933263   -0.302687    0.605073
H     -0.545261   -0.613596    1.609797
C     -2.322755   -0.323846    0.334577
H     -3.371474   -0.255220    0.186456
N     -1.433123   -1.361737   -0.188661
C      1.235310   -0.001564   -0.522686
C      1.950557   -0.654212    0.370525
H      1.628247   -0.709822    1.423679
H      2.864127   -1.137271    0.052176
H      1.559090    0.044914   -1.541576
H      0.284979    1.509672    0.573956
H     -0.196588    1.911722   -1.646895
