12

N      1.251732   -1.439250    2.307641
C      0.780871   -1.150431    1.293537
C      0.198790   -0.803890    0.000064
H      0.284789   -1.656475   -0.717868
C     -1.203625   -0.331899    0.051035
H     -1.637571   -0.230496    1.088732
C     -0.702709    0.930887   -0.530168
H     -0.854340    1.850234    0.093338
H     -1.090741    1.061993   -1.579807
N      0.629154    0.430096   -0.562433
H      1.271116    0.986887    0.067606
H      1.072533    0.352343   -1.511678
