16

C      2.462335   -0.013151   -0.026323
C      0.950889    0.179587   -0.057784
O      0.464400    1.294435   -0.221433
C     -0.935285    1.528324   -0.187592
H     -1.401967    2.426696   -0.513322
C     -1.708750    0.382289    0.363290
H     -1.511075    0.359124    1.462632
H     -2.822498    0.558455    0.180102
C     -1.318893   -0.873747   -0.223553
H     -1.392920   -0.884771   -1.330476
H     -1.833962   -1.772135    0.200282
N      0.162767   -0.990843    0.035468
H      0.516307   -1.918169    0.235604
H      3.001814    0.939301   -0.141677
H      2.629699   -0.428107    0.994629
H      2.737140   -0.787288   -0.769846
