11

C      1.708884    0.542240    0.342003
C      0.546284   -0.006087    0.063441
C     -0.302320   -1.211913   -0.017244
H     -0.028031   -1.939085   -0.791939
H     -0.680490   -1.676287    0.918264
C     -0.845910    0.109728   -0.387737
O     -1.681369    0.796127    0.499218
H     -2.070593    1.579150    0.019960
H     -1.072216    0.245586   -1.475553
H      2.558018   -0.057811    0.697785
H      1.867741    1.618351    0.227631
