17

C     -2.163041    0.010274   -0.298924
C     -0.768127   -0.047663    0.133769
H     -0.811044   -0.063647    1.330294
C      0.059680    1.089292   -0.053645
H     -0.153543    2.090723   -0.511306
C      1.343549    0.808535    0.214899
O      2.414001    1.454043    0.332375
H      2.895478    2.007973   -0.287949
C      1.347410   -0.750144    0.426494
H      1.265195   -0.928500    1.453880
H      2.228807   -1.244799   -0.096388
C      0.056196   -1.199225   -0.253878
H     -0.312709   -2.163925    0.157277
H      0.183319   -1.199039   -1.354451
H     -2.231808   -0.073134   -1.397932
H     -2.751426   -0.778733    0.201115
H     -2.601935    0.987968    0.004372
