10

O      2.028557   -0.670059    0.410825
N      0.739880   -0.267478    0.205281
C      0.462899    0.982269    0.074036
H      1.237876    1.731652    0.123433
N     -0.861763    1.451540   -0.141405
C     -1.814799    0.618771   -0.208818
C     -1.648334   -0.660945   -0.090373
H     -2.509252   -1.300506   -0.159694
N     -0.340333   -1.158890    0.124952
H      2.705269   -0.726354   -0.338238
