13

O      2.705471    0.882671   -0.156394
C      1.678417    1.428547   -0.585919
N      0.444550    0.692564   -0.457908
C      0.458777   -0.611013    0.147773
C     -0.942062   -1.170834    0.165500
H     -1.060733   -2.281118    0.122311
C     -1.913831   -0.368631    0.910615
H     -2.524740    0.145013    1.611729
N     -1.934362   -0.409198   -0.507312
H      1.151006   -1.324020   -0.350659
H      0.753366   -0.489319    1.230847
H     -0.439808    1.101376   -0.799443
H      1.623950    2.403961   -1.046654
