14

O      0.181033    1.092631    1.334364
C      0.369791    0.251557    0.314186
C      1.570281   -0.250511    0.241719
C      2.735894   -0.587923   -0.242377
H      3.335800   -0.002830   -0.886247
H      3.032488   -1.525101    0.074840
C     -0.709222   -0.054539   -0.623871
H     -0.378427   -0.309969   -1.661760
C     -1.924549   -0.659240   -0.059704
H     -1.961163   -0.869225    1.029807
H     -2.549326   -1.384595   -0.647003
N     -1.926259    0.730224   -0.484454
H     -1.953283    1.460722    0.288487
H      0.176942    2.108797    1.322013
