9

C      2.201936    0.233795   -0.302638
O      3.372035    0.360544    0.106953
C      1.032496   -0.340454   -0.279656
C     -0.213241   -0.672917   -0.440080
C     -1.298782    0.368929   -0.471469
H     -1.447708    0.722763    0.575184
H     -1.024027    1.191730   -1.165594
H     -2.198133   -0.137029   -0.839792
H     -0.424576   -1.727361   -0.548565
