16

C     -1.746446   -0.769132   -0.811850
C     -0.403792   -0.009205   -0.772580
C     -0.741066    1.320698   -0.214341
O     -1.430343    2.055739   -0.928651
H     -0.396987    1.601469    0.749926
N      0.417160   -0.723454    0.144701
C      1.760720   -0.283854    0.292186
O      1.819970    1.024241    0.736649
H      2.033063    1.653808   -0.001932
H      2.206774   -0.905824    1.123305
H      2.372341   -0.433792   -0.633222
H      0.279673   -1.753247    0.158654
H     -0.028451    0.025430   -1.799070
H     -2.115037   -0.909287    0.221158
H     -1.605748   -1.735702   -1.310405
H     -2.421829   -0.157887   -1.411651
