16

C      2.405723    0.257543   -0.175623
C      1.614907   -0.558964   -0.823455
C      0.174852   -0.647376   -0.935002
C     -0.716263    0.090526   -0.066712
C     -0.535167    0.730906    1.051645
H     -1.356153    1.230103    1.549367
H      0.391323    0.782198    1.553900
C     -2.166002    0.129322   -0.564235
H     -2.243344    0.913508   -1.313508
H     -2.845639    0.375619    0.270017
H     -2.396265   -0.886008   -0.880090
H     -0.073999   -1.763050   -0.791188
H     -0.072345   -0.452742   -2.042684
H      2.147007   -1.376100   -1.437262
H      3.504576    0.081731   -0.272468
H      2.166791    1.092785    0.420174
