8

O      2.668565   -0.329192   -0.444339
C      1.604128   -0.187717   -0.093225
C      0.203181   -0.004841    0.354169
H      0.053010   -0.366910    1.383939
C     -0.633445    0.891268   -0.379364
H     -1.437313    1.528079   -0.012131
N     -0.822168   -0.513864   -0.623067
H     -1.635959   -1.016822   -0.185981
