14

N     -1.948038    0.993260    0.594732
C     -1.195191    0.246088   -0.403434
H     -1.759124    0.233219   -1.361747
C      0.125896    0.858133   -0.535747
C      1.020207   -0.003219   -0.141396
N      2.425134    0.274178   -0.140433
H      2.842276    0.745595    0.686259
H      2.946050   -0.024321   -0.992591
C      0.400719   -1.238714    0.280453
H      0.891306   -2.130712    0.655908
N     -0.991650   -1.075853    0.113425
H     -1.367362   -1.781783   -0.563798
H     -1.424415    0.907847    1.502645
H     -1.965806    1.996282    0.305722
