11

C      1.281055    0.120424   -0.113356
C     -0.065733   -0.226018    0.512707
H      0.035789   -0.210642    1.620007
N     -0.478740   -1.480197   -0.023930
N     -1.510046   -1.260138   -0.699132
N     -1.899401    0.064632   -0.707753
C     -1.067902    0.728274    0.003456
H     -1.055442    1.791791    0.223079
H      1.295194   -0.326037   -1.147952
H      2.062823   -0.408221    0.460269
H      1.402404    1.206131   -0.127394
