15

C     -1.988238   -0.568251   -0.388339
C     -1.061491    0.211641    0.520687
H     -1.545004    0.353742    1.511214
C      0.203857   -0.543163    0.614621
H      0.317425   -1.547109    1.055555
C      1.150516    0.197487    0.081857
N      2.531171   -0.211558   -0.007164
H      2.845995   -0.650493   -0.908656
H      3.170285   -0.066453    0.804234
C      0.554147    1.428348   -0.366683
H      1.104825    2.245199   -0.854918
N     -0.709000    1.441283   -0.118334
H     -1.965184   -1.643297   -0.128928
H     -3.016226   -0.177380   -0.396041
H     -1.593077   -0.469995   -1.419104
