11

C      2.766767    0.398114   -0.007556
C      1.566131   -0.007561    0.245415
C      0.265172   -0.155874    0.066614
C     -0.424505   -1.127143   -0.761774
H      0.069744   -1.887568   -1.365088
C     -1.722809   -0.902534   -0.634045
N     -1.986591    0.165974    0.232516
H     -2.904986    0.590756    0.541383
N     -0.748014    0.637384    0.674158
H     -0.563341    1.440755    1.342464
H      3.682434    0.847697   -0.334087
