13

N      3.620710    1.015222    2.068180
C      2.845033    0.653088    1.287305
C      1.854036    0.210640    0.320487
N      0.627581   -0.002670    0.640115
C     -0.333284   -0.449760   -0.379423
H      0.097529   -0.781223   -1.337354
C     -1.687818   -0.843870   -0.021192
H     -2.004544   -0.972653    1.038216
H     -2.203176   -1.559670   -0.701781
C     -1.514863    0.535508   -0.532301
H     -1.798607    0.816960   -1.567554
H     -1.618933    1.337565    0.194601
H      2.116335    0.040864   -0.724814
