15

C      2.185871   -0.342255    0.402291
C      0.713520   -0.163365    0.186313
C      0.168154    0.586561   -0.756572
H      0.728020    1.171001   -1.497961
C     -1.283217    0.526447   -0.671018
N     -2.086326    1.154396   -1.458213
H     -1.736705    1.773773   -2.242280
C     -1.614182   -0.367942    0.460006
H     -2.228455   -1.240302    0.142516
H     -2.125857    0.193021    1.293154
N     -0.315978   -0.768938    0.957469
H     -0.117664   -1.421414    1.779640
H      2.397971   -0.705225    1.429286
H      2.634572   -1.039179   -0.317669
H      2.680276    0.643421    0.293038
