11

C      2.268050   -1.237500   -0.112952
C      1.312611   -0.514874   -0.302467
C      0.158576    0.355144   -0.505418
N     -1.021471   -0.400793   -0.177033
C     -2.234261    0.365697   -0.342600
H     -3.066411   -0.016817    0.272649
H     -1.056877   -1.345646   -0.574119
C      0.196857    1.517271    0.392189
N      0.223944    2.419606    1.114338
H      0.125402    0.718020   -1.573902
H      3.093581   -1.860108    0.069111
