9

N      3.046396    0.916432   -0.617765
C      1.927237    0.568338   -0.537642
C      0.554120    0.152239   -0.462388
C     -0.273122    0.156745    0.628362
H     -0.027882    0.474641    1.612799
N     -1.450208   -0.316093    0.217061
N     -1.401321   -0.614764   -1.069867
H     -2.187471   -1.000995   -1.633078
N     -0.187749   -0.336542   -1.503140
