12

C     -0.951202    0.163284   -1.621743
C     -0.761267    0.130411   -0.094188
C      0.628979   -0.229655    0.165120
C      1.237479   -0.154838    1.511064
C      1.693515   -0.109101    2.548304
H      2.136456   -0.083259    3.567749
O      1.365307   -0.621912   -0.771645
H     -1.372996   -0.747635    0.283838
H     -1.110614    1.061860    0.348749
H     -0.678434   -0.811613   -2.068755
H     -1.979518    0.496803   -1.838309
H     -0.207706    0.905655   -2.030184
