14

C     -0.560517    1.425183    0.560217
C     -0.169231    0.106374   -0.092740
C      1.021083   -0.529388    0.602517
N      2.142379    0.069666    0.247498
C      3.554871    0.833840   -0.186040
H      1.106271   -1.624606    0.395672
H      0.954772   -0.357491    1.711324
C     -1.112944   -0.911710   -0.095836
C     -1.980655   -1.853056   -0.120864
H     -2.736605   -2.668960   -0.135200
H      0.203517    0.289871   -1.174542
H     -0.886199    2.111929   -0.267155
H     -1.631571    1.203841    1.047070
H      0.094830    1.904507    1.209393
