14

C     -1.104202    0.206804    0.264035
N     -2.437027   -0.315051    0.635903
H     -2.341179   -1.124743    1.249515
H     -3.066519    0.435086    0.950873
O     -0.688225   -0.570288   -0.790437
C      0.364865   -1.151203   -0.950637
N      1.384374   -1.074239    0.038786
C      1.922640    0.228323    0.285108
N      1.435527    1.173870   -0.441580
H      1.768702    2.150435   -0.328763
H      2.673192    0.468023    1.004442
H      1.774688   -1.862701    0.579015
H     -1.224163    1.282804    0.018762
H     -0.462674    0.152880    1.186291
