21

C     -1.202607    1.601043   -0.433479
C     -0.383126    0.365619   -0.721238
C      1.072992    0.655269   -0.436020
C      1.860165   -0.601060   -0.734762
C      2.991464   -0.712956    0.246481
H      2.665950   -1.101049    1.244666
H      3.449136    0.275658    0.383966
H      3.740631   -1.401035   -0.174119
H      1.153035    0.849373    0.659229
H      1.463118    1.515106   -1.015325
C     -0.818418   -0.737161    0.216678
C     -2.292840   -1.054503    0.018126
H     -2.391999   -1.583977   -0.970252
H     -2.904669   -0.152816    0.014671
H     -2.621223   -1.751605    0.807474
H     -0.721821   -0.371433    1.268066
H     -0.268629   -1.673885    0.055426
H     -0.549107    0.049740   -1.768978
H     -1.910490    1.846125   -1.257971
H     -1.813465    1.502383    0.495367
H     -0.518097    2.481164   -0.276111
