13

C      2.067885    0.057102    0.164208
C      0.669114    0.128637   -0.204534
O      0.455726   -0.076827   -1.404956
N     -0.591056    0.354759    0.311370
H     -0.850881    1.359726    0.422954
C     -1.824289   -0.182025   -0.445149
H     -2.729021    0.425527   -0.442633
H     -1.633815   -0.584885   -1.456326
C     -1.353543   -0.769609    0.682963
H     -1.791569   -0.744995    1.686082
H      2.474066   -0.941331   -0.126533
H      2.740766    0.773055   -0.401227
H      2.366617    0.200865    1.213781
