15

C     -2.105345   -0.566108    0.047390
C     -1.077086    0.406495   -0.534757
C      0.241890   -0.238166   -0.388209
C      1.246362    0.278169    0.307227
O      1.059223    1.498561    0.940764
H      1.515798    2.304502    0.497910
N      2.452258   -0.452592    0.359282
H      2.462164   -1.355887    0.859283
H      3.320204   -0.114773   -0.084180
H      0.363336   -1.205501   -0.900990
H     -1.333503    0.518200   -1.608847
H     -1.092925    1.373603    0.006942
H     -2.404466   -1.296596   -0.747853
H     -3.022949   -0.054249    0.356157
H     -1.624960   -1.095658    0.889880
