16

C      2.373609   -0.037812   -0.048872
N      0.954584   -0.113358   -0.081170
C      0.242823   -1.013360   -0.685895
H      0.523196   -1.875636   -1.268462
C     -1.140452   -0.609818   -0.409117
H     -1.972371   -1.121257   -0.763399
C     -1.037440   -0.258565    1.079435
H     -1.928510    0.229903    1.485658
H     -0.567842   -1.053324    1.657631
C     -0.023092    0.750596    0.521899
H      0.233078    1.586447    1.094888
C     -1.033532    0.906804   -0.623180
H     -1.931939    1.429071   -0.298705
H     -0.581044    1.196623   -1.584664
H      3.001012   -0.302623   -0.906179
H      2.887921    0.286309    0.830133
