16

C     -0.774156    1.525581    0.207946
C     -0.113829    0.165380    0.106873
C      1.359087    0.118577    0.407039
H      1.685085    0.772199    1.219526
C      2.043366   -1.220005    0.314721
N      2.310651   -0.089632   -0.657337
H      1.981528   -0.360340   -1.607892
C     -0.883972   -1.010723    0.686576
H     -0.318218   -1.891338    1.045420
H     -1.837962   -0.833568    1.179346
C     -0.751067   -0.798851   -0.808547
H     -1.696669   -0.510341   -1.294567
H     -0.135793   -1.496033   -1.406448
H     -1.326252    1.729261   -0.738434
H     -0.026328    2.330172    0.308146
H     -1.515472    1.569659    1.037632
