11

O      0.287027    1.763763   -0.740766
C      0.106423    0.855335   -1.525036
N     -0.112264   -0.464390   -1.104208
C     -0.166942   -0.984298    0.185665
C     -0.046865   -0.487587    1.375964
C      0.197000    0.839926    1.805469
N      0.397864    1.930083    2.179637
H     -0.151613   -1.227527    2.250003
H     -0.363055   -2.105521    0.174896
H     -0.261148   -1.187068   -1.914184
H      0.113573    1.067284   -2.591610
