16

C      1.689456   -0.338052   -0.102630
H      2.441706    0.473041   -0.192729
H      2.276971   -1.287890    0.011996
C      0.872608   -0.469155   -1.349877
C     -0.543795   -0.025019   -1.141952
H     -1.161511    0.009354   -2.029078
C     -1.167309   -0.707401    0.078981
H     -2.254839   -0.542794    0.078303
H     -0.858669   -1.741209    0.240967
C     -0.395807    0.333895    0.901366
H     -0.875725    0.644830    1.823448
C     -0.531444    1.250329   -0.291075
H     -1.545155    1.723158   -0.265864
H      0.296228    1.930209   -0.486947
N      0.922621   -0.173602    1.093317
H      0.834662   -1.079696    1.631774
