10

C      0.138087    0.580338    0.934805
C     -0.547642   -0.105141   -0.313524
C     -0.052910    0.573070   -1.420614
N      0.372477    1.190146   -2.423875
N      0.079890   -1.478163   -0.117132
C      0.572156   -2.543021    0.015245
H     -1.571832   -0.191924   -0.178951
H     -0.239797    1.560761    1.075667
H     -0.015764   -0.158477    1.729375
H      1.265335    0.572412    0.699004
