18

C      1.418823   -1.189958   -0.157676
C      0.501119   -0.086990    0.261712
H      0.322016   -0.079862    1.347776
C      1.109022    1.222569   -0.217513
H      2.037484    1.481475    0.298093
H      1.176553    1.190047   -1.318074
N     -0.005692    2.107582    0.121477
H     -0.197075    1.906186    1.138686
C     -1.073225    1.441475   -0.623334
C     -0.802446   -0.053327   -0.485792
C     -1.958320   -0.614400    0.310822
H     -1.731873   -0.709855    1.383078
H     -2.861796    0.033302    0.179791
H     -2.198700   -1.620428   -0.102652
H     -0.723755   -0.526194   -1.491762
H      1.156849   -1.648513   -1.125653
H      2.477799   -0.849169   -0.126638
H      1.353216   -2.003940    0.607660
