16

C     -1.137010   -1.155738   -0.593485
C     -0.300742    0.106511   -0.760157
C     -0.858785    1.134138    0.178812
H     -1.632956    1.736963   -0.355540
H     -1.410299    0.634540    1.022399
H     -0.135705    1.826022    0.593293
C      1.150396   -0.202860   -0.520930
C      1.985538    1.026176   -0.680782
H      1.838008    1.794499    0.076650
O      1.353207   -0.809499    0.728529
H      2.225138   -1.300795    0.641961
H      1.464117   -0.930840   -1.290714
H     -0.407697    0.459210   -1.794925
H     -0.810432   -1.774796    0.248896
H     -1.147613   -1.732109   -1.547230
H     -2.175164   -0.811421   -0.403899
