16

C      1.909564   -0.423565    0.545593
C      1.540333    0.659706   -0.375395
C      0.359342    0.771359   -0.955103
C     -0.679641   -0.263204   -0.665660
H     -0.407074   -1.271030   -1.088842
N     -1.931314    0.119250   -1.128709
C     -2.454420    0.141840   -0.023345
H     -3.484952    0.381408    0.308084
C     -1.260367   -0.250038    0.675253
H     -0.853221    0.477910    1.415261
H     -1.348416   -1.286984    1.084089
H      0.100553    1.573466   -1.632183
H      2.275390    1.434632   -0.610453
H      2.575661   -1.181434    0.036682
H      2.578070    0.017283    1.342565
H      1.080494   -0.900599    1.072163
