12

C      2.176085   -1.282357    0.050664
C      1.292335   -0.475216   -0.101779
C      0.234318    0.522433   -0.276875
C     -0.938731    0.226958    0.597593
C     -1.922509   -0.523030    0.131518
H     -2.765774   -0.740342    0.748403
H     -1.889813   -0.923626   -0.869258
H     -0.923754    0.649147    1.585845
O      0.678127    1.801592    0.012054
H      1.146101    2.230096   -0.733573
H     -0.051167    0.514670   -1.349978
H      2.964781   -2.000325    0.205386
