12

O      1.632828    0.249879    0.977498
C      1.452157    0.427656   -0.386454
C      0.361158   -0.074296   -0.934829
C     -0.593318   -0.788505   -0.072313
H     -0.112660   -1.453728    0.672069
C     -1.770641    0.066268    0.375970
H     -1.920054    1.051526   -0.108073
H     -1.989233   -0.013918    1.439138
O     -1.883482   -1.028104   -0.470538
H      0.201925    0.056252   -2.009359
H      2.199742    0.971637   -0.986822
H      2.421577    0.535333    1.503712
