10

C      1.486449    0.158936    0.106805
C      0.025054    0.014590    0.001256
C     -1.177035    0.718576    0.170891
H     -1.640478    1.647476    0.441239
C     -1.231681   -0.698779   -0.273253
H     -1.540413   -1.481687    0.446108
H     -1.528504   -0.922602   -1.319574
H      1.940458   -0.615343   -0.545854
H      1.867197   -0.004688    1.148438
H      1.798952    1.183519   -0.176055
