15

C     -2.047942   -0.989123    0.149110
O     -1.279532   -0.355672   -0.831790
C     -0.255612    0.500666   -0.456744
C      0.927121    0.082684   -0.045220
C      1.853703   -0.975358    0.265915
H      1.720799   -1.608984    1.165422
H      2.394885   -1.497530   -0.551324
N      2.270027    0.403531    0.434228
H      2.992294    1.107057    0.700282
N     -0.517767    1.895087   -0.527881
H      0.012441    2.533378   -1.159609
H     -1.271007    2.290025    0.077730
H     -2.819016   -1.635324   -0.323618
H     -2.578307   -0.181170    0.720121
H     -1.402088   -1.569267    0.836477
