12

O      2.276949    0.980152    0.097958
C      1.145853    0.418284    0.013471
N     -0.117085    1.051707   -0.008114
H     -0.272659    1.624928    0.860553
H     -0.173875    1.669820   -0.869161
C     -1.089649    0.011466   -0.112925
H     -1.828595    0.074142    0.723417
H     -1.634419    0.104941   -1.105066
C     -0.390887   -1.307950   -0.156858
H     -0.706835   -1.958974    0.709044
N      0.999729   -0.979876   -0.073929
H      1.791474   -1.688640   -0.078390
