19

C      3.020800   -0.474450   -0.001405
C      1.657182    0.069760   -0.261903
C      0.577350   -0.647761   -0.001640
C     -0.793859   -0.143807   -0.245995
O     -1.353222    0.167865    0.992843
C     -2.514609   -0.561053    1.245646
H     -2.873202   -0.239863    2.244504
H     -2.229251   -1.638731    1.243530
H     -3.274733   -0.352849    0.455645
C     -0.790865    1.122041   -1.072497
H     -1.822014    1.367577   -1.320554
H     -0.386488    1.932197   -0.433523
H     -0.187108    0.969997   -1.981307
H     -1.360422   -0.900055   -0.798082
H      0.691958   -1.645585    0.406992
H      1.532479    1.071377   -0.672421
H      3.188332   -0.578586    1.091938
H      3.142761   -1.467248   -0.487036
H      3.774910    0.245284   -0.404733
