11

O     -2.733404   -0.129697    0.959094
C     -1.628918    0.391567    0.839161
C     -0.741437   -0.169361   -0.214484
N      0.518570    0.509665   -0.294282
C      1.316618   -0.135382   -1.314648
O      2.640980   -0.318770   -0.930639
H      2.760416   -0.531106    0.019206
H      0.996462    0.658295    0.606598
H     -0.552638   -1.228256    0.053736
H     -1.207980   -0.155026   -1.210865
H     -1.368669    1.203902    1.487122
