14

C      2.292256    0.416456    0.388541
N      1.365338   -0.139831   -0.565186
H      1.780258   -0.614161   -1.404039
C      0.002506   -0.233338   -0.274759
C     -1.023265   -0.860450    0.277918
C     -2.386005   -0.346912    0.204076
N     -2.572890    0.760838   -0.428530
H     -3.523510    1.176301   -0.514377
H     -3.221076   -0.858815    0.654870
H     -0.881185   -1.796564    0.815246
N      0.440193    0.905150   -1.033446
H      3.236159    0.644672   -0.170168
H      1.884176    1.300086    0.898212
H      2.607044   -0.353431    1.151643
