14

C     -0.072310    1.262578   -0.260162
N     -0.283715   -0.043658    0.307219
C      0.913489   -0.788098    0.427636
C      2.205042   -0.162059    0.481027
N      3.258371    0.357043    0.543755
H      0.852902   -1.882495    0.482152
C     -1.323740   -0.759749   -0.385991
H     -2.035268   -1.270145    0.309216
H     -0.836024   -1.586102   -0.956405
H     -1.907328   -0.115256   -1.041105
H     -0.640281    0.110523    1.294650
H     -0.076838    2.062539    0.529133
H     -0.944339    1.487326   -0.909537
H      0.890040    1.327552   -0.821587
