13

C      1.785196    0.460582    0.257665
N      0.379235    0.106919    0.058490
C     -0.578125    0.745197   -0.667388
O     -0.523185    1.815376   -1.368864
C     -1.584046   -0.232716   -0.323194
H     -1.926612   -0.835461   -1.226258
H     -2.476702    0.146147    0.241906
C     -0.535793   -0.902810    0.452251
H     -0.170079   -1.892810    0.093045
H     -0.777733   -0.904022    1.550715
H      2.370504    0.146197   -0.649087
H      1.880640    1.513277    0.500065
H      2.156701   -0.165876    1.080654
