14

C     -0.820963   -0.269430    0.667301
C     -0.188457    1.000313    0.163681
C      1.048113    0.908567   -0.315950
C      1.716987   -0.425364   -0.320641
H      1.179986   -1.176674   -0.929327
H      2.739420   -0.263609   -0.740313
H      1.879958   -0.798837    0.715306
H      1.541398    1.818671   -0.702028
H     -0.744799    1.938620    0.202714
C     -2.033751   -0.471684   -0.152639
O     -2.868037    0.397956   -0.188836
H     -2.160546   -1.372879   -0.706414
H     -1.142917   -0.158054    1.726773
H     -0.146390   -1.127598    0.580373
