14

O      0.616548    0.230102    1.603738
C      0.807474    0.343616    0.231783
H      1.473142    1.224720   -0.033563
C      1.304959   -0.882976   -0.458017
H      2.254075   -0.741768   -1.032193
H      1.426865   -1.781862    0.194999
C      0.088425   -0.877415   -1.316671
C     -0.394723    0.346476   -0.618751
C     -1.710883    0.023439    0.070508
H     -1.574562   -0.721531    0.864528
H     -2.198647    0.909765    0.495116
H     -2.350473   -0.452319   -0.711302
H     -0.492569    1.243547   -1.271166
H      0.750367    1.136206    1.980990
