15

C      1.790968    0.152882   -0.848867
H      1.324591    0.759478   -1.629655
H      2.860618    0.028768   -0.792218
C      0.981998   -1.006578   -0.310511
H      1.333049   -1.996156   -0.240486
C      1.102026    0.175119    0.489852
H      1.699014    0.186859    1.392343
C     -0.318246    0.354723    0.529634
H     -0.661734   -0.119639    1.605086
C     -1.455650    0.895781   -0.025840
H     -1.412200    1.617669   -0.901359
H     -2.316652    1.232286    0.624458
C     -1.762367   -0.453477   -0.544958
H     -2.651460   -1.022171   -0.884466
C     -0.513954   -0.805543   -0.474651
