14

C     -0.302396    1.325998    0.301875
N      0.046799   -0.023895   -0.042696
C      1.450377   -0.389553    0.047799
H      1.749071   -0.780043   -0.956178
H      2.079514    0.525076    0.216886
H      1.620883   -1.161956    0.824492
C     -0.704243   -0.542120   -1.199576
H     -1.587131    0.025531   -1.535776
C     -0.870995   -1.101839    0.208690
H     -1.801076   -0.908152    0.759548
H     -0.480110   -2.120327    0.309649
H     -0.805966    1.424314    1.279563
H     -1.014908    1.789638   -0.441604
H      0.620179    1.937329    0.227328
