13

N     -1.678893   -0.812844    0.195398
C     -1.579609    0.516186   -0.277517
O     -2.722524    1.296364   -0.542912
C     -0.407383    1.069181   -0.485801
N      0.776789    0.324751   -0.233520
C      1.860505   -0.307700   -0.637844
H      2.497097   -0.633866   -1.465258
C      1.599153   -0.258959    0.809497
H      2.238604    0.429502    1.423776
H      1.144225   -1.116449    1.323997
H     -0.289660    2.079875   -0.845884
H     -2.555594   -1.121483    0.651038
H     -0.882710   -1.464556    0.085030
