11

N     -2.051107    0.628057    0.064177
C     -0.961289   -0.265967    0.246802
O     -1.218356   -1.389718    0.779330
C      0.388980    0.089043   -0.157754
C      1.416817   -0.722627    0.000893
O      2.678561   -0.319077   -0.408120
H      2.889966    0.670572   -0.272175
H      1.219715   -1.684775    0.452552
H      0.544531    1.057912   -0.604541
H     -3.008955    0.280193   -0.172975
H     -1.898863    1.656386    0.167641
