13

N     -1.778511   -0.322338    1.219215
C     -1.213436    0.065195   -0.014925
C      0.194124    0.424051   -0.213556
O      1.070578   -0.639578    0.124833
C      2.440132   -0.457342   -0.008686
O      2.950244    0.628261   -0.423890
H      3.149311   -1.237271    0.236141
H      0.487908    1.351864    0.324062
H      0.360502    0.629090   -1.288071
N     -2.023281    0.095213   -1.020374
H     -1.685176    0.370989   -1.966826
H     -2.285594   -1.215775    1.289541
H     -1.666802    0.307641    2.027022
