15

C      2.818579    0.717221    0.570376
O      1.866834    0.702792   -0.389126
C      0.829297    0.074008   -0.287241
C     -0.150906   -0.833224    0.375411
H      0.071523   -1.855404    0.601799
C     -1.417643   -0.282181    0.939142
H     -1.310922    0.465474    1.749595
H     -2.153751   -1.112254    1.149028
C     -1.715113    0.318005   -0.411343
H     -1.716733    1.433856   -0.368804
H     -2.630210   -0.061490   -0.905842
C     -0.484211   -0.269476   -0.923013
H     -0.422419   -0.786990   -1.908902
H      3.395438   -0.141823    0.840805
H      3.020237    1.631484    1.107932
