11

N      2.242406    0.395994   -0.212230
C      0.821463    0.151771   -0.126952
C     -0.167038    1.088284    0.054587
H     -0.011005    2.171534    0.161921
N     -1.347754    0.459513    0.078405
H     -2.309364    0.896665    0.202652
C     -1.120345   -0.852287   -0.084464
H     -1.881317   -1.646487   -0.112067
N      0.201039   -1.034083   -0.208932
H      0.706601   -1.953676   -0.350458
H      2.865313    0.322772    0.597537
