12

O     -1.767041    0.928333    0.002935
C     -1.316158   -0.365002    0.110250
C      0.127532   -0.464333    0.521782
N      1.020200    0.161361   -0.377444
C      2.126682    0.606969    0.061069
H      2.358269    0.497558    1.106895
H      2.786737    1.082326   -0.663679
H      0.290336   -0.027127    1.548803
H      0.421662   -1.529806    0.608643
H     -1.914778   -0.916307    0.868966
H     -1.416513   -0.864887   -0.869660
H     -2.716927    0.890916   -0.270791
