12

N      2.037198   -0.035325    0.264078
C      0.621318    0.086751    0.053934
C     -0.102653    1.225436   -0.477088
H      0.384501    2.146162   -0.783646
C     -1.384297    0.958003   -0.518600
C     -1.586064   -0.398451   -0.007881
H     -2.307607   -0.419004    0.855830
H     -1.977067   -1.089131   -0.818093
N     -0.308507   -0.908012    0.338947
H     -0.296222   -1.287655    1.295560
H      2.377639   -0.998596    0.018769
H      2.541761    0.719824   -0.221810
