11

N     -1.516009   -0.010649   -1.040834
C     -0.554123   -0.240794   -0.216429
C      0.193275    0.866436    0.428984
N      1.570824    0.824306    0.112752
C      2.707123    0.791568   -0.132962
H      0.106078    0.769454    1.546507
H     -0.276846    1.819802    0.162737
N     -0.236447   -1.603504    0.051037
H     -0.120162   -1.891221    1.026971
H     -0.119352   -2.309399   -0.697174
H     -1.754362    0.984000   -1.241589
