11

C      3.457941    0.287585    0.804706
C      2.191148    0.308891    0.493761
C      0.770506    0.344188    0.159028
O      0.088370    1.284864   -0.129441
C     -1.155536    0.957446   -0.206671
H     -1.962528    1.642885   -0.402587
C     -1.456732   -0.258916   -0.060652
H     -2.297503   -0.794395   -0.046847
C      0.005948   -0.927863    0.098443
H      0.143473   -1.049903   -1.210675
H      0.214913   -1.794784    0.500935
