14

O      2.352797    1.347719    0.576848
C      1.882711    1.094263   -0.508456
C      0.648257    0.255925   -0.694819
C      0.192354   -0.147744    0.690215
C     -1.027643   -0.985899    0.656615
C     -2.122150   -0.577969    1.263361
H     -2.150847    0.364050    1.790651
H     -3.015185   -1.180604    1.244787
H     -1.034461   -1.928118    0.141724
H      0.997005   -0.744490    1.177912
H      0.072585    0.757837    1.320003
H      0.943351   -0.597617   -1.312085
H     -0.071389    0.879069   -1.221657
H      2.332615    1.463579   -1.423785
