15

C     -1.615471    0.932624   -0.345708
C     -0.733410   -0.045840    0.364722
O     -1.250222   -0.522205    1.565756
H     -1.865609   -1.277885    1.308008
C     -0.027320   -1.131188   -0.441584
H      0.241702   -2.071539    0.050371
H     -0.266474   -1.132081   -1.521278
C      0.691232    0.055311    0.130463
C      1.861644    0.656614    0.252982
O      3.003670    0.107833   -0.317655
H      3.438906   -0.699672    0.122705
H      2.001695    1.592240    0.792608
H     -2.571129    0.427653   -0.586757
H     -1.131087    1.305515   -1.261825
H     -1.778126    1.802622    0.340289
