13

C     -1.764974    0.020489   -0.635644
C     -0.499525   -0.694390   -0.249118
H     -0.657607   -1.784292   -0.034146
N      0.633188   -0.367791   -1.081438
H      0.615706    0.530667   -1.588984
H      1.256727   -1.146492   -1.329211
C      0.608349   -0.064300    0.393091
C      1.406163    0.514003    1.440560
C      2.070657    1.019851    2.316648
H      2.657301    1.457377    3.109456
H     -2.429364    0.244307    0.207234
H     -1.560775    0.953653   -1.238342
H     -2.335847   -0.683083   -1.310106
