14

O     -2.186578   -0.498451    0.608222
C     -2.017849    0.504679   -0.338811
H     -1.792732    1.517582    0.074715
H     -2.529491    0.467053   -1.300593
C     -0.992907   -0.569463   -0.086018
C      0.272600   -0.144346    0.614683
C      1.483515   -0.282255   -0.278840
O      2.598898    0.129843    0.446214
H      2.633647    1.122506    0.375530
H      1.299825    0.355938   -1.166064
H      1.547854   -1.345931   -0.576105
H      0.409741   -0.761806    1.523772
H      0.180085    0.917301    0.908436
H     -0.906608   -1.412652   -0.805142
