12

C      1.969166   -0.112537    0.037476
N      0.561486    0.084353    0.027530
C     -0.292123   -0.872672   -0.100386
H     -0.044441   -1.905236   -0.211625
C     -1.645628   -0.307750   -0.067426
H     -2.192639   -0.678992    0.800604
H     -2.137262   -0.502400   -1.040085
N     -1.429403    1.099368    0.096839
C     -0.143338    1.312208    0.150398
H      0.306978    2.295605    0.272046
H      2.633104    0.283300    0.783071
H      2.414101   -0.695246   -0.748442
