13

C      2.167968    0.623696    0.557731
O      1.115896   -0.084593    1.189586
C      0.308342   -0.912398    0.386403
C     -0.840634   -0.429014   -0.073740
C     -2.064141   -0.525706   -0.814984
H     -1.988269   -0.493843   -1.928687
H     -2.982462   -0.997960   -0.457390
N     -1.729320    0.719774   -0.111197
H     -1.970006    1.702709    0.154738
H      0.651247   -1.915898    0.170655
H      2.679996    1.211442    1.350888
H      2.867130   -0.136421    0.120715
H      1.784254    1.238210   -0.260230
