9

O     -1.730527    0.592411    1.847233
C     -1.076068   -0.172485    1.091560
C     -0.066732   -0.801477    0.562257
C      0.498110   -0.251055   -0.697591
C      0.260519    1.171341   -0.746682
N      0.073337    2.331455   -0.767470
H      0.059061   -0.759940   -1.574863
H      1.606005   -0.418898   -0.699519
H      0.376296   -1.691352    0.985074
