10

O      0.242908    1.897287    0.613863
C      0.133499    0.762219    0.231751
C      1.169751   -0.277258   -0.020862
H      1.637599   -0.596869    0.955064
H      1.924784    0.035508   -0.762026
C      0.337000   -1.417032   -0.466444
O     -0.826313   -1.153924   -0.479663
C     -1.150189    0.090967   -0.098601
H     -1.719996    0.008791    0.873317
H     -1.749042    0.650311   -0.846398
