14

C     -2.321542    0.346284    0.594733
C     -0.926408    0.376774    0.016917
O     -0.088465   -0.461103    0.765652
C      1.170032   -0.389061    0.187441
O      2.087747   -1.172165    0.835286
C      3.264245   -0.886019    0.683026
H      3.615897   -0.061879    0.074821
H      1.565791    0.647475    0.147342
H      1.066634   -0.835269   -0.840522
H     -0.921217   -0.023520   -1.023614
H     -0.570034    1.416286    0.018316
H     -2.783793   -0.645729    0.500533
H     -2.942709    1.092622    0.061476
H     -2.216177    0.595305    1.679904
