11

C     -1.108062   -0.729475    0.276703
C     -0.315851    0.483581   -0.005809
O      0.962069    0.706148    0.473215
C      2.037999   -0.123117    0.191691
O      1.799683   -1.124721   -0.544364
H      3.026813    0.085740    0.587011
C     -0.837572    1.412236   -0.750901
O     -1.495546    2.367080   -1.243396
H     -0.491372   -1.610990    0.509652
H     -1.761189   -0.996481   -0.589976
H     -1.816972   -0.470000    1.096175
