12

O      2.180756   -0.210024   -0.381831
C      1.033358   -0.015041    0.365783
C     -0.212210   -0.313510   -0.431788
H     -0.168887   -1.267806   -0.990248
C     -1.471382   -0.118796    0.327905
H     -1.302323    0.179290    1.385640
H     -2.182829   -0.984630    0.226333
O     -1.719303    0.887848   -0.514738
C     -0.731405    0.815646   -1.193326
H      1.050051   -0.659202    1.276159
H      1.015501    1.031520    0.695368
H      2.508674    0.654703   -0.765259
