16

O      3.512478   -0.298544   -0.329194
C      2.254720    0.115819   -0.750216
C      1.193524   -0.599145   -0.432672
C     -0.188137   -0.212086   -0.852109
C     -1.051861    0.000037    0.393970
C     -2.442739    0.390583   -0.059955
H     -2.644012   -0.209782   -0.986282
H     -3.199579    0.144888    0.690958
H     -2.502098    1.484611   -0.294488
H     -0.591568    0.744950    1.066796
H     -1.155705   -1.003060    0.877308
H     -0.575975   -1.025164   -1.467547
H     -0.173252    0.702837   -1.434548
H      1.350395   -1.495525    0.153681
H      2.126655    1.013439   -1.333688
H      4.087153    0.246144    0.300864
