11

N     -1.041652    0.019088    0.913458
H     -1.977484    0.331324    1.070893
C     -0.698759   -0.908716   -0.101478
H     -1.617071   -1.251691   -0.664968
C     -0.301621    0.526787   -0.175671
H     -0.730546    1.228355   -0.924849
C      1.173384    0.482008    0.024118
H      1.627673    1.179169   -0.677121
H      1.471379    0.768910    1.080356
O      1.495649   -0.814735   -0.241720
C      0.599048   -1.560500   -0.303018
