15

C     -0.472952   -1.380343   -0.028521
C     -0.490051    0.112453    0.134420
C     -1.753943    0.771329   -0.433572
H     -1.530160    1.039854   -1.480380
H     -2.629809    0.105862   -0.342187
H     -1.986744    1.715519    0.122545
C      0.673846    0.924001    0.226629
C      2.003512    0.323127    0.290248
C      3.103683   -0.170452    0.341765
H      4.090329   -0.598119    0.400616
H      0.606423    2.010044    0.022402
O     -0.119758    0.533207    1.421384
H      0.531264   -1.773832   -0.291711
H     -1.170756   -1.730519   -0.836475
H     -0.854884   -1.882130    0.905935
