12

N      2.304911    0.102844   -0.053389
C      1.035318   -0.004692   -0.036537
C      0.230417    1.132764    0.348129
H      0.714501    2.050334    0.613593
N     -1.036514    1.013676    0.361307
C     -1.741761   -0.194013    0.014594
H     -2.377632    0.059520   -0.876205
H     -2.379896   -0.458657    0.881791
N     -0.892329   -1.280388   -0.355979
C      0.399345   -1.257284   -0.399909
H      0.947601   -2.142537   -0.696181
H      2.796038    0.978433    0.198787
