10

O      1.521640   -1.495689    0.026540
C      1.729827   -0.410770   -0.580153
C      0.660246    0.599322   -0.581586
C     -0.477273    0.388640    0.025419
C     -1.482859   -0.278752    0.789889
H     -2.208984   -0.993547    0.365363
H     -1.495304   -0.230713    1.892991
O     -1.753276    1.087108    0.263585
H      0.861494    1.518968   -1.106862
H      2.644490   -0.184569   -1.095187
