9

C     -1.071442    0.023943   -0.301236
C      0.134295   -0.220542    0.517133
C      1.336169    0.135464    0.111602
H      2.242691   -0.023207    0.675667
H      1.466199    0.629978   -0.860816
H      0.035916   -0.705627    1.478783
H     -1.040260   -0.714440   -1.147048
H     -1.992891   -0.159579    0.268282
H     -1.110678    1.034009   -0.742369
