9

O      2.414137   -0.846859    0.022342
C      1.078996   -0.524726   -0.218188
C      0.536751    0.741638   -0.150034
H      1.111926    1.615447    0.101469
N     -0.763863    0.655605   -0.442744
H     -1.463823    1.412162   -0.483023
C     -1.022828   -0.637531   -0.687379
H     -1.990153   -1.081834   -0.960622
O      0.098857   -1.333904   -0.547478
