13

C      1.810535   -0.054189    0.437682
C      0.866546    1.071207    0.085700
H      1.367494    1.722208   -0.686005
H      0.522409    1.648919    0.974153
C     -0.101672    0.090747   -0.460513
C     -1.402922   -0.060455    0.288654
H     -2.235364    0.071959   -0.426316
H     -1.515122   -1.085440    0.709748
H     -1.522989    0.646629    1.116314
H     -0.242640    0.250720   -1.555449
C      0.830309   -1.031525   -0.113983
H      0.467129   -1.710689    0.681181
H      1.156288   -1.560090   -1.051167
