19

C     -2.265438    0.046762   -1.241540
C     -1.861601   -0.418911    0.104208
C     -0.621058   -1.114564    0.429373
C      0.611881   -0.388271    0.134479
C      1.457328   -0.935760   -0.714327
H      1.300901   -1.888529   -1.209154
H      2.371564   -0.416556   -0.944959
C      0.978185    0.926814    0.726645
C      2.318133    1.412891    0.218322
H      2.341512    2.512623    0.338756
H      3.167746    0.897716    0.701048
H      1.021027    0.900922    1.824332
H      0.239249    1.697070    0.355220
H     -0.625052   -1.399478    1.515268
H     -0.626361   -2.079582   -0.117466
H     -2.557499   -0.218677    0.908718
H     -3.063171   -0.619167   -1.630960
H     -1.450865    0.032026   -1.978789
H     -2.736480    1.052671   -1.123062
