17

C      2.735902   -0.294316    0.073442
N      1.352373   -0.718226    0.294814
C      0.358240    0.165227    0.299018
N     -1.031065   -0.140381    0.143854
C     -1.375233   -0.781450   -1.082393
H     -1.380537   -0.103361   -1.959706
H     -2.362430   -1.270521   -0.950416
H     -0.636741   -1.566952   -1.289377
C     -1.918087    0.909802    0.544893
H     -2.053195    1.691699   -0.222324
H     -2.884858    0.473082    0.893940
H     -1.464672    1.394337    1.447883
H      0.571398    1.272550    0.243774
O      0.904550   -0.346988    1.526689
H      3.332825   -0.732083    0.889914
H      2.812338    0.806674    0.034541
H      3.039193   -0.759094   -0.888548
