18

C      2.601633   -0.374204   -0.642577
C      1.443530    0.415362   -0.149105
C      0.167072   -0.391725   -0.019309
C     -0.890579    0.575755    0.492153
C     -2.225771   -0.107722    0.667603
C     -2.699088   -0.667471   -0.653072
H     -3.595456   -0.110170   -1.039649
H     -2.946636    0.691606    0.965988
H     -2.215548   -0.905413    1.406848
H     -0.504949    0.984398    1.447243
H     -1.015961    1.436220   -0.196230
H      0.255058   -1.214569    0.705132
H     -0.120904   -0.822007   -0.999142
H      1.202139    1.244343   -0.873077
H      1.692651    0.847391    0.839218
H      2.353287   -1.280755   -1.199294
H      3.311040   -0.594948    0.204539
H      3.188484    0.273909   -1.357157
