15

O      1.610710   -1.282082   -0.515590
C      1.005612   -0.045584   -0.661667
C     -0.114659    0.034197    0.364205
H      0.257804    0.138078    1.411755
C     -1.165833   -1.011673    0.223189
H     -1.035304   -1.657211   -0.684776
H     -1.319729   -1.603534    1.156426
C     -2.170546    0.034282   -0.071624
C     -1.129471    1.079702    0.067105
H     -1.296957    1.838101    0.871341
H     -0.901616    1.548191   -0.924138
O      1.862977    1.019533   -0.438515
H      1.776398    1.324415    0.518853
H      0.525060   -0.027454   -1.651471
H      2.095555   -1.388963    0.334905
