19

C     -2.370966    0.564284   -0.495965
C     -1.701951   -0.774825   -0.490622
H     -2.127456   -1.514667   -1.188558
C     -0.242801   -0.850526   -0.222810
O      0.478102    0.296480    0.093858
C      1.791471    0.119228   -0.260007
C      2.656864    1.301728    0.040341
H      3.694323    0.938920    0.190425
H      2.694512    1.966297   -0.851440
H      2.317478    1.854894    0.954209
H      1.851479   -0.063323   -1.366872
H      2.214494   -0.763468    0.294588
H      0.325181   -1.682536   -0.686010
C     -1.210993   -1.265760    0.877334
H     -1.382864   -0.586480    1.725676
H     -1.347673   -2.346447    1.055291
H     -2.238221    1.129857   -1.440568
H     -3.458768    0.483191   -0.256897
H     -1.942209    1.193153    0.324136
