14

C      1.258531   -1.615512   -0.097789
N      0.575069   -0.757648    0.584255
C      0.191155    0.498734    0.071691
N      1.156039    1.507232   -0.188108
H      2.158834    1.397776    0.114359
H      0.916917    2.392755   -0.685279
C     -1.076314    0.752164   -0.173498
O     -1.473047    1.998050   -0.683701
N     -2.118227   -0.175776    0.047139
H     -2.909706   -0.292083   -0.608181
H     -2.087057   -0.762618    0.899890
H      0.299625   -1.009853    1.550618
H      1.552745   -1.359035   -1.115052
H      1.555436   -2.574186    0.283654
