10

N      1.545952    0.210590    0.015407
C      0.136027    0.031890   -0.006894
N     -0.476924   -1.157505    0.009353
H     -0.000276   -2.101317    0.040334
N     -1.776692   -0.937286   -0.020199
N     -2.021387    0.356193   -0.054982
C     -0.842099    0.987270   -0.047561
H     -0.705529    2.055849   -0.069922
H      1.984574    0.268090    0.959673
H      2.156354    0.286226   -0.825210
