13

O      1.209847   -1.250743   -0.607028
C      1.394766    0.024030   -0.105265
H      2.424108    0.410506   -0.024592
C      0.243030    0.961352   -0.371584
H     -0.020656    0.916802   -1.446761
H      0.347366    1.993893   -0.042793
C     -0.597339    0.054372    0.504032
N     -1.700944   -0.579321   -0.164464
H     -1.388088   -0.855885   -1.112742
H     -2.482020    0.120487   -0.192325
H     -0.831007    0.527461    1.476115
C      0.632407   -0.843394    0.604343
H      0.768529   -1.479561    1.483064
