14

O      2.088516    0.603464   -0.085895
C      1.165706   -0.346889   -0.500954
C     -0.176606   -0.125723    0.071437
C     -0.920860    1.127444   -0.181986
N     -0.437783    2.062244   -0.899765
H      0.505209    1.957056   -1.326907
H     -1.903874    1.275447    0.243928
C     -0.700200   -1.081425    0.820379
O     -1.976781   -0.885269    1.371886
H     -2.784580   -1.121701    0.791631
H     -0.170961   -2.019019    1.023727
H      1.100606   -0.267694   -1.620477
H      1.520870   -1.371568   -0.302433
H      2.690738    0.193634    0.595429
