12

O      2.600195    0.656723   -1.171251
N      1.313664    0.194202   -1.094043
C      0.823310   -0.387683   -0.057227
C     -0.565542   -0.843343   -0.081514
N     -1.535701    0.220656   -0.086048
C     -1.575568    0.964446    1.149406
H     -1.598292    2.048601    0.861572
H     -2.483220   -0.141789   -0.321709
H     -0.761896   -1.438021    0.840441
H     -0.792977   -1.497969   -0.966458
H      1.468754   -0.513505    0.794901
H      3.107273    0.737681   -0.281659
