9

O     -0.726129   -0.987459    0.757687
C     -1.135034   -0.263798   -0.342773
H     -2.020250    0.378498   -0.317853
H     -0.871846   -0.716030   -1.310681
C     -0.005833    0.184696    0.581657
C      1.314105    0.171951   -0.047443
O      1.638764   -0.654529   -0.878863
H      2.036173    0.928293    0.235758
H     -0.229949    0.958379    1.322511
