11

N      1.805664   -0.249208   -0.093096
C      0.428726    0.062466    0.010361
C     -0.174271    1.268805    0.281097
H      0.322584    2.220828    0.468068
N     -1.496947    1.042870    0.269783
C     -1.759272   -0.249957    0.004567
H     -2.750975   -0.694180   -0.061828
N     -0.553638   -0.832560   -0.151276
H     -0.469046   -1.869148   -0.372017
H      2.378942   -0.662462    0.651886
H      2.268233   -0.037454   -1.007545
