13

C     -0.525758   -1.387010    0.061423
C     -0.274392    0.009259   -0.466475
C     -0.969693    1.063058    0.369622
H     -0.556952    2.050148    0.011908
H     -2.048333    1.023821    0.233745
H     -0.662529    0.966596    1.414457
C      1.184063    0.226788   -0.420337
C      2.447675    0.467736   -0.313375
N      3.663888    0.674354    0.068577
H     -0.586756    0.049444   -1.510773
H     -0.051040   -1.460909    1.055764
H     -1.622285   -1.600317    0.116242
H      0.002112   -2.082968   -0.620778
