13

C      2.169377   -0.208502   -0.089523
N      0.727458   -0.064422   -0.033567
C     -0.128196   -0.985278   -0.280235
H      0.113908   -2.008732   -0.567534
C     -1.489605   -0.450103   -0.116381
H     -1.940952   -1.001669    0.760128
H     -2.112362   -0.572848   -1.024125
C     -1.284275    0.940166    0.267950
H     -2.038203    1.686349    0.483742
C      0.021606    1.118165    0.303063
H      0.542208    2.054943    0.557836
H      2.675105    0.106281   -0.982407
H      2.743931   -0.614350    0.721052
