11

C      2.992080    2.424254    0.069192
C      2.146394    1.393731    0.123238
C      0.937947   -0.081559    0.181076
C      0.247948   -0.948113    0.206992
C     -0.348904   -1.672905    0.223290
O     -1.820543   -1.567000    0.013085
C     -2.324529   -0.313025   -0.219715
H     -2.249861    0.095720   -1.354183
H     -2.776594    0.364866    0.420048
H     -0.436202   -2.885652    0.401128
H      3.632264    3.189684    0.031678
