10

N      0.580790   -0.907210   -0.119723
C      1.700753   -0.425715   -0.536802
H      2.116708    0.504182   -0.179759
H      2.243507   -0.990160   -1.282721
C     -0.230918   -0.276641    0.850250
O      0.089134   -0.359792    2.049498
C     -1.432846    0.454984    0.355036
H     -2.144327    0.698927    1.140011
H     -1.051444    1.422065   -0.053525
H     -1.871357   -0.120640   -0.496445
