12

C     -1.089157   -0.792933   -0.300887
C     -0.489066    0.587939   -0.180344
C      0.783935    0.587034    0.621181
N      1.744261   -0.240084    0.017439
C      2.550552   -0.925012   -0.469921
H      0.609686    0.248597    1.676324
H      1.116521    1.643006    0.702689
H     -1.202528    1.322416    0.242770
H     -0.243359    0.925005   -1.200275
H     -1.405900   -1.219211    0.663289
H     -2.002689   -0.704769   -0.926736
H     -0.372255   -1.431989   -0.845529
