11

O     -1.451413    1.884795   -0.076682
C     -0.700446    0.910000   -0.015134
O      0.645465    1.173587    0.178821
C      1.550083    0.064037    0.126456
H      2.536099    0.258953    0.473590
H      1.580218   -0.096980   -1.061194
C      0.862894   -1.181571    0.497793
O     -0.211838   -1.274709    0.329675
C     -1.171449   -0.525217   -0.175420
H     -1.929246   -0.549143    0.759435
H     -1.710366   -0.663752   -1.037339
