16

C      2.877780    0.082613   -0.303136
C      1.904015   -0.138444    0.838866
N      0.639702    0.478361    0.542507
C     -0.290512   -0.474695   -0.079070
C     -1.574265    0.248979   -0.351818
H     -1.525465    0.909401   -1.256116
C     -2.878642   -0.241766    0.044449
H     -2.957590   -1.234921    0.492710
H     -3.766949    0.180514   -0.457942
O     -2.189892    0.771357    0.785209
H      0.171363   -0.912180   -0.969342
H     -0.483160   -1.285887    0.660684
H      0.719320    1.323848   -0.055091
H      3.807078   -0.504597   -0.095514
H      2.454421   -0.361287   -1.232991
H      3.092795    1.158704   -0.447818
