8

N     -1.273577    0.724117    0.133649
C     -1.134267   -0.557795   -0.033516
N      0.177969   -1.046412   -0.269548
N      1.266045   -0.321642    0.093505
C      2.186710    0.313929    0.395826
H      3.022577    0.904446    0.678422
H     -2.009008   -1.155097    0.017194
H     -2.236449    1.138453    0.313304
