16

C      0.908905    1.878669    0.279426
C      0.316404    0.562437    0.132367
C      1.145105   -0.425055   -0.019140
C      1.995711   -1.432167   -0.114136
H      2.252105   -1.651251   -1.109596
H      2.287298   -1.860714    0.806272
C     -1.102833    0.191076    0.131449
H     -1.716304    0.846643    0.818804
C     -1.564741   -1.171073   -0.025793
H     -2.480645   -1.502914    0.530276
H     -0.806995   -1.973535   -0.121686
N     -1.742708   -0.216477   -1.102364
H     -2.727162    0.127342   -1.283485
H      1.776687    2.003217   -0.395746
H      0.138142    2.663686    0.151710
H      1.321030    1.960117    1.321644
