12

N      2.881798   -0.059499    0.365699
C      1.501680   -0.218304    0.333495
C      0.312130   -0.365490    0.307377
C     -1.152059   -0.526476    0.275254
O     -1.539379   -0.924633   -0.993879
H     -1.684021   -0.100379   -1.521802
C     -1.765303    0.807307    0.577789
O     -1.564846    1.361876    1.645014
H     -2.404030    1.311631   -0.148824
H     -1.411258   -1.247751    1.065730
H      3.350157    0.818963    0.660301
H      3.475130   -0.857244    0.081617
