15

O      2.667101   -0.754915   -0.270736
C      1.593912    0.119736   -0.555135
C      0.857166    0.307615    0.692324
C     -0.397159    0.013937    0.907172
C     -1.260959   -0.569359   -0.128807
C     -2.390287    0.339986   -0.375740
O     -3.274247    0.122697   -1.184475
H     -2.454097    1.260188    0.185861
H     -1.698861   -1.509229    0.341978
H     -0.762218   -0.920780   -1.041661
H     -0.838870    0.197797    1.875871
H      1.422546    0.741009    1.531695
H      1.052792   -0.204101   -1.428597
H      2.113357    1.100796   -0.777124
H      3.369823   -0.245377    0.227373
