9

O      1.347153   -0.000486    0.880490
C      0.497355    0.228278   -0.190300
H      0.984164    0.162949   -1.164160
C     -0.878234   -0.321881   -0.044700
H     -1.225582   -0.858780   -0.953072
H     -1.082662   -0.935268    0.843398
O     -1.351187    0.953637    0.061913
C     -0.253439    1.492537   -0.050437
H      1.962434   -0.720985    0.616868
