13

O     -1.386415    1.275881   -0.295508
C     -0.094037    1.164829   -0.164134
N     -0.067301    0.276816   -1.365214
C     -0.215890   -0.769471   -0.301006
H     -0.281301   -1.752658   -0.722872
C      1.107510   -0.465051    0.386812
H      1.893051   -0.893021   -0.211460
H      1.115900   -0.521135    1.449652
N      1.223128    1.070352   -0.004619
H      2.125051    1.480501   -0.007218
C     -1.508088   -0.217794    0.254983
H     -2.337150   -0.558732   -0.327837
H     -1.574459   -0.090518    1.308421
