12

C      1.887091    0.410470    0.619985
H      2.866295    0.889215    0.463042
N      1.747905   -0.869725   -0.166409
H      1.306761   -1.587712    0.422211
C      0.928281    0.315949   -0.534257
C     -0.506753    0.152787   -0.266946
C     -1.683571   -0.523732    0.272310
H     -1.926260   -0.532764    1.340954
H     -2.027514   -1.426484   -0.311504
N     -1.851773    0.703533   -0.431550
H     -2.007798    1.606289    0.035468
H      1.267337    0.862175   -1.443304
