11

C      0.111696    0.772573   -0.000289
H      0.157730    1.405414    0.910080
H      0.234370    1.434330   -0.863789
C      1.130727   -0.328848    0.083224
H      2.032789   -0.160266   -0.512630
H      1.324454   -0.560875    1.153989
C      0.387348   -1.461929   -0.498356
O     -0.796413   -1.260629   -0.561762
C     -1.164500   -0.053468   -0.051211
H     -1.949341    0.402001   -0.665104
H     -1.468860   -0.188303    1.005848
