10

O      1.834213    0.356192    0.153713
C      0.452056    0.229069    0.257002
C     -0.366329    1.259861    0.182310
H     -0.101466    2.288069    0.039222
N     -1.696779    0.788945    0.324542
N     -1.728194   -0.445379    0.478138
C     -0.380968   -0.959726    0.455854
H     -0.294685   -1.681809   -0.409805
H     -0.131584   -1.516501    1.390218
H      2.413736   -0.318721   -0.321246
