9

N      0.057230    0.427225   -0.216137
C     -1.367703    0.215717   -0.257902
H     -1.851543    1.215575   -0.230535
H     -1.631495   -0.381025    0.654927
H     -1.656706   -0.339438   -1.182900
C      0.940360   -0.451093   -0.477003
O      2.271567   -0.094009   -0.392695
H      2.616309    0.848311   -0.509231
H      0.621982   -1.441263   -0.754181
