14

C     -1.568048   -0.096601    0.572721
H     -2.616090   -0.337960    0.346929
H     -1.163585   -0.358939    1.560908
N     -0.998586    1.136850    0.036563
H     -1.697471    1.730310   -0.441042
C     -0.650870   -0.091136   -0.634212
C      0.672404   -0.744344   -0.401641
C      1.483720   -0.148129    0.651692
N      2.170654    0.900539    0.416700
H      2.205650    1.385991   -0.490410
H      1.517723   -0.579705    1.641832
H      0.490635   -1.838041   -0.271817
H      1.256492   -0.670325   -1.362819
H     -1.102629   -0.288510   -1.625404
