8

C     -1.282085    0.684116   -0.108800
C     -0.345298    1.552927   -0.067133
N      0.855396    1.216651    0.026391
C      1.211571   -0.146683    0.089031
H      2.268644   -0.455110    0.171696
N      0.266273   -1.013602    0.046669
C     -1.071880   -0.591031   -0.058853
H     -1.902620   -1.247268   -0.099000
