12

C     -1.630761    0.559627   -0.368590
C     -0.741595   -0.140426    0.637226
H     -0.722924    0.238761    1.683219
O     -0.630012   -1.556617    0.463737
C      0.487429   -0.831359    0.138460
C      1.724284   -0.657504   -0.281155
O      2.329951    0.591385   -0.376423
H      2.446929    1.101776    0.494872
H      2.294668   -1.532287   -0.565093
H     -2.316254   -0.177545   -0.816701
H     -1.028750    1.061780   -1.160066
H     -2.212963    1.342410    0.150514
