15

C      1.555349   -0.409191    0.277560
C      0.339374    0.049035   -0.504981
H      0.626597    0.147355   -1.551273
C     -0.801010   -0.902899   -0.329958
H     -0.548561   -1.803870    0.191121
H     -1.193746   -1.234481   -1.362116
N     -1.925612   -0.182761    0.196786
H     -2.130447   -0.498608    1.210061
C     -1.641776    1.224723    0.171076
C     -0.162433    1.367359   -0.004502
H      0.055147    2.166910   -0.708585
H      0.226550    1.597722    1.034736
H      1.317586   -0.690033    1.318800
H      2.008430   -1.259014   -0.264446
H      2.274553    0.427753    0.325722
