14

C     -2.309856   -0.318777    0.122753
O     -1.115942    0.086279   -0.448102
C     -0.164212    0.186788    0.562483
C      1.165158    0.624949    0.010122
H      1.147517    1.486855   -0.704733
O      2.152089    0.732439    1.036415
C      2.316108   -0.285647    0.065853
H      2.142703   -1.320110    0.394978
H      3.184404   -0.130151   -0.587283
H     -0.570712    0.897261    1.309665
H     -0.046569   -0.782033    1.081222
H     -3.059430   -0.394976   -0.692599
H     -2.602593    0.479922    0.864587
H     -2.238664   -1.262798    0.685952
