14

C      0.569947   -1.037409   -0.744620
C      0.373507    0.031362    0.286989
N      1.339083    0.796748    0.678678
O      2.578066    0.591246    0.102717
H      3.346594    1.264638    0.191352
C     -0.977400    0.206150    0.870104
C     -1.953936    0.550038   -0.212254
O     -2.370853   -0.269932   -0.994466
H     -2.297174    1.575661   -0.293784
H     -1.340843   -0.756533    1.336145
H     -0.997612    0.948075    1.681943
H      0.332881   -2.013321   -0.236057
H     -0.203812   -0.883429   -1.521158
H      1.601553   -1.003293   -1.145588
