12

N      0.153968    1.200026   -0.843356
C     -0.251570    0.208252    0.143433
H     -0.489182    0.725276    1.117601
C     -1.429098   -0.547614   -0.293153
H     -2.411787   -0.082080   -0.543468
O     -1.150761   -1.758700   -0.334513
N      0.136526   -2.044000    0.027135
C      0.776759   -0.821380    0.348932
N      2.002874   -0.695084    0.734819
H      2.443582    0.201018    0.962029
H      0.904671    1.774781   -0.367898
H     -0.685981    1.839504   -0.951560
