16

C      2.519066   -1.100231   -0.611486
C      1.007644   -0.975821   -0.779346
C      0.579612    0.461056   -0.676721
C     -0.503573    0.635611    0.371414
C     -1.708531   -0.176779    0.034720
C     -2.873406    0.391905   -0.155219
H     -3.733020   -0.194022   -0.396051
H     -2.962490    1.455564   -0.067576
H     -1.651401   -1.263773   -0.062005
H     -0.118023    0.414461    1.387696
H     -0.783332    1.705761    0.360513
H      1.414685    1.167358   -0.512451
H      0.113879    0.772010   -1.655391
H      3.043775   -1.144291   -1.576798
H      2.854988   -0.157619   -0.088452
H      2.800127   -1.991192   -0.029969
