14

C     -1.177522   -1.197088    0.006219
C     -0.394005    0.077632    0.326946
C      1.034825   -0.166013    0.441717
C      2.021752    0.482377   -0.122754
H      3.076292    0.176012    0.061207
H      1.945352    1.325396   -0.778090
H      1.341104   -1.025716    1.102772
C     -0.840757    1.170450   -0.527818
O     -0.136751    1.718023   -1.321422
H     -1.868485    1.504275   -0.437991
H     -0.789111    0.354587    1.373449
H     -1.154293   -1.434732   -1.061273
H     -2.235718   -0.982056    0.267298
H     -0.822683   -2.003147    0.669740
