16

C     -1.130427    0.234388    1.721045
C      0.131393    0.113954    0.890562
C     -0.228289    0.093826   -0.579993
O     -0.887483    1.277482   -0.893731
H     -1.380533    1.222134   -1.750691
C      1.022119   -0.107207   -1.369834
N      1.600796   -1.326099   -0.972507
C      2.080226   -2.337745   -0.655233
H      0.853001   -0.123779   -2.462652
H      1.721955    0.723305   -1.121489
H     -0.919698   -0.738809   -0.807593
H      0.718071   -0.785860    1.137334
H      0.752967    1.015328    1.080929
H     -1.989846    0.373584    1.057633
H     -1.269622   -0.715515    2.280356
H     -1.074631    1.081013    2.445863
