9

N     -0.823438    1.578804   -0.370993
C     -0.827630    0.294399   -0.482578
O      0.374026   -0.378204   -0.541336
C      1.425240    0.057172   -0.000846
O      2.581278   -0.725124   -0.135563
H      2.455236   -1.700855   -0.375415
C     -2.102508   -0.360879   -0.539160
N     -3.146754   -0.884349   -0.595472
H      0.064550    2.119037   -0.324295
