10

C      1.793882    0.065239    0.367803
O      0.580064   -0.103641    1.046529
C     -0.644767   -0.090966    0.424543
N     -1.026869   -0.625293   -0.851321
C     -2.019815    0.043567   -0.031586
H     -2.420258    1.005425   -0.405778
H     -2.761879   -0.604145    0.516679
H      2.604152    0.004325    1.153092
H      1.907676    1.043830   -0.123596
H      1.987812   -0.738341   -0.370545
