13

C      2.001294    0.461927    0.651861
C      1.339793   -0.335314   -0.336930
C      0.127733   -0.737484   -0.116034
C     -1.163866   -0.811667    0.021568
C     -2.093819    0.195252   -0.461604
H     -2.633175   -0.080118   -1.394882
H     -2.903191    0.309981    0.317502
H     -1.624186    1.216912   -0.569061
H     -1.523159   -1.643598    0.507776
H      1.826253   -0.587682   -1.228349
H      1.377731    0.710959    1.554822
H      2.859235   -0.134279    1.080981
H      2.409357    1.435111    0.256834
