12

N      2.269938   -0.430899   -0.029183
C      1.020633   -0.153986   -0.101584
O     -0.008745   -0.985090   -0.465067
C     -1.212732   -0.275067   -0.407728
O     -2.156908   -0.900951    0.406770
H     -1.740726   -1.147119    1.261097
H     -1.656988   -0.243754   -1.428224
O     -0.954514    1.008653   -0.008145
C      0.391459    1.160596    0.199015
H      0.861354    1.935709   -0.444550
H      0.563584    1.400595    1.272776
H      2.623645   -1.368688   -0.255178
