13

N      1.345530   -0.685742    0.964188
C      0.936994    0.354418    0.089052
O      1.703367    1.478861    0.026726
H      1.308812    2.244395    0.543783
C     -0.277785    0.280043   -0.758418
H     -0.305515    0.947562   -1.645082
C     -1.616265    0.103053    0.012178
H     -1.530662    0.020908    1.114505
H     -2.477201    0.702304   -0.356980
C     -1.068334   -0.972790   -0.842123
H     -0.719411   -1.931494   -0.466066
H      0.570413   -1.348545    1.103962
H      2.130059   -1.192971    0.498761
