8

C     -0.278413    0.095926    1.970627
H     -0.701188    0.063460    2.993719
N      0.480850   -0.818497    1.474353
C      0.834897   -0.402142    0.135600
H      1.959882   -0.340896    0.030097
N      0.164794    0.722425    0.082644
N     -0.468265    1.123592    0.993080
N      0.183724    0.783943   -0.050720
