15

C     -1.147348    1.346862   -0.020457
C     -0.736801   -0.067026    0.360504
H     -0.922471   -0.280166    1.459079
C     -1.371042   -1.073073   -0.508449
H     -1.955670   -1.837419    0.071641
H     -2.023325   -0.602194   -1.312546
O     -0.137268   -1.455514   -0.959443
C      0.478173   -0.563112   -0.193327
C      1.703604   -0.132332    0.100036
C      2.962877   -0.157650    0.371627
H      3.551486    0.491482   -0.240248
H      3.457559   -0.740588    1.119436
H     -2.052649    1.585796    0.597414
H     -0.368248    2.076107    0.238065
H     -1.438876    1.408828   -1.083331
