17

C      1.224604    0.598931    0.737386
C      2.200052   -0.541907    0.539885
H      1.738843   -1.527072    0.702532
H      2.631703   -0.423295   -0.476041
H      3.021256   -0.406751    1.261032
C      0.148151    0.585568   -0.347379
C     -0.615707   -0.671224   -0.323910
C     -1.900300   -0.679114   -0.105332
C     -2.712731    0.470101    0.132764
O     -2.447457    1.667096    0.194576
H     -3.793474    0.246709    0.293959
H     -2.347487   -1.703921   -0.117629
H     -0.071351   -1.640300   -0.500041
H      0.771694    0.512322   -1.312529
H     -0.411216    1.496023   -0.431176
H      0.787173    0.470276    1.743151
H      1.776246    1.546558    0.605493
