16

C      2.565380    0.333863   -0.917891
C      1.352466   -0.436220   -0.375358
N      0.401489    0.464328    0.231224
C     -0.663473   -0.187592    0.869087
C     -1.862170   -0.589978    0.087453
C     -2.855108    0.495996    0.062960
O     -2.868852    1.316310   -0.808046
H     -3.592060    0.550100    0.852747
H     -1.652941   -0.989976   -0.938864
H     -2.333489   -1.469079    0.634577
H      0.178256    1.282307   -0.360165
H      1.733614   -1.115450    0.417911
H      0.915281   -1.059354   -1.173630
H      2.347763    0.890831   -1.828512
H      2.970119    0.936889   -0.070005
H      3.363725   -0.422973   -1.140611
