15

C      2.179210   -0.422988   -0.018082
C      0.764711    0.100187   -0.060701
C     -0.248668   -0.369741   -0.744481
H     -0.232195   -1.229351   -1.400575
C     -1.443654    0.446365   -0.456853
N     -2.375783   -0.424890    0.280449
H     -2.288819   -1.423117   -0.070976
H     -2.155101   -0.426804    1.312469
H     -1.920965    0.865957   -1.342083
N     -0.959533    1.454751    0.456249
C      0.268971    1.254890    0.672763
H      0.901210    1.853939    1.319070
H      2.173842   -1.532761    0.034888
H      2.708895   -0.086259   -0.902370
H      2.627879   -0.060179    0.920232
