11

O      2.227948    0.386085   -0.153960
C      0.832500    0.169275   -0.103057
N     -0.117130    1.095938    0.060623
H      0.050934    2.122355    0.174679
C     -1.313539    0.499849    0.054994
H     -2.295213    0.985882    0.167507
C     -1.148555   -0.854000   -0.116724
H     -1.947683   -1.601177   -0.162374
C      0.202978   -1.046488   -0.214383
H      0.694521   -2.004748   -0.356644
H      2.813238    0.247028    0.649340
