11

O     -0.651619    2.502468    0.423780
C     -0.944997    1.133867    0.196381
C     -0.195349    0.179147   -0.299495
O      1.108833    0.153969   -0.766476
C      2.030031   -0.159808    0.013155
H      3.033319   -0.173448   -0.367561
H      1.808906   -0.405628    1.029746
C     -1.305691   -0.780230   -0.139189
H     -1.146331   -1.565179    0.628491
H     -1.728431   -1.182175   -1.088669
O     -2.008669    0.297018    0.369837
