13

N     -1.613820   -1.412196   -0.219217
C     -0.646198   -0.323650   -0.366233
O      0.572873   -0.726845   -0.866109
C      1.719989   -0.002693   -0.671080
N      2.038984    0.299211    0.562457
H      2.887268    0.842399    0.794158
H      2.379322    0.334342   -1.470163
C     -0.696204    0.817900    0.594437
H      0.120324    1.496819    0.811401
H     -1.420913    0.658578    1.423536
O     -1.186656    0.917947   -0.708981
H     -1.645926   -1.795635    0.733788
H     -2.509043   -1.106177   -0.617995
