9

O      2.092727    0.361806   -0.428272
C      0.695181    0.163138   -0.292346
C     -0.165234    0.220789    0.692466
H      0.008875    0.460589    1.752344
C     -1.281823   -0.132473   -0.173027
H     -1.695352   -1.168815   -0.010017
H     -2.083452    0.632977   -0.281056
O     -0.315418   -0.172397   -1.154821
H      2.744497   -0.365615   -0.105271
