14

C     -2.361632    0.726619    0.607012
C     -1.518725    0.201769   -0.461427
C     -0.648010   -0.713757   -0.115311
C      0.253803   -1.565116    0.343622
O      1.417815   -1.009303    0.761603
C      1.966438   -0.149366    0.027455
N      3.161110    0.518404    0.304897
H      3.149326    1.425066    0.845046
H      4.057650    0.084525   -0.042724
H     -0.072073   -2.560787    0.315270
H     -1.500939    0.450505   -1.486874
H     -3.377460    0.933495    0.157118
H     -1.988315    1.673956    1.049745
H     -2.538989   -0.016009    1.395881
