10

C     -1.165201   -0.144513   -0.210138
H     -1.488035   -0.712802    0.682661
H     -1.883800   -0.227218   -1.056341
N     -0.571986    1.172607    0.034359
H     -0.437323    1.483630    1.005273
C      0.244432    0.105426   -0.515494
C      1.300271   -0.495287    0.369711
O      2.373632   -0.766363   -0.143329
H      1.126571   -0.681812    1.411296
H      0.501437    0.266332   -1.577999
