13

N     -0.738192    0.416461    0.482407
C     -1.943374    0.112298    1.154656
O     -2.477989   -1.008706    0.965429
H     -2.415494    0.833195    1.833270
C     -0.146020   -0.544190   -0.396613
C      1.139054    0.021639   -0.994131
C      2.110451    0.352486    0.019815
N      2.898294    0.599438    0.836189
H      1.571887   -0.721700   -1.707836
H      0.916543    0.928144   -1.595088
H      0.182717   -1.408355    0.234862
H     -0.813053   -0.916250   -1.175741
H     -0.284823    1.335541    0.627267
