17

C      1.298320    0.384524   -0.636237
C     -0.058637    0.088103   -0.138541
C     -0.302072   -0.551941    0.993331
H      0.455318   -0.938049    1.695328
O     -1.637691   -0.703451    1.234096
C     -2.396625   -0.135012    0.208076
H     -3.005292    0.729398    0.595252
H     -3.080822   -0.859750   -0.278621
C     -1.373154    0.415488   -0.748064
H     -1.497172    1.484554   -0.949065
H     -1.450860   -0.192317   -1.686093
C      2.321147   -0.144053    0.330406
H      3.355629    0.226935    0.066135
H      2.392763   -1.230464    0.348741
H      2.123084    0.190649    1.389437
H      1.420779   -0.227056   -1.576311
H      1.435286    1.462442   -0.847870
