12

N      1.876102   -0.514899   -0.198088
C      0.785744    0.386111   -0.077676
O      1.031214    1.748328   -0.009296
H      1.703346    2.080523    0.647360
C     -0.452599   -0.034468   -0.029017
C     -1.897600    0.187404    0.071244
H     -2.347772    0.565348    1.025169
H     -2.376912    0.646256   -0.836064
N     -1.431851   -1.150109   -0.038310
H     -1.463954   -2.178663   -0.099133
H      2.554722   -0.460832   -0.981308
H      2.019560   -1.274998    0.525119
