12

C     -0.749217    0.363062   -0.556534
C     -1.283678    0.117091    0.824348
O     -2.000388    0.947635    1.349878
H     -1.029113   -0.799155    1.347721
C      0.088679   -0.788181   -0.966941
O      1.239245   -0.885931   -0.497608
C      1.758877    0.033071    0.385154
H      2.261860    0.948063    0.104348
H      1.658723   -0.171572    1.443071
H     -0.244178   -1.551090   -1.653730
H     -0.094471    1.276713   -0.567580
H     -1.606338    0.510295   -1.212126
