14

C      1.961225    0.067274   -0.031270
C      0.477257    0.209453   -0.015510
C     -0.285314    1.442224   -0.000835
H      0.191206    2.444337   -0.000010
C     -1.563976    1.185839    0.010654
C     -1.812123   -0.249989    0.005086
H     -2.303001   -0.580853    0.969807
H     -2.461506   -0.572952   -0.851509
C     -0.474976   -0.907654   -0.012225
H     -0.330137   -1.591967    0.858037
H     -0.365634   -1.484112   -0.967138
H      2.318281   -0.242074   -1.028065
H      2.205096   -0.717506    0.720425
H      2.443601    0.997981    0.342554
