12

C      1.042005    0.677879    0.225928
H      1.350446    0.871747    1.241189
H      1.286982    1.471907   -0.531051
C      1.006982   -0.790742   -0.290845
H      1.394835   -0.946343   -1.323248
H      1.320727   -1.535595    0.510327
C     -0.205334   -0.047985   -0.011512
C     -1.216654   -0.352428    0.948937
H     -1.263810   -0.763443    1.925140
O     -2.082609    0.149327    0.017137
C     -1.245595    0.428286   -0.871180
H     -1.387975    0.837392   -1.840822
