9

N      1.480799   -2.626868   -0.559858
C      0.890466   -1.587315   -0.437830
C      0.236306   -0.414169   -0.279812
C     -0.138098    0.331346    0.850896
N     -1.111216    1.262462    0.806198
H     -1.191416    1.676613    1.854330
H      0.367654    0.208668    1.815196
N     -0.130256    0.298333   -1.535531
N     -0.404239    0.850932   -2.513588
