11

C      0.781280   -0.826665   -0.111276
H      1.350578   -1.747572   -0.210766
C      1.387228    0.337562   -0.004450
H      2.471535    0.528811   -0.000978
O      0.473449    1.354163    0.109471
C     -0.817695    0.839121    0.076842
H     -1.266546    1.046403    1.092937
H     -1.469524    1.312257   -0.686070
C     -0.685209   -0.633797   -0.071219
H     -1.114690   -1.029442   -1.015656
H     -1.110407   -1.180839    0.821164
