14

C     -2.310749   -0.005312   -0.327473
C     -0.967592    0.399459    0.161459
O      0.065717   -0.430821   -0.256013
C      1.255039    0.069229    0.275376
H      1.204685    0.985692    0.904669
C      2.494521   -0.432262   -0.281328
H      3.474021    0.074875   -0.172641
H      2.439551   -1.145374   -1.118720
O      2.057006   -0.918506    0.998730
H     -0.732089    1.416536   -0.238156
H     -0.939484    0.389835    1.284323
H     -2.282602   -0.659418   -1.221381
H     -2.961144    0.870824   -0.482998
H     -2.796880   -0.614758    0.474153
