17

C      2.881945   -0.734924   -0.600479
C      1.422948   -0.455944   -0.616815
C      0.979815    0.696612   -0.139625
O     -0.364174    0.977314   -0.143968
C     -1.247945    0.244284    0.674530
C     -2.655366    0.759617    0.472045
H     -3.377513   -0.081243    0.381776
H     -2.991512    1.383129    1.336793
H     -2.711057    1.320926   -0.479050
O     -1.222096   -1.114256    0.355262
H     -1.787195   -1.250505   -0.460419
H     -0.963557    0.405081    1.721176
H      1.663445    1.435902    0.260869
H      0.682358   -1.144864   -1.000137
H      3.301974   -0.370266    0.359071
H      3.387810   -0.225379   -1.452509
H      3.000118   -1.845484   -0.668519
