15

C      1.951462    0.779863   -0.024214
C      1.295454   -0.434184   -0.600092
N     -0.134542   -0.433983   -0.537527
C     -0.966450   -0.514246    0.494203
C     -2.293904    0.249017    0.397250
H     -3.135393   -0.350198    0.796425
H     -2.151111    1.179697    0.974931
H     -2.484508    0.554196   -0.654922
H     -0.784652   -0.943696    1.516040
O     -0.825757   -1.581743   -0.471083
H      1.572606   -0.475393   -1.692194
H      1.726681   -1.353438   -0.138230
H      2.486242    0.528262    0.914016
H      2.593084    1.288297   -0.760617
H      1.150788    1.507550    0.239115
