15

C     -1.981702   -0.254956    0.494518
N     -0.842587    0.142596   -0.149810
C     -0.214574    1.516183   -0.033065
H     -0.369336    2.326577    0.395791
C      0.911544    1.240623   -0.779445
C      1.315200    0.153452   -0.494524
N      2.425718   -0.250031    0.334956
H      2.282420   -1.156850    0.831271
H      3.175753    0.361772    0.492741
C      0.150360   -0.683320   -0.927998
H      0.152628   -1.747161   -0.598499
H     -0.193411   -0.553437   -1.993798
H     -1.914834    0.172002    1.610473
H     -2.916957    0.079448    0.066856
H     -1.980220   -1.346899    0.750533
