15

C     -2.104917   -0.869515    0.231636
N     -1.186453    0.201197    0.524665
H     -1.477221    0.675598    1.416825
C     -1.046625    1.135578   -0.507964
H     -1.812792    1.762432   -0.924906
N      0.171396    1.153735   -0.917837
C      0.939984    0.220137   -0.177420
C      2.369984   -0.098404   -0.299294
H      2.905828    0.869878   -0.511912
H      2.808901   -0.464451    0.662997
H      2.604156   -0.853094   -1.065189
C      0.105579   -0.336087    0.678222
H      0.348055   -1.100004    1.408034
H     -3.003631   -0.536322   -0.318355
H     -1.622243   -1.760678   -0.199502
