13

O     -0.623857    1.577450   -0.299138
C     -0.531184    0.259913    0.039252
C     -1.784096   -0.528411    0.131243
H     -2.029347   -0.647517    1.220202
H     -2.622766   -0.040890   -0.411229
H     -1.655651   -1.541798   -0.330099
C      0.754832   -0.375390    0.307333
H      0.709548   -1.305088    0.916894
N      1.602555   -0.605150   -0.906579
C      2.019853    0.309865    0.240631
H      2.157716    1.348009   -0.094656
H      2.898484   -0.139834    0.732605
H     -0.896087    1.688840   -1.261971
