10

O     -1.376786    1.705395    0.173658
C     -0.615988    0.692800    0.072603
C      0.819857    0.791530   -0.118136
H      1.384598    1.735113   -0.193130
C      1.279277   -0.443179   -0.179188
H      2.343424   -0.693319   -0.320562
N      0.218124   -1.358780   -0.038207
N     -0.964783   -0.669686    0.118946
H     -1.396464   -0.827527    1.074846
H     -1.691260   -0.932346   -0.590830
