14

C     -1.096359    0.889961    0.182264
H     -0.672688    1.125004   -0.817804
H     -1.253372    1.825938    0.783250
C     -2.071602   -0.238712    0.332335
H     -2.957748   -0.132305    0.985195
H     -2.278690   -0.781496   -0.613793
C     -0.690188   -0.313073    0.942551
N      0.146103   -1.331951    0.333030
C      1.371635   -1.096542    0.022434
O      1.871656    0.164012    0.288229
C      2.933454    0.516234   -0.280745
H      3.324938    1.502950   -0.072747
H      1.973490   -1.855045   -0.424732
H     -0.600629   -0.274975    2.041847
