13

C     -1.288816    0.815200   -0.026953
C     -0.894512   -0.585261   -0.399818
C      0.330520   -0.956494    0.403562
H      0.524585   -2.016890    0.628141
C      1.507480   -0.127586    0.212591
N      2.534717    0.354422   -0.387574
H      3.147658    1.075052    0.031730
O      0.753094   -0.060585    1.409122
H     -0.595625   -0.650495   -1.483204
H     -1.732060   -1.308961   -0.246421
H     -0.582466    1.281813    0.695133
H     -2.326315    0.770828    0.406823
H     -1.378261    1.408956   -0.958643
