13

C     -1.562471    0.562828    0.423697
C     -0.691382   -0.623547    0.345095
O     -0.904476   -1.573245    1.041564
C      0.445524   -0.642411   -0.593559
C      1.612255    0.173838   -0.020394
H      2.223912    0.463965   -0.897722
H      2.139849   -0.390824    0.747825
H      1.165545    1.127682    0.392214
H      0.134698   -0.163205   -1.548057
H      0.813746   -1.671809   -0.804210
H     -1.080553    1.399113    0.993089
H     -2.568643    0.368939    0.827322
H     -1.728005    0.968677   -0.622377
