10

N      1.680404   -0.131851   -0.558347
C      1.115812    0.345149    0.650140
N     -0.090088    1.115726    0.697561
C     -1.180368    0.557697    0.290186
C     -2.096110   -0.242872   -0.159807
H     -2.646010   -0.851509    0.524595
H     -2.311449   -0.309574   -1.202140
O      1.656842    0.112136    1.779292
H      1.186940   -0.670571   -1.294588
H      2.684027    0.075671   -0.726892
