16

C      0.733322    0.585917    1.501099
C      0.031849    0.096177    0.250453
C      0.693500    0.506921   -1.006073
C      0.819239   -0.236539   -2.072131
H      1.309530    0.117051   -2.953681
H      0.416857   -1.231543   -2.058326
H      1.106354    1.510313   -1.037769
C     -1.490868    0.172583    0.201354
H     -1.970599    0.410119   -0.760555
H     -1.924679    0.666179    1.106515
C     -0.752590   -1.138935    0.372344
H     -0.868410   -1.872725   -0.449482
H     -0.795988   -1.631877    1.380964
H      0.895237   -0.303634    2.160933
H      0.086754    1.273537    2.096198
H      1.710493    1.076453    1.268157
