14

N      0.077211    2.152122   -0.199811
C      0.395657    0.900386   -0.144287
O      1.558062    0.401623    0.368231
C      1.605511   -0.986473    0.285001
H      2.464298   -1.372226   -0.296326
H      1.638760   -1.396302    1.316113
C      0.336877   -1.458630   -0.351804
C     -0.440380   -0.211831   -0.624894
C     -1.739997   -0.215876    0.153186
H     -2.454886   -0.836857   -0.396718
H     -2.071972    0.842149    0.262035
H     -1.504031   -0.597455    1.170329
H     -0.624077   -0.064795   -1.716789
H      0.758967    2.844165    0.175735
