19

C      1.997585    0.971126    0.260648
C      1.265300   -0.314846    0.008603
O      1.174059   -1.101709    1.166749
H      2.096089   -1.180012    1.533813
C     -0.169597   -0.048989   -0.447073
C     -0.785616   -1.438417   -0.663318
H     -0.688985   -1.967715    0.292466
H     -0.076422   -1.949315   -1.370935
H     -1.787878   -1.389597   -1.081653
C     -0.870420    0.707568    0.635326
C     -2.296513    1.014887    0.268813
H     -2.373667    1.922079   -0.379887
H     -2.791000    0.170092   -0.231717
H     -2.888575    1.215452    1.199609
H     -0.196515    0.497145   -1.393176
H      1.821558   -0.887598   -0.757450
H      3.077919    0.716783    0.359461
H      1.851645    1.632765   -0.608422
H      1.641033    1.430302    1.208145
