12

O      1.596852    0.901447   -0.467700
C      1.158870   -0.080500    0.409938
C     -0.242613   -0.467838    0.019557
C     -1.252776    0.626059    0.053500
H     -1.000770    1.384037   -0.699349
H     -1.175428    1.120007    1.065754
H     -2.249506    0.171257   -0.071010
N     -0.509729   -1.669920   -0.313900
H     -1.498767   -1.881797   -0.575288
H      1.826810   -0.950293    0.302910
H      1.161412    0.314698    1.444283
H      2.185645    0.532845   -1.168697
