14

N      2.611638    0.270380    0.426935
C      1.377029   -0.128173    0.282571
O      0.611023   -1.035321    0.944669
C     -0.478967   -0.784488    0.130762
C     -1.702702   -0.235800    0.845435
H     -2.345078    0.272186    0.118246
H     -2.236748   -1.071649    1.309430
H     -1.423283    0.496115    1.630032
H     -0.798775   -1.673636   -0.458121
C      0.292005    0.213092   -0.632050
C     -0.188967    1.632954   -0.397897
H      0.645558    2.228236    0.021358
H      0.481079   -0.014110   -1.712314
H      3.156189   -0.169786    1.192256
