13

C      1.503021   -0.284705    0.293666
C      0.169871   -0.371153   -0.428610
H      0.215565   -1.019950   -1.347516
N     -0.968053   -0.535752    0.389650
H     -1.613799   -1.258091   -0.014377
H     -0.763199   -0.752064    1.391946
C     -1.407079    0.737533    0.079934
H     -2.296596    1.296829    0.397712
C     -0.378857    0.952866   -0.690600
O      0.082413    2.012968   -1.487040
H      1.333282   -0.312536    1.393235
H      2.131474   -1.133721   -0.050015
H      1.991955    0.667777    0.072016
