12

C     -1.109349   -0.806319    0.352200
C     -0.441668    0.534646    0.395077
H     -1.125717    1.393358    0.447177
N      0.872233    0.705193    0.914933
H      1.140053    1.624893    1.309886
C      0.784241    0.624706   -0.517971
N      1.296073   -0.568482   -1.055193
C      1.710884   -1.560871   -1.493596
H      0.775297    1.504717   -1.153274
H     -1.858201   -0.763979   -0.490710
H     -0.390837   -1.615135    0.027218
H     -1.653009   -1.072727    1.264254
