8

N     -0.656191   -1.331850   -0.199381
N     -1.060844   -0.089978    0.010289
H     -2.059875    0.271685   -0.042328
C     -0.008004    0.692778    0.311153
H     -0.082632    1.758298    0.526243
C      1.101761   -0.122922    0.282294
H      2.104792    0.191947    0.478085
N      0.660994   -1.369958   -0.037520
