10

N     -1.595555    0.095401    0.477735
C     -0.206281   -0.096880    0.170860
C      0.383376   -1.221476   -0.336008
O      1.655554   -0.961811   -0.459677
C      1.909668    0.252370   -0.064668
H      2.860179    0.788152   -0.033646
N      0.759745    0.814620    0.334895
H     -1.878587   -0.765231    1.010115
H     -1.712936    0.966933    1.012538
H     -2.175162    0.127921   -0.386323
