13

N      1.526418    0.417454    1.048187
C      0.844276   -0.066447   -0.087114
C     -0.575637    0.232332   -0.368015
O     -0.853104    1.591714   -0.506029
H     -1.330105    1.935578    0.309615
C     -1.637203   -0.513681    0.373070
H     -2.278474   -0.857297    1.166014
C     -1.417141   -0.755350   -1.059258
H     -1.778188   -1.339098   -1.872028
N      1.479025   -0.802528   -0.922134
H      2.477222   -1.027384   -0.748249
H      2.405692    0.955057    0.961364
H      1.137220    0.229649    1.989065
