12

C      1.473891   -0.221730   -0.202439
C      0.166731   -0.202442    0.569300
H      0.355410   -0.675098    1.558319
C     -0.286905    1.217995    0.678016
N     -1.530623    1.225313   -0.036773
H     -2.123725    2.093039   -0.152485
N     -1.773987   -0.050218   -0.509336
C     -0.870359   -0.872476   -0.202876
H     -0.835734   -1.939749   -0.461005
H      1.387793    0.413044   -1.112275
H      1.778149   -1.227049   -0.491532
H      2.259359    0.239370    0.427161
