12

N      2.706207   -0.415317   -0.048615
C      1.492827   -0.187185   -0.212502
N      0.591567   -1.277332   -0.242919
C     -0.728028   -1.163302   -0.188625
H     -1.286656   -2.149893   -0.280938
C     -1.357706    0.016594    0.168393
H     -1.259748   -0.071683    1.394048
H     -2.471934    0.172953    0.064067
C     -0.550612    1.256757   -0.116044
H     -1.113245    2.133006   -0.237411
N      0.754344    1.053632   -0.246263
H      3.222985    0.631770   -0.053191
