10

O      2.504870   -0.944549   -0.167278
C      1.923918    0.142439   -0.476632
C      0.628813    0.327724    0.109040
N     -0.341081    1.388848    0.022012
C     -0.563889    0.179175    0.830283
C     -1.752251   -0.570733    0.361501
O     -1.836662   -0.821567   -0.826708
H     -2.504580   -0.874042    1.066936
H     -0.528645    0.388853    1.940017
H      2.469507    0.783852   -1.133353
