10

C      0.299421    0.256409   -0.346997
C      1.364763   -0.481195    0.389130
O      2.508627   -0.089737    0.329220
H      1.079169   -1.369037    0.971776
H      0.608879    1.138635   -0.921203
C     -1.011346    0.318403    0.372476
H     -1.168530   -0.264587    1.311769
H     -1.513999    1.279220    0.365902
N     -0.851552   -0.494727   -0.790977
H     -1.315432   -0.293384   -1.681096
