12

C      1.546328   -0.192106    0.105636
C      0.224667    0.150778   -0.528189
H      0.298812    0.391816   -1.603534
C     -0.667955   -1.017644   -0.372940
C     -1.740730   -0.777885    0.361445
H     -2.501982   -1.504740    0.583680
N     -1.627612    0.574321    0.742936
N     -0.477437    1.147841    0.232297
H     -0.764793    1.948893   -0.373906
H      1.904329    0.733294    0.620816
H      2.330759   -0.459575   -0.628926
H      1.475614   -0.994993    0.860685
