11

C      1.369487    0.305423    0.264800
H      2.440180    0.400863    0.448926
C      0.794461   -0.850716    0.017412
H      1.255710   -1.849537   -0.043048
C     -0.638989   -0.611570   -0.179794
H     -1.280250   -1.203224    0.508241
H     -0.870856   -0.844564   -1.248134
C     -0.813693    0.863284   -0.009509
H     -1.457910    1.113070    0.884143
H     -1.273668    1.348771   -0.902277
O      0.475525    1.328200    0.259241
