12

C     -0.957612   -0.293696   -0.465332
H     -1.945802   -0.576917   -0.714826
C     -0.585058   -0.096677    0.955240
H     -1.360138   -0.218047    1.685400
C      0.104358   -1.110812    0.164041
H      0.098499   -2.162856    0.276800
C      1.317469   -0.350344   -0.336404
H      2.233319   -0.846970   -0.596695
C      0.979645    0.931461   -0.359970
H      1.604364    1.764897   -0.591026
C     -0.461056    1.021643    0.001965
H     -1.027987    1.938317   -0.019192
