19

C     -2.773465    0.532140   -0.492202
C     -1.489712    0.299319    0.285412
C     -0.875612   -1.040933   -0.040968
C      0.341528   -1.203915    0.729144
C      1.451492   -0.882110    0.135126
C      2.532841   -0.423188   -0.478753
C      2.816128    0.986854   -0.293903
H      3.569954    1.302555   -1.072369
H      1.904006    1.593443   -0.382563
H      3.320411    1.209345    0.690637
H      3.029058   -1.174244   -1.019339
H      0.406366   -1.552562    1.712059
H     -0.773879   -1.154675   -1.132069
H     -1.624962   -1.822793    0.271091
H     -0.791564    1.100838   -0.015961
H     -1.748405    0.352542    1.363175
H     -2.635981    0.360336   -1.577184
H     -3.065172    1.593265   -0.330945
H     -3.593031   -0.076218   -0.054277
