10

N     -1.057906   -0.584098    0.265204
C     -0.540701    0.706121    0.457830
C      0.638761    0.899600   -0.507939
N      1.632401   -0.097893   -0.230760
H      2.053602   -0.533932   -1.063206
H      1.391731   -0.747287    0.536877
H     -1.306407    1.469975    0.158522
H     -0.162833    0.928872    1.480791
H     -0.677003   -1.355631    0.794591
H     -1.971645   -0.685727   -0.166089
