16

C      0.041284    1.539433   -0.773928
C      0.125311    0.161244   -0.155044
O      1.347629    0.067848    0.490298
C      2.143198   -0.953802   -0.013530
H      3.091458   -0.930779    0.578846
H      1.673869   -1.957933    0.132032
H      2.436650   -0.772583   -1.067488
C     -1.046716   -0.018841    0.798795
C     -2.230901   -0.473455   -0.028015
H     -3.119023   -0.498489    0.627303
H     -2.075848   -1.499078   -0.429804
H     -2.437324    0.178141   -0.877468
H      0.002135   -0.593393   -0.954801
H     -0.782091    2.133455   -0.285410
H     -0.147673    1.493023   -1.876782
H      0.978041    2.125210   -0.622127
