15

C      1.869837   -0.311385   -0.047471
C      0.414366   -0.230425   -0.356094
H      0.045594   -0.940245   -1.132647
C     -0.520945   -0.235892    0.814208
H     -0.358401   -0.886910    1.634461
O     -0.247513    1.128444    0.956034
C     -0.171604    1.156510   -0.428446
H      0.359887    1.930494   -0.920893
C     -1.611042    0.876603   -0.871429
C     -1.878803   -0.281972    0.111116
H     -2.707456   -0.068167    0.779058
H     -1.950283   -1.190398   -0.484279
H      2.255950    0.721381    0.124630
H      2.397471   -0.667909   -0.967938
H      2.102944   -1.000128    0.789690
