11

O     -2.248622    0.657359   -0.857888
C     -1.517547    0.842924    0.091040
C     -0.475433   -0.072588    0.586044
C      0.467889   -0.548469   -0.507759
H      0.291158   -1.561175   -0.947583
N      1.235272    0.325410   -1.211155
C      1.929069   -0.304827   -0.304394
H      2.833736   -0.495414    0.191934
H      0.092221    0.359521    1.429490
H     -0.951552   -1.003570    0.989823
H     -1.656192    1.800831    0.636279
