13

C     -1.455757   -0.790009   -0.336892
H     -0.952975   -1.636343   -0.904702
H     -2.486470   -0.988279   -0.068183
C     -1.020954    0.569993   -0.686468
H     -1.678638    1.315463   -1.002286
C     -0.590050   -0.008992    0.571665
H     -1.029903    0.282100    1.601935
N      0.745312    0.195124    0.257436
C      1.957383   -0.151490    0.883235
H      2.641057   -0.840725    0.283970
H      2.234355    0.208087    1.866560
C      0.515113    0.719905   -0.831925
H      1.121528    1.125165   -1.634345
