16

C     -1.480990   -0.478387    0.652571
C     -0.721163    0.659645    0.022896
C      0.540132    0.125586   -0.582936
C      1.391058   -0.520496    0.490998
O      2.568585   -1.022549   -0.054759
H      2.766052   -0.472345   -0.866186
H      0.869265   -1.305355    1.034868
H      1.648063    0.286549    1.216552
H      1.141115    0.966496   -0.992657
H      0.311698   -0.540738   -1.414428
N     -1.481663    1.324832   -0.949904
C     -2.129051    1.868360   -1.765275
H     -0.417685    1.378478    0.830678
H     -2.560396   -0.176445    0.722052
H     -1.067961   -0.736809    1.643647
H     -1.377058   -1.356823    0.011884
