12

C      1.457100   -0.089315    0.072182
C      0.089625   -0.036337   -0.559449
H      0.093693   -0.395841   -1.620882
C     -1.008323   -0.574468    0.360675
H     -1.696213   -1.300131   -0.085875
H     -0.775982   -0.731748    1.426870
C     -0.967997    0.854979   -0.096421
H     -0.755344    1.663456    0.609391
H     -1.769188    1.096826   -0.841547
H      2.209579    0.470397   -0.499339
H      1.736594   -1.181560    0.093199
H      1.386454    0.223741    1.141196
