14

C     -1.659311   -0.169967   -0.367703
C     -0.401144    0.372280    0.268293
O     -0.378232    0.082610    1.617350
H      0.206258    0.675853    2.127854
C      0.831754   -0.187177   -0.423646
C      2.069708    0.457248    0.119701
H      2.243025    1.487012   -0.278942
O      0.938696   -1.552523   -0.307599
H      1.684589   -1.845850    0.260716
H      0.688324    0.038896   -1.515032
H     -0.369987    1.471009    0.108866
H     -1.935591   -1.130407    0.110242
H     -1.460557   -0.286545   -1.467443
H     -2.457533    0.587560   -0.252657
