13

N     -2.395929   -0.022811    0.291974
C     -1.161531   -0.048236   -0.357308
C     -0.011518    0.206307    0.528506
H     -0.237965   -0.020495    1.592031
C      1.360073    0.221426    0.039371
N      2.567513   -0.304868   -0.403412
H      3.103705   -1.058011    0.117156
H      3.062942   -0.006158   -1.295724
N      0.704069    1.387336    0.299814
H     -1.045165   -0.796553   -1.174814
H     -0.988845   -0.220194   -0.967489
H     -2.183273   -0.288409    1.291171
H     -2.774077    0.950667    0.323211
