14

C     -1.219635    1.046143    0.650115
N     -0.400080   -0.211813    0.379143
C     -1.210370   -0.782664   -0.649208
H     -1.222264   -0.099678   -1.508358
H     -2.257321   -0.833015   -0.270378
H     -0.945418   -1.829116   -0.907986
C      0.910395    0.030852    0.062915
O      0.673420    0.931807   -0.743646
N      2.267747   -0.236117    0.208742
H      2.970376    0.299027    0.772803
H      2.714230   -1.049142   -0.272087
H     -0.470834   -0.498254    1.295714
H     -1.183123    1.537988   -0.347545
H     -0.627123    1.693982    1.329777
