13

C      0.283059    1.093957   -0.067175
H      0.931739    1.427414    0.759218
H      0.523309    1.726428   -0.944246
C      0.473968   -0.373084   -0.308796
O      1.657458   -0.785839    0.273410
H      2.104467   -1.419869   -0.353377
H      0.470499   -0.581086   -1.393384
C     -0.672709   -1.047151    0.399100
H     -0.409938   -1.311113    1.456643
H     -0.958864   -1.939354   -0.191440
C     -1.733243    0.015616    0.386182
N     -1.083013    1.295970    0.329297
H     -1.586734    1.898110   -0.345432
