14

C      0.333721    1.236388    0.607139
C      0.328904   -0.161625    0.094670
C      1.646101   -0.805181   -0.183972
O      1.993737   -1.744793    0.451424
H      2.233794   -0.341352   -0.994102
N     -0.748110   -1.077639    0.134057
O     -1.739136   -0.954043    1.042989
H     -2.480310   -0.434196    0.680015
C     -0.704629   -0.291122   -1.046182
H     -0.316830   -0.636165   -1.990941
H     -1.476914    0.507221   -1.146229
H      0.465317    1.936523   -0.206284
H     -0.644052    1.444653    1.128538
H      1.108407    1.321331    1.428878
