16

C     -0.909517    1.282429   -0.480332
C     -0.155388    0.075983    0.016991
C     -1.005527   -1.177924   -0.044609
H     -1.218053   -1.442458   -1.089258
H     -1.909925   -0.975082    0.554139
H     -0.399987   -1.977246    0.464811
C      1.070625   -0.178090   -0.756658
H      1.162304   -0.336571   -1.845236
C      2.073644   -0.185361    0.092780
H      3.110581   -0.354810   -0.225733
N      1.582821    0.051609    1.402080
C      0.311341    0.205342    1.393286
H     -0.252538    0.399048    2.317032
H     -1.569645    1.628699    0.354195
H     -0.269149    2.071190   -0.887302
H     -1.621587    0.913240   -1.266184
