16

C     -1.605435   -1.276113    0.088119
C     -0.715643   -0.092741   -0.052083
C      0.564271    0.105705   -0.128055
N      1.718480   -0.761196   -0.109149
O      2.358100   -0.881774    1.063976
H      3.092573   -1.539091    1.025869
H      1.993838   -1.238931   -0.979974
C      0.464407    1.562052   -0.245153
H      0.788740    1.949404   -1.238119
H      0.867404    2.142269    0.615758
C     -1.005360    1.338404   -0.158305
H     -1.591852    1.609795   -1.082762
H     -1.487543    1.736541    0.766793
H     -1.018989   -2.094544    0.545452
H     -1.991563   -1.546159   -0.892737
H     -2.431428   -1.013620    0.780370
