14

C      1.657816   -0.483116   -0.341449
H      1.695045   -0.147644   -1.395210
H      1.650479   -1.582960   -0.128824
C      2.079132    0.467297    0.702652
H      2.608281    0.037226    1.573416
H      2.430248    1.457717    0.400720
C      0.616150    0.205820    0.545353
C     -0.636494    0.391285    0.877885
C     -1.694783   -0.331992    0.154488
O     -2.561057    0.572439   -0.450709
H     -3.469984    0.290268   -0.235280
H     -2.236407   -0.947026    0.934742
H     -1.252102   -0.994178   -0.607225
H     -0.886323    1.064865    1.670753
