12

C      1.386018   -0.158310   -0.008552
C     -0.004499   -0.087645   -0.559704
H     -0.120471   -0.062047   -1.644386
C     -1.072853   -0.766908    0.210550
H     -1.282025   -1.744241    0.278577
O     -0.772146    0.097017    1.257105
C     -0.811223    0.949287    0.162472
H     -0.676110    1.941030    0.157314
O     -1.928306    0.237519   -0.232555
H      1.526034   -0.904339    0.784304
H      1.673284    0.829796    0.440198
H      2.082297   -0.331159   -0.845324
