19

C      3.249680   -0.014533   -0.179140
O      1.936491   -0.291231   -0.381688
C      1.124839    0.602938   -0.292637
C     -0.338696    0.386253   -0.499913
C     -0.756226   -0.924335    0.096500
C     -2.231494   -1.124390   -0.122118
H     -2.666531   -0.339513   -0.774423
H     -2.419401   -2.098369   -0.655008
H     -2.789115   -1.193970    0.840224
H     -0.206369   -1.737111   -0.418926
H     -0.492115   -0.919478    1.182127
C     -1.045004    1.528946    0.214515
H     -2.098218    1.509339   -0.115090
H     -0.907701    1.495062    1.304030
H     -0.626758    2.504849   -0.128697
H     -0.546649    0.456856   -1.568066
H      3.829550    0.015044   -1.111476
H      3.630998   -0.800509    0.530287
H      3.352719    0.944153    0.375609
