11

O      1.890855   -0.042404    0.828006
C      1.013910   -0.163026   -0.250365
H      1.653913   -0.173701   -1.156010
C      0.241781   -1.424556   -0.091151
N     -1.131010   -1.002467   -0.040537
H     -1.925850   -1.684015    0.069571
C     -1.185283    0.409911   -0.160308
H     -2.107227    0.992358   -0.152428
C      0.016230    0.907622   -0.280239
H      0.191664    1.985535   -0.385448
H      1.341017    0.194744    1.618908
