11

C     -1.247941   -0.422243   -0.089276
C     -0.039957    0.468504    0.186184
C      1.294773   -0.215719   -0.085173
H      1.570864   -0.713482    0.867549
H      2.051107    0.504131   -0.425255
H      1.162517   -0.983734   -0.886738
C     -0.141600    1.485596    1.179589
O     -0.084940    1.771860   -0.208747
H     -0.934225   -1.484612   -0.250478
H     -1.953409   -0.353752    0.758221
H     -1.677190   -0.056550   -1.045875
