12

O      3.773579    0.342833   -1.664631
N      2.635052    0.429587   -0.984210
C      1.648912    0.485983   -0.388525
C      0.389193    0.541914    0.395545
N     -0.478993   -0.459737   -0.165244
C     -1.777448   -0.558364    0.355854
H     -1.797439   -0.886350    1.415032
H     -2.438301    0.304716    0.129649
H     -2.287604   -1.417716   -0.195651
H     -0.313962   -0.667395   -1.156390
H      0.659295    0.320122    1.451288
H     -0.012284    1.564406    0.393694
