10

O      2.793631    1.282209    0.320337
C      2.035840    0.371685   -0.035317
C      1.392354   -0.737278   -0.269580
O      0.038661   -0.852765   -0.077757
C     -0.736753    0.176059    0.484795
C     -2.038248    0.135056    0.339122
H     -2.637610    0.920027    0.767639
H     -2.522337   -0.662860   -0.197604
H     -0.250223    0.973164    1.021227
H      1.924685   -1.605296   -0.627042
