17

C     -2.549046   -0.111416    0.263589
C     -1.070663    0.129249    0.431333
C     -0.335495   -0.937611   -0.362459
O      1.003211   -0.791893   -0.262148
C      1.561803    0.270324   -0.035835
C      3.045405    0.348948    0.060071
H      3.420241    0.636254   -0.956873
H      3.425276   -0.654703    0.357672
H      3.364265    1.128775    0.799192
H     -0.652848   -0.812204   -1.415979
H     -0.690278   -1.936728    0.000895
O     -0.699502    1.368824   -0.082940
H     -0.269134    1.906895    0.644816
H     -0.808233    0.071399    1.507468
H     -2.742570   -1.203367    0.315212
H     -2.867546    0.235175   -0.737078
H     -3.134886    0.352080    1.081265
