12

O      0.176796    1.478559    1.849452
C     -0.009673    0.734889    0.914200
C      0.714186    0.330976   -0.234618
C      1.113921    1.358437   -1.260944
H      2.150070    1.066954   -1.574990
H      1.578295   -0.407664   -0.008325
C     -0.468743   -0.571919   -0.657665
H     -0.868445   -0.511560   -1.659226
C     -1.126999   -0.112079    0.602723
H     -2.181490    0.082976    0.804356
N     -0.906587   -1.522993    0.330657
H     -0.171331   -1.926575    0.894382
