15

C      1.579908   -0.316231    0.797817
C      0.519480    0.570324    0.051921
H      0.841866    1.571166   -0.075229
O      0.237397   -0.222786   -1.080769
C     -0.980879   -0.538203   -0.580251
H     -1.320007   -1.578824   -0.414684
C     -1.991715    0.540986   -0.365065
H     -2.018060    1.450646   -0.983324
H     -3.017954    0.150196   -0.065591
C     -0.839513    0.361106    0.544831
H     -1.070932    0.166978    1.646778
C      1.916706    0.152464    2.165616
H      2.932677   -0.348458    2.277408
H      2.347727   -0.706012    0.131050
H      0.863299   -1.253350    0.974873
