13

C     -1.485908   -0.818092   -0.306799
C     -0.842005    0.472980    0.168245
H     -1.509183    1.341061   -0.005208
C      0.450375    0.585427   -0.521682
H      0.673197    0.740734   -1.577754
C      1.384243    0.461497    0.394573
O      2.768290    0.512798    0.132315
H      3.263594   -0.325947   -0.204122
N      0.748702    0.273848    1.646487
N     -0.494774    0.277848    1.536772
H     -0.768725   -1.462237   -0.858224
H     -2.346144   -0.626923   -0.956280
H     -1.841665   -1.432995    0.551676
