20

C      2.020892    0.266069    0.520871
C      1.595407   -0.198181   -0.860139
C      0.248338    0.330913   -1.246637
N     -0.817878   -0.040617   -0.398847
C     -1.516712    1.028974    0.304837
H     -2.594738    0.816356    0.417344
H     -1.091922    1.087988    1.327837
H     -1.425444    1.979022   -0.247996
C     -0.983278   -1.341707    0.151659
H     -0.213205   -2.126020    0.048302
H     -1.571737   -1.441081    1.085648
C     -1.758260   -1.036251   -1.068616
H     -2.811727   -0.751324   -1.062884
H      0.080608    0.047984   -2.312612
H      0.340280    1.453701   -1.266609
H      1.677361   -1.286275   -0.873901
H      2.351745    0.199416   -1.566820
H      2.327624    1.329146    0.519148
H      1.229031    0.019407    1.228801
H      2.913614   -0.337522    0.791547
