12

C     -0.286351    2.158960    0.596267
N     -0.156460    0.729652    0.503556
C      0.116088    0.239397   -0.634593
N      0.281422   -1.146159   -0.915801
C      0.148634   -2.112877    0.092492
O     -0.117123   -1.841770    1.280435
H      0.277754   -3.157408   -0.141205
H      0.503320   -1.398922   -1.897881
H      0.231019    0.969249   -1.466751
H     -0.288127    0.194639    1.343639
H      0.481458    2.774646    1.038122
H     -1.191634    2.590593    0.201721
