16

C      1.689932   -0.123065    0.869602
C      0.679797   -0.100496   -0.261657
H      0.773840   -0.981990   -0.948820
C     -0.683502    0.099654    0.273165
C     -1.607701   -1.017264   -0.183729
H     -1.643970   -0.994512   -1.274953
H     -1.114295   -1.967557    0.157348
H     -2.578885   -0.940489    0.314706
H     -0.731065    0.249236    1.386589
C     -0.702835    1.313272   -0.502444
H     -1.471504    2.112823   -0.645120
C      0.490300    1.127946   -0.963893
H      1.109567    1.730131   -1.655115
H      2.081030    0.881178    1.063425
H      1.188223   -0.583010    1.758999
H      2.521068   -0.805856    0.611895
