15

C      2.283095    0.695585   -0.316643
C      1.472738   -0.206394   -1.190112
C      0.835713   -1.236378   -0.326951
C     -0.361916   -1.030170    0.166008
C     -1.062854    0.185120   -0.122669
O     -0.548833    1.065129   -0.844962
C     -2.433559    0.388201    0.458893
H     -2.463882   -0.020974    1.473918
H     -3.149093   -0.106983   -0.229435
H     -2.692058    1.483427    0.453488
H     -0.778643   -1.821042    0.792393
H      1.383419   -2.157393   -0.116472
H      2.101159    1.778427   -0.525392
H      3.368804    0.444304   -0.427975
H      2.045912    0.539140    0.755911
