10

O      3.188403   -0.847156    0.126166
C      2.069632   -0.356965   -0.020461
N      1.224856    0.473337   -0.489324
C     -0.002867    0.653134    0.218484
C     -1.007669   -0.411869   -0.187245
H     -0.647177   -1.415636   -0.475489
O     -2.245979   -0.327419    0.447942
C     -2.255831    0.009850   -0.848859
H      0.110148    0.595244    1.321020
H     -0.433516    1.627481   -0.092234
