11

C      1.822829   -0.287209   -0.079019
C      0.399953    0.008895   -0.008677
C     -0.664779   -0.870127   -0.065370
H     -0.518657   -1.949329   -0.176791
N     -1.803598   -0.179036    0.036049
H     -2.759954   -0.572250    0.024498
C     -1.486485    1.108440    0.154832
C     -0.119757    1.279546    0.132509
H      0.434153    2.229012    0.210901
H      2.251450   -1.114371    0.456730
H      2.444844    0.346428   -0.685661
