11

C     -1.283248   -0.741951   -1.325783
N     -0.597322    0.237554   -0.528081
N      0.582894   -0.063715    0.129288
C      0.985427    0.608420    1.152099
N      2.156787    0.324350    1.819924
C      3.146260    0.069719    2.402847
H      0.370623    1.428106    1.492664
H     -1.000316    1.183328   -0.449131
H     -1.829005   -0.262237   -2.160921
H     -0.527334   -1.463836   -1.747712
H     -2.004766   -1.319739   -0.689365
