13

O      2.838621    0.974956    0.744767
C      2.386096    0.088391   -0.150745
C      1.358736   -0.630572    0.196398
C      0.171272   -1.118280    0.381463
C     -1.034220   -0.438464   -0.005466
C     -2.119174    0.252302    0.554757
H     -2.603039    0.615569    1.439971
C     -2.076365    0.102767   -0.874680
H     -2.741011   -0.655293   -1.330752
H     -1.740044    0.915162   -1.556978
H      0.118411   -2.043431    0.832590
H      2.847815   -0.012563   -1.087937
H      2.592903    1.949456    0.856611
