14

C      1.570112   -0.617054   -0.488956
C      0.715831    0.254485    0.397383
H      0.941557    0.035625    1.457972
C      0.922329    1.695385    0.155256
O     -0.177419    2.213137   -0.132454
C     -1.196829    1.275898   -0.126287
H     -2.238743    1.543105   -0.355886
C     -0.715582    0.084107    0.185462
N     -1.544648   -1.071422    0.266188
H     -1.811406   -1.592879   -0.597438
H     -1.859368   -1.353121    1.230039
H      1.544556   -1.642097   -0.069251
H      1.233980   -0.569061   -1.535652
H      2.615629   -0.256106   -0.386376
