10

O     -1.705565    0.408981   -0.580391
C     -0.728525    0.035878    0.326682
H     -1.101314    0.168079    1.371889
C     -0.264108   -1.360928    0.134725
N      0.981427   -1.322971   -0.062477
C      1.497472   -0.186536   -0.212625
H      2.460716    0.090662   -0.612787
N      0.509822    0.772405    0.131432
H      0.583543    1.791340    0.309785
H     -2.233469   -0.396911   -0.806233
