11

C      1.852903   -0.158095   -0.079116
C      2.357897   -1.350157   -0.316916
C      0.419858    0.072434   -0.003329
C     -0.607092   -0.864055   -0.089098
H     -0.423549   -1.923446   -0.229722
C     -1.826405   -0.228963    0.031144
H     -2.797457   -0.714511    0.000892
N     -1.526706    1.074730    0.187157
N     -0.217276    1.246336    0.166539
H      0.233131    2.186161    0.271422
H      2.534696    0.659567    0.061027
