13

C      1.910810   -0.090173    0.147964
C      0.487689   -0.631029    0.093697
H      0.597104   -1.746270    0.165665
O     -0.295590   -0.188373    1.137963
C     -1.446856    0.420314    0.692910
O     -2.379004    0.935396    1.382920
C     -1.464827    0.398815   -0.777787
H     -2.335753   -0.250950   -1.074640
H     -1.578543    1.416462   -1.216997
C     -0.208524   -0.283835   -1.162308
H      2.398060   -0.649543    0.993180
H      1.928713    0.979658    0.432611
H      2.386721   -0.310472   -0.815175
