19

C     -1.835203    1.246058   -0.377715
C     -1.379297   -0.103027    0.126458
C     -2.284577   -1.225371   -0.356480
H     -2.626203   -1.797300    0.523964
H     -3.149619   -0.820792   -0.918891
H     -1.754722   -1.936907   -1.020126
C     -0.002561   -0.428206   -0.343021
O      0.907061   -0.372475    0.453204
C      2.207653   -0.634496    0.194401
C      2.934038    0.684066    0.035588
H      3.966755    0.621746    0.438232
H      2.396099    1.443220    0.624742
H      2.916495    0.984623   -1.034652
H      2.693243   -1.265735    0.976512
H      2.326561   -1.224642   -0.761242
H     -1.404341   -0.033554    1.250655
H     -2.918724    1.230138   -0.657051
H     -1.256705    1.591658   -1.262077
H     -1.735954    2.040997    0.403608
