14

C      1.149764   -0.499812   -0.360414
C     -0.098882   -0.214436    0.467546
H      0.072283   -0.333466    1.562543
C     -1.346509   -0.798096   -0.010476
H     -1.284397   -1.593452   -0.794510
H     -1.966810   -1.177898    0.861902
O     -1.843158    0.398898   -0.376581
C     -0.732762    1.051592    0.033148
H     -0.924290    1.743109    0.909848
H     -0.165981    1.578163   -0.782846
C      2.321442    0.202560    0.320393
H      2.412315    1.263979   -0.035681
H      1.059003   -0.032012   -1.361181
H      1.347983   -1.589129   -0.433689
