17

O     -1.114295   -1.524391    0.209891
C     -1.308417   -0.337763    0.204063
C     -0.424168    0.638573   -0.433201
C      0.802485    0.021128   -1.080293
C      1.584463   -0.662839   -0.032781
C      2.824818   -0.280811    0.209224
H      3.462554   -0.731249    0.959601
H      3.289602    0.543781   -0.359239
H      1.165602   -1.468761    0.538136
H      0.486626   -0.697428   -1.885642
H      1.435046    0.832061   -1.529542
H     -1.004896    1.188742   -1.212218
H     -0.135747    1.384418    0.340861
C     -2.526002    0.197786    0.886007
H     -2.353541    1.225478    1.274818
H     -2.790875   -0.503943    1.718082
H     -3.393255    0.175219    0.192233
