11

O     -1.811397    0.521339    0.592810
C     -1.286396   -0.655713    0.038558
C      0.185389   -0.520293    0.009431
N      0.711534    0.647465   -0.154237
C      2.088076    0.911116   -0.200241
O      2.748769    0.963751    0.861983
H      2.597346    1.071690   -1.141888
H      0.855805   -1.362843    0.120024
H     -1.746126   -0.766908   -0.949799
H     -1.614030   -1.515047    0.651342
H     -2.728970    0.705444    0.267846
