16

C      0.457848    1.145888   -0.831250
C      0.111251    0.068225    0.166057
C      1.363435   -0.751815    0.485022
H      1.716640   -1.156993   -0.489977
H      2.121601   -0.159772    1.016903
H      0.987352   -1.621942    1.084781
C     -0.915775   -0.899036   -0.372571
H     -1.770252   -1.006071    0.323254
H     -0.507595   -1.925041   -0.513262
H     -1.240638   -0.567830   -1.391301
O     -0.316281    0.634316    1.313393
C     -1.433445    0.991597    1.571779
H     -2.298493    0.933434    0.954258
H      0.528674    2.148710   -0.356238
H      1.471793    0.964211   -1.296697
H     -0.276118    1.202118   -1.664150
