10

N      2.095373    0.372588    0.072226
C      0.754623   -0.098235    0.042111
O      0.356681   -1.037236    0.777729
O     -0.224177    0.449310   -0.810147
C     -1.531665   -0.091695   -0.761536
N     -2.047063   -0.192252    0.413196
H     -1.560011    0.096373    1.279440
H     -3.013041   -0.583274    0.546935
H      2.315820    1.401145    0.199215
H      2.853461   -0.316724   -0.033349
