10

C     -0.754173    0.581617    0.587074
O     -1.735862    1.155453    1.075659
C     -0.706211   -0.399056   -0.551211
H     -1.237680   -1.320837   -0.313074
H     -1.035122    0.052060   -1.541210
C      0.742518   -0.448172   -0.410029
H      1.333179   -1.324905   -0.623612
O      1.435218    0.807289   -0.501749
C      0.711431    0.442174    0.633600
H      1.246700    0.454379    1.644552
