8

N     -1.624023   -0.148527    0.013501
N     -0.332021   -0.536816    0.254172
C      0.701861    0.229162    0.204446
N      1.974955   -0.230236    0.458881
C      3.046282   -0.624856    0.654426
H      0.525966    1.263620   -0.049265
H     -2.467364   -0.449604    0.573796
H     -1.825656    0.497257   -0.781121
