16

C      1.881925   -0.096146   -0.447910
C      0.476518   -0.239948   -0.201807
C     -0.060601    0.022870    1.214503
H      0.247370    0.991108    1.638883
H     -0.023985   -0.852536    1.878626
C     -1.384726    0.151226    0.444470
H     -2.152890    0.728895    0.882222
C     -0.502085    0.822488   -0.619489
H     -0.267233    1.846836   -0.271050
H     -0.884300    0.765297   -1.636528
N     -1.596293   -1.179091   -0.016097
H     -2.321615   -1.277445   -0.745610
C     -0.255578   -1.507015   -0.542538
H      2.377399    0.514647    0.339204
H      2.396260   -1.071761   -0.469943
H      2.069834    0.380576   -1.446937
