15

O      1.441185    2.251396    1.078224
C      1.215844    1.134972    0.833330
C      1.501800    0.079073   -0.206534
H      2.479678   -0.356749   -0.391359
C      0.413059   -0.183857   -1.168342
H      0.559099   -0.762603   -1.995278
H      0.000454    0.889377   -1.546616
C     -0.454258   -0.638617   -0.037285
C     -1.746273   -0.000140    0.185242
H     -1.882124    0.854357   -0.548740
H     -2.597015   -0.745166   -0.089846
H     -1.910030    0.385608    1.173731
H     -0.543474   -1.771798   -0.056170
C      0.628083   -0.303359    0.941326
H      0.893973   -0.832495    1.828317
