14

C      1.909370   -0.418544    0.281202
C      0.659764   -0.090173   -0.010531
C      0.104745    1.262999    0.290134
H      0.502579    1.700824    1.199173
H      0.546452    1.921485   -0.626394
O     -1.286587    1.217904    0.142790
C     -1.622094   -0.106060   -0.132116
H     -1.999990   -0.467139    0.835890
H     -2.525353   -0.168230   -0.872675
C     -0.494280   -0.938585   -0.463677
H     -0.517608   -1.982221    0.053845
H     -0.274090   -1.023201   -1.568204
H      2.527824    0.412679    0.827071
H      2.469268   -1.321738    0.043494
