16

C     -1.466692   -1.062459    0.013791
C     -0.484311    0.107179   -0.022939
C     -1.069076    1.333157   -0.674038
H     -1.196590    2.174579    0.041715
H     -2.067053    1.147497   -1.128922
H     -0.429160    1.729340   -1.496208
C      0.796466   -0.056921    0.258945
N      1.660634   -1.140576    0.586682
H      1.811778   -1.819353   -0.176348
C      2.132449    0.271107    0.321460
H      2.860190    0.293327   -0.515012
H      2.579014    0.715000    1.249172
O     -0.033872    0.387019    1.372606
H     -1.179320   -1.768187    0.827067
H     -2.468096   -0.666415    0.262427
H     -1.446363   -1.644296   -0.920399
