10

O     -2.976627   -0.876528    0.456678
C     -2.463813    0.157835   -0.002142
N     -1.208793    0.092086   -0.632833
C     -0.142030   -0.227951   -0.019019
N      1.085233   -0.270405   -0.730831
C      2.163720    0.202855   -0.236183
N      3.151294    0.494289    0.530526
H      3.506232   -0.198635    1.255056
H     -0.147937   -0.467018    1.026015
H     -2.967278    1.093472    0.078553
