14

C     -1.924359   -0.342938   -0.147479
C     -0.548739   -0.312829    0.335208
H     -0.564036   -0.656308    1.463484
C      0.446812   -1.217421   -0.317368
C      1.723589   -0.523828   -0.494655
H      2.225024   -0.653614   -1.485108
H      2.487901   -0.858489    0.320758
C      1.369746    0.860243   -0.070338
H      2.159304    1.641367   -0.092591
C      0.138563    1.005270    0.359219
H     -0.307038    1.991931    0.595664
H     -2.266446    0.648037   -0.568419
H     -2.640470   -0.384124    0.791229
H     -2.299850   -1.197297   -0.689605
