14

O      0.593433    1.384612   -1.045820
C      0.039212    0.164959   -0.614523
C      1.106481   -0.492487    0.264728
C      2.323138   -0.684091   -0.616597
H      3.252123   -0.513817   -0.037451
H      0.749014   -1.457239    0.682011
H      1.324555    0.172372    1.100624
C     -1.169581    0.452066    0.205105
C     -2.105869   -0.451247    0.384830
H     -1.988726   -1.422606   -0.076079
H     -2.965777   -0.225457    0.976615
H     -1.272784    1.417899    0.655665
H     -0.261725   -0.466706   -1.450202
H      0.376507    2.121742   -0.428908
