14

O      0.787538   -0.902269    0.944039
C      1.466907   -0.151550   -0.002409
C      1.959275    1.032103    0.353434
H      1.848041    1.422617    1.344695
H      2.496177    1.649848   -0.354616
H      1.614849   -0.486331   -1.020111
C     -0.614860   -0.786648    0.984455
H     -1.084841   -1.417692    1.767514
C     -1.269535   -0.746255   -0.387083
H     -0.615261   -0.630648   -1.277669
H     -2.151771   -1.386034   -0.498434
C     -1.314295    0.433877    0.559861
H     -2.315882    0.607867    1.013728
H     -0.806343    1.361116    0.273909
