10

O      2.087123   -0.106834   -0.388121
C      0.706427    0.056514   -0.163166
N      0.092141    1.178982   -0.081403
N     -1.272262    0.983422    0.147130
H     -1.971798    1.784118    0.248603
C     -1.549149   -0.266884    0.214639
C     -0.293853   -1.009046    0.020480
H     -0.039655   -1.648633    0.910940
H     -0.426040   -1.635781   -0.888851
H      2.667064    0.664142   -0.020251
