11

O      3.818462   -0.900116   -0.995679
C      2.505108   -0.537503   -0.885537
C      1.331949   -0.209348   -0.766042
C     -0.077293    0.158911   -0.628529
N     -0.388473    0.123456    0.784429
C     -1.713228    0.454980    1.086737
H     -1.985727    1.460811    1.385103
H     -2.499666   -0.271380    1.033662
H     -0.056792   -0.766035    1.192922
H     -0.736474   -0.569743   -1.134297
H     -0.197866    1.151795   -1.072769
