16

C     -1.980442    0.358763   -1.135138
N     -1.053639   -0.521997   -0.482951
C     -1.003358   -0.356546    0.948700
H     -1.276653   -1.350297    1.382165
H     -1.679141    0.442345    1.325795
C      0.413503   -0.103192    1.227699
H      0.823185    0.284418    2.152509
C      1.083913   -0.181088    0.083393
C      2.542330    0.009658   -0.111315
H      3.044501   -0.986038   -0.174110
H      2.927942    0.576042    0.767090
H      2.718641    0.636782   -1.007340
O      0.218386   -0.445076   -0.960695
H     -2.799851    0.635475   -0.444228
H     -1.522170    1.233363   -1.615281
H     -2.457148   -0.232613   -1.956294
