10

N     -1.951850    0.645724    0.095727
C     -0.906094   -0.327210    0.083046
O     -1.206462   -1.521703    0.192044
N      0.425376    0.168630   -0.057083
C      1.459412   -0.523580    0.251988
O      2.731385    0.023858    0.089513
H      2.875221    1.014409    0.246653
H      1.299564   -1.512878    0.629475
H     -1.809398    1.627929    0.414310
H     -2.917153    0.404822   -0.219852
