12

O      2.651106    1.106590    0.094543
C      1.966851    0.055213    0.014183
C      0.510931    0.107782    0.002814
C     -0.364171    1.100626    0.063000
H     -0.286992    2.176030    0.138780
C     -1.468442    0.135651   -0.015694
H     -2.155492    0.248796   -0.872192
H     -2.036789    0.111788    0.955289
C     -0.503583   -1.000188   -0.084923
H     -0.382045   -1.506350   -1.051517
H     -0.455984   -1.667341    0.800177
H      2.524610   -0.868595   -0.044460
