15

C      0.031733    1.496493   -0.451461
C      0.253942    0.064611   -0.035256
C      1.644549   -0.329414    0.232857
C      2.793254   -0.655976    0.433302
H      3.807918   -0.943436    0.625879
C     -0.622928   -1.024609   -0.572591
H     -0.189802   -2.049710   -0.637141
H     -1.365346   -0.813248   -1.360167
C     -0.823912   -0.519346    0.801899
C     -2.117922    0.265652    1.005063
H     -2.869119   -0.087663    0.255823
H     -0.506968   -1.066396    1.698595
H     -0.871973    1.943084    0.022615
H     -0.056384    1.638111   -1.533838
H      0.892958    2.081848   -0.032480
