14

C     -1.995071   -0.136897   -0.032629
C     -0.506996    0.027459   -0.030419
C      0.179880    1.146746   -0.190758
O     -0.398517    2.409415   -0.396756
N      1.580539    0.909426   -0.128047
H      2.357568    1.629863   -0.225035
C      1.799427   -0.343478    0.069787
H      2.796355   -0.776780    0.155317
C      0.496436   -1.052378    0.155197
H      0.412074   -1.851050   -0.606837
H      0.350738   -1.451114    1.175896
H     -2.354720   -0.675688   -0.925595
H     -2.483989    0.849727    0.062907
H     -2.233724   -0.685252    0.916972
