13

C     -2.144343    0.002259    0.176520
C     -0.711539   -0.279619    0.523228
C      0.286287    0.264152   -0.173592
C      1.729490   -0.012871    0.166882
O      2.387786   -0.601979   -0.903445
H      2.349214    0.036564   -1.670180
H      1.825214   -0.608531    1.072394
H      2.159228    0.999491    0.407510
H      0.039778    0.909702   -0.990149
H     -0.426537   -0.929333    1.344854
H     -2.464310    0.976576    0.603350
H     -2.732070   -0.817091    0.649494
H     -2.298198    0.060681   -0.922380
