10

O      1.504663    1.606956   -0.152597
C      0.909945    0.679532   -0.644739
N      0.615221   -0.534942    0.010262
C     -0.721238   -0.696935    0.366634
C     -1.586698    0.416545    0.611886
N     -2.309958    1.323572    0.800468
H     -1.151155   -1.679902    0.470189
H      1.232949   -0.605536    0.863930
H      0.926651   -1.306596   -0.654302
H      0.579619    0.797307   -1.671730
