16

C     -1.848083    1.017386   -0.316667
C     -0.645913    0.464856    0.392188
H     -0.358213    1.023031    1.306968
C     -0.663718   -1.058647    0.508661
H     -1.423950   -1.625064   -0.058356
H     -0.331321   -1.463039    1.467796
C      0.352491   -0.307298   -0.368011
C      1.763032   -0.475434    0.075614
O      2.453452    0.722904    0.204920
H      2.897629    0.920139   -0.655042
H      1.849061   -1.058933    1.038757
H      2.299808   -1.090943   -0.674542
H      0.194166   -0.343885   -1.468939
H     -2.754073    0.703658    0.275405
H     -1.934980    0.468683   -1.297183
H     -1.849389    2.102587   -0.431569
