16

C     -2.140580   -1.031422   -0.064942
C     -1.199020    0.162290    0.108897
H     -1.730107    1.139255    0.012684
N     -0.353532    0.069483    1.267112
H     -0.481498    0.076151    2.318766
C      0.808200   -0.043787    0.489906
O      2.045579   -0.171320    0.807137
C      3.016401   -0.264073   -0.157741
H      4.007564   -0.566893    0.152895
H      2.808585   -0.045891   -1.185956
C      0.018193    0.043806   -0.738231
H      0.219117    0.952818   -1.370130
H      0.061589   -0.893171   -1.335895
H     -3.043984   -0.883428    0.556997
H     -2.452582   -1.081516   -1.132417
H     -1.583927   -1.919424    0.270919
