12

C     -0.183935    0.805406    0.412862
H     -0.252768    1.118006    1.494196
H      0.167188    1.698726   -0.218257
C      0.688923   -0.365302    0.227779
C      1.899266   -0.109286   -0.638999
H      2.621486    0.505283    0.024613
H      0.971002   -0.829971    1.132636
C     -0.488204   -0.985271   -0.425616
H     -0.423678   -1.480708   -1.454034
O     -1.585653   -1.121381    0.316969
C     -1.312208    0.150605   -0.129228
H     -2.101420    0.613893   -0.742921
