17

C     -1.755315    1.096707    0.507217
C     -1.060127    0.066345    0.059273
C     -1.515862   -1.304140    0.418118
H     -2.624111   -1.318253    0.219150
H     -1.317685   -1.444011    1.499774
H     -1.010806   -2.065404   -0.203262
C      0.147345    0.286122   -0.782730
C      1.390645   -0.289569   -0.151852
H      1.610436   -1.330136   -0.493181
C      1.893847    0.108753    1.110982
H      1.940183    0.188205    2.189983
C      2.612255    0.545774   -0.049649
H      3.459294    1.106602   -0.392549
H      0.016133   -0.148404   -1.809565
H      0.310443    1.372173   -0.914842
H     -1.454395    2.125680    0.266319
H     -2.642281    1.003556    1.123554
