15

C     -2.144415    0.425119    0.219357
C     -0.772359    0.335498   -0.356135
H     -0.790856    0.379432   -1.501514
O      0.232908    1.159383    0.070503
C      1.074201    0.122615    0.297539
C      0.019081   -0.877632    0.025994
H      0.219568   -1.627986   -0.752571
H     -0.391655   -1.252996    1.012734
O      1.960469   -0.088157    1.299488
C      2.407036    0.043388   -0.062127
H      2.816276   -0.807670   -0.611740
H      2.963640    0.986376   -0.206357
H     -2.522051   -0.623711    0.303310
H     -2.846551    0.912528   -0.495080
H     -2.225295    0.913813    1.209697
