14

N      2.787815    0.216242   -0.179328
C      1.362995    0.006684   -0.092887
C      0.446074    0.875379    0.289172
H      0.633818    1.894199    0.602635
C     -0.854613    0.187693    0.229782
N     -1.860736    0.886410   -0.557897
H     -2.070820    1.780247    0.017935
H     -2.747438    0.314743   -0.354801
H     -1.218316    0.100024    1.292466
C     -0.551861   -1.155736   -0.246927
H     -1.269868   -1.980827   -0.444689
N      0.726812   -1.240305   -0.426443
H      1.203592   -2.090464   -0.784411
H      3.412548    0.205712    0.655393
