18

C      1.052033    1.378337   -1.325811
C      0.780045   -0.089967   -1.425629
C      0.404020   -0.766237   -0.165109
C     -0.853468   -0.279013    0.483853
C     -1.125903   -1.104699    1.758555
H     -2.170086   -0.959008    2.089157
H     -0.949710   -2.170332    1.578704
H     -0.425258   -0.760796    2.532166
N     -0.773648    1.076064    0.881487
C     -0.719470    2.197618    1.227824
H     -1.742160   -0.376430   -0.160853
H      0.295743   -1.860455   -0.399437
H      1.251892   -0.752272    0.590658
H     -0.097721   -0.196448   -2.138406
H      1.660813   -0.564737   -1.927286
H      1.536584    1.655342   -0.389196
H      0.111289    1.937810   -1.455024
H      1.765006    1.635224   -2.155541
