16

C     -1.935464   -0.609482    0.319360
C     -0.470589   -0.307763    0.541024
C      0.005430    0.666093   -0.525028
O     -0.768341    1.815201   -0.386463
H     -0.582129    2.490924   -1.075740
C      1.467951    0.940321   -0.396015
C      2.205292   -0.288903    0.032000
H      2.080431   -1.142048   -0.686951
H      3.314451   -0.078102    0.045339
H      1.961145   -0.633028    1.051815
H     -0.205265    0.252801   -1.526071
H      0.124487   -1.239273    0.399974
H     -0.329951    0.145816    1.523694
H     -2.232863   -0.254816   -0.701742
H     -2.106779   -1.696237    0.320662
H     -2.527807   -0.061502    1.064142
