8

C      0.757009   -0.078921    0.011180
H      1.199670   -0.478081    0.952155
H      1.347951   -0.355133   -0.900674
C     -0.691133   -0.189756   -0.054669
H     -1.096842   -0.826866    0.778865
H     -1.130915   -0.485133   -1.047711
O     -0.760536    1.116651    0.099027
C      0.374797    1.297237    0.161828
