12

C      1.180030    0.282022   -0.328302
H      1.487435    0.422146   -1.361597
H      1.916123    0.413884    0.471561
C      0.317644   -0.933200   -0.026246
H      0.495379   -1.911326   -0.417104
C     -0.711201   -0.525845    0.953325
H     -1.342876   -1.191629    1.521719
C     -0.823807   -0.151606   -0.436663
H     -1.582232   -0.299966   -1.150595
C     -0.105750    1.047855   -0.016597
H     -0.236606    2.007285   -0.479352
O     -0.594140    0.840382    1.269852
