13

C     -1.862639   -0.840815   -0.599405
C     -0.580536   -0.778765   -0.312867
C      0.195539    0.427275   -0.701383
C      0.758490    1.034965    0.577364
H      1.128511    2.071301    0.480516
C      1.644883    0.130349    1.322260
H      2.536136   -0.453983    1.510499
N      0.441711    0.480510    1.824463
H      1.063860    0.132784   -1.356950
H     -0.443815    1.149596   -1.235504
H     -0.087801   -1.592709    0.200187
H     -2.453718   -1.725477   -0.319797
H     -2.340619   -0.035032   -1.104897
