14

O      3.087170    0.752719    0.886425
C      2.347955   -0.077888    0.062479
C      1.037917   -0.009683    0.045894
C     -0.054657    0.732079    0.673999
H     -0.008882    1.807660    0.401432
H     -0.148356    0.553576    1.779753
N     -1.043562    0.014813   -0.058988
C     -2.311350    0.043479   -0.109958
H     -2.881073    0.733525    0.501812
H     -2.882123   -0.615744   -0.762861
C     -0.008168   -0.731728   -0.695158
H      0.057323   -0.619135   -1.798629
H     -0.073680   -1.810256   -0.369557
H      2.881487   -0.773417   -0.556643
