12

C     -1.932817    0.408676    0.129256
C     -0.474380    0.230039   -0.072682
O      0.219986    1.136391   -0.604723
N      0.171986   -0.958506    0.325599
C      1.570988   -1.039527    0.093585
N      2.338544   -0.056571    0.384065
H      3.354916   -0.160300    0.196531
H      1.997203    0.823470    0.797584
H     -0.340282   -1.761073    0.773541
H     -2.273708   -0.230629    0.968770
H     -2.126414    1.471640    0.421293
H     -2.506024    0.136389   -0.765049
