16

C      2.226832    0.015620   -1.145480
C      1.474502    0.704475   -0.052655
C      0.255590    0.282332    0.287445
C     -0.922462    0.459962    1.160745
H     -0.896971    0.133544    2.213418
H     -1.514696    1.373464    0.983774
C     -0.861981   -0.624949    0.115469
C     -1.863474   -0.457565   -0.998681
H     -1.465611    0.233794   -1.767835
H     -2.172694   -1.429560   -1.450822
H     -2.797854   -0.018969   -0.561050
H     -0.749500   -1.677443    0.483990
H      1.945075    1.554244    0.454647
H      2.696479   -0.914111   -0.711739
H      1.573915   -0.279121   -1.986533
H      3.072849    0.644281   -1.481816
