17

C      2.066105   -0.406119   -0.399772
C      0.652355   -0.481956    0.088626
H      0.555437   -1.145237    0.957785
C      0.034774    0.859469    0.372373
O      0.213382    1.702645   -0.725607
H     -0.626460    2.054874   -1.089948
H      0.421407    1.332130    1.293633
C     -1.430545    0.458450    0.511507
H     -2.103749    1.158419   -0.010883
H     -1.705726    0.372821    1.592681
C     -1.428603   -0.915282   -0.151281
H     -1.308417   -1.679960    0.657582
H     -2.317470   -1.084899   -0.774383
O     -0.231331   -0.976857   -0.883644
H      2.375303   -1.449916   -0.645113
H      2.146482    0.281781   -1.250921
H      2.687057   -0.080362    0.457365
