16

C     -0.936620    1.377447   -0.383560
C     -0.433496   -0.026716   -0.232621
C     -1.145441   -0.819986    0.864621
H     -0.963280   -0.250672    1.802627
H     -2.218193   -0.843504    0.594904
H     -0.723453   -1.835290    0.960505
C      0.264127   -0.770758   -1.233213
H      0.575777   -0.365203   -2.215561
H      0.156047   -1.881802   -1.254494
N      1.035626   -0.207474   -0.112552
C      2.219130    0.029211    0.598458
O      2.215430    0.684081    1.649516
H      3.145891   -0.366344    0.221989
H     -0.063052    2.068703   -0.339222
H     -1.643680    1.659882    0.420710
H     -1.484814    1.548425   -1.342106
