10

O      2.382860    0.281085   -0.170865
C      1.113644    0.198108   -0.095685
C      0.194147   -0.907957    0.185485
H      0.293065   -1.245706    1.250719
H      0.277354   -1.749206   -0.537881
C     -0.951204    0.007803    0.038585
H     -1.609383    0.142930    0.918231
H     -1.610555   -0.138621   -0.848096
C     -0.004976    1.093481   -0.239344
O     -0.084950    2.318082   -0.501149
