15

C      3.224736    0.210743   -0.090278
N      1.931197   -0.428306   -0.341219
C      0.895525    0.028169    0.258215
N     -0.414666   -0.501035    0.101652
C     -1.813941   -0.354699   -0.065359
C     -2.944515    0.603281   -0.199978
H     -2.837650    1.447949    0.542722
H     -2.870585    1.051306   -1.199528
H     -3.912859    0.137169    0.028281
C     -1.298720   -1.596881   -0.004234
H     -1.522593   -2.672555   -0.031293
H      1.028213    0.884040    0.937306
H      3.235044    0.440932    0.999866
H      4.069959   -0.435653   -0.322784
H      3.230856    1.185538   -0.613367
