12

O     -1.011587   -1.740833   -1.190234
C     -1.182660   -0.361378   -0.939905
C      0.125874    0.278178   -1.032468
C      0.944327    0.260834    0.007190
C      1.484459    0.291089    1.188939
N      1.211022    1.308144    2.045264
C      0.992447    2.199232    2.786513
H      2.110777   -0.510299    1.387079
H      0.543388    0.779926   -1.839089
H     -1.876014    0.044207   -1.705938
H     -1.586953   -0.285242    0.073589
H     -1.755079   -2.263858   -0.780941
