13

C     -2.120533    0.426245   -0.146346
C     -0.647216    0.103758   -0.081674
O      0.349269    0.909698   -0.322242
C      1.506073    0.327682   -0.180170
O      2.785072    0.897036   -0.359823
H      3.029480    1.704508    0.197724
C      1.269707   -0.980831    0.187106
H      2.009939   -1.756288    0.389912
C     -0.099282   -1.116650    0.247910
H     -0.662366   -2.011241    0.505771
H     -2.405234    1.142386    0.654317
H     -2.327728    0.858069   -1.140303
H     -2.687182   -0.504372    0.047817
