10

N      3.184748    0.947240   -0.291818
C      1.994357    0.451751   -0.297793
C      0.787356    0.780748    0.528970
N     -0.044882    0.468817    0.525037
C     -0.496832    0.293381    0.516556
C     -1.524961   -0.119452    0.482500
H     -2.241143    0.055611   -0.439198
H     -1.792789   -1.255144    0.720499
N     -0.243097   -0.756955   -0.693220
H      0.377241   -0.865997   -1.051533
