12

C     -1.357827   -0.461162   -0.352883
C     -0.083085   -0.359247    0.442848
H     -0.014329   -1.056630    1.286536
C      0.364629    1.090155    0.651732
H     -0.106536    1.882965    0.057135
H      0.601411    1.317277    1.697502
C      1.151665    0.120257   -0.126823
N      2.217157   -0.096518   -0.823777
H      2.426504   -1.019340   -1.247408
H     -1.313866    0.040722   -1.329239
H     -1.699631   -1.505723   -0.478724
H     -2.186092    0.047243    0.223100
