10

C     -1.587566    0.159036    0.467214
N     -0.191708   -0.173948    0.283685
C      0.644059    0.624888   -0.238234
C      1.863280    0.193418   -0.340474
H      2.685664    0.737947   -0.754328
O      1.826563   -1.082861    0.194783
N      0.529439   -1.326367    0.593548
H     -2.085501   -0.489734    1.212963
H     -1.611993    1.214701    0.834154
H     -2.072236    0.142920   -0.527491
