13

C      0.350195   -0.511149   -0.727045
H      0.173336   -1.459563   -0.174704
H      0.575102   -0.658211   -1.809900
C      1.260891    0.411863   -0.010312
C      1.902865   -0.251199    1.195989
H      1.298898   -1.107872    1.520304
H      2.047105    0.888188   -0.655534
O      0.260863    1.283837    0.242645
C     -0.655609    0.513257   -0.391572
C     -1.792780    0.042532    0.461712
O     -1.806609    0.377408    1.623255
H     -2.563450   -0.572897    0.038187
H     -1.050807    1.043805   -1.313025
