15

O      2.086382   -0.299961   -0.876034
C      1.125801   -0.661672    0.045305
C      0.015659    0.371942    0.100698
O      0.547375    1.616585    0.470148
H      1.036121    2.031502   -0.282170
C     -1.087507   -0.107319    0.958480
H     -0.948381   -1.144858    1.361095
H     -1.334467    0.637115    1.755196
C     -1.907497   -0.050492   -0.238666
H     -2.981231   -0.273839   -0.483625
C     -0.930548    0.368042   -0.972238
H     -0.863777    0.626644   -2.044170
H      0.715545   -1.673309   -0.140173
H      1.574762   -0.689844    1.060488
H      2.951761   -0.750537   -0.714333
