11

O     -2.261189    1.722342   -0.810258
C     -1.353840    1.378915    0.022254
C     -0.687100    0.110133   -0.104074
C      0.332628   -0.281927    0.827110
N      1.561126   -0.801157    0.416688
C      2.574253   -1.243547    0.072539
H      3.506813   -1.669703   -0.239673
H      0.178716   -0.185823    1.892938
N     -1.014086   -0.691184   -1.075841
H     -1.748946   -0.386640   -1.730919
H     -1.088377    2.048592    0.825065
