9

O     -0.272114   -1.652557   -0.236626
C     -0.470875   -0.316664   -0.134885
C      0.679829    0.528400    0.129027
N      1.824564    0.181239   -0.342090
H      2.629832    0.819036   -0.128749
H      0.553950    1.446227    0.724169
N     -1.694827    0.288931   -0.266082
N     -2.684297    0.772633   -0.355916
H     -0.566062   -2.067245    0.611152
