12

O     -2.066016    0.100231    0.190598
C     -0.832085   -0.507165    0.403134
C      0.269271    0.287668   -0.274404
O      0.266431    1.555249    0.272518
H      0.461834    2.190068   -0.459153
C      1.574943   -0.369207   -0.003054
C      2.250783   -0.112936    1.122605
H      1.972491   -1.069154   -0.746503
H      0.071589    0.285679   -1.362331
H     -0.642702   -0.576932    1.490692
H     -0.877330   -1.531632    0.005155
H     -2.449209   -0.251868   -0.639257
