14

C      2.192910    0.098083    0.007540
C      0.812607   -0.518007    0.099167
H      0.813024   -1.616420    0.064515
O      0.122687    0.057643    1.253728
C     -0.328860    0.273652   -0.091250
C     -1.707940   -0.328018   -0.289660
O     -2.592411    0.294387    0.613249
H     -2.846371    1.165195    0.192490
H     -2.068711   -0.177288   -1.328309
H     -1.715747   -1.425322   -0.115747
H     -0.261694    1.323208   -0.455681
H      2.682705   -0.085561   -0.960488
H      2.810196   -0.265360    0.868752
H      2.087604    1.203808    0.141693
