14

O      2.421830    0.246045    0.219831
C      0.984319    0.033306    0.564592
H      1.086891   -0.659089    1.532997
C      0.235399    1.196488    0.741192
C     -1.082503    0.938581    0.190951
H     -2.067803    1.369427    0.740129
H     -1.115444    1.392130   -0.851850
C     -1.158386   -0.497661   -0.110286
H     -1.236636   -1.003052    0.872874
H     -1.832574   -0.864273   -0.834038
C      0.296588   -0.810680   -0.456228
H      0.570525   -1.823524   -0.529111
H      0.521343   -0.247337   -1.396610
H      2.376452    0.729638   -0.684442
