12

C     -1.255404   -0.143881    0.265629
H     -2.253235   -0.475942    0.464149
C     -1.070258    1.177721   -0.066463
H     -1.978898    1.726558   -0.115453
O      0.239741    1.668692   -0.280792
C      1.308054    0.815080   -0.068511
H      2.341728    1.161674   -0.166798
C      1.186122   -0.430773    0.231357
H      2.008830   -1.132915    0.433162
C     -0.116212   -1.053995    0.101704
H     -0.152581   -1.200657   -1.152127
H     -0.257887   -2.111563    0.354142
