16

C     -2.350716    0.536993    0.617812
C     -1.061291    0.056515    0.050746
C     -0.802513   -0.877980   -1.052299
H     -1.173401   -1.904747   -0.863849
H     -1.186452   -0.541493   -2.026595
C      0.670605   -0.943806   -1.129830
C      1.236013   -0.168824   -0.214964
C      2.704122    0.016655    0.004149
H      3.244615   -0.938111   -0.146636
H      2.889485    0.313637    1.059497
H      3.099502    0.847259   -0.617085
N      0.210802    0.472503    0.541918
H      0.410693    1.136821    1.326069
H     -3.213193    0.350208   -0.033482
H     -2.220422    1.621298    0.870967
H     -2.457850    0.023072    1.613583
