14

C     -2.324725    0.572902    0.665014
C     -1.033969   -0.055649    0.277252
C      0.318958   -0.058327    0.230541
C      1.578581    0.620098    0.560363
C      2.722400    0.089207    0.231045
O      2.743640   -1.115507   -0.430156
H      3.644222    0.570292    0.463967
H      1.588792    1.568044    1.079725
N     -0.387660   -1.145511   -0.341894
H     -0.481406   -2.039365    0.169105
H     -0.361174   -1.199518   -1.395115
H     -2.183129    1.625238    0.970742
H     -2.975605    0.588593   -0.234854
H     -2.848925   -0.020495    1.455578
