16

C     -1.438103   -1.187194   -0.202990
C     -0.475120   -0.049769   -0.044652
C     -1.091768    1.260036    0.212854
H     -1.610356    1.605818   -0.705762
H     -1.892446    1.101670    0.981590
H     -0.394445    2.035642    0.552474
C      0.955287   -0.282275   -0.147917
C      1.960438    0.634221    0.448992
H      1.647870    1.697518    0.403138
H      2.917277    0.591124   -0.139419
H      2.251583    0.326607    1.481778
C      1.420585   -1.338185   -0.789223
H      0.712000   -2.019726   -1.231989
H     -0.931424   -2.099371    0.158810
H     -2.381072   -1.011610    0.328734
H     -1.650307   -1.264504   -1.306418
