15

C      1.546857   -0.798275   -0.350409
N      0.633730    0.235056    0.093204
C      0.820280    1.638407    0.039633
H      1.667571    2.171313   -0.337761
N     -0.205956    2.150900    0.523324
C     -1.128113    1.411889    0.930444
C     -0.670197    0.022006    0.687946
C     -1.641547   -0.614135   -0.286704
H     -2.413407    0.103848   -0.634033
H     -2.212882   -1.443963    0.213941
H     -1.090402   -1.049818   -1.148007
H     -0.611204   -0.551088    1.631989
H      1.686661   -1.510666    0.502849
H      1.116579   -1.396701   -1.182462
H      2.502030   -0.368772   -0.683953
