16

C      0.248981   -1.228513   -1.343034
C      0.155454   -0.489934   -0.049136
N      0.776052    0.803374   -0.052409
C      1.821508    1.204368    0.814165
O      2.239734    0.376143    1.645834
H      2.262087    2.211026    0.768406
H      0.425397    1.502276   -0.751913
C     -1.299767   -0.415534    0.303379
C     -1.858580    0.660848    0.805423
H     -2.906260    0.651708    1.037261
H     -1.259504    1.535129    0.976987
H     -1.877044   -1.306004    0.121293
H      0.629778   -1.111662    0.738458
H     -0.528449   -2.038849   -1.304871
H      1.212019   -1.749511   -1.491092
H     -0.041405   -0.604866   -2.218750
