11

C      1.794918   -0.090251    0.066703
N      0.489829   -0.040075    0.013868
C     -0.520640    0.902302   -0.284849
H     -0.657345    1.706789    0.512084
H     -0.517018    1.338314   -1.307566
C     -1.433747   -0.168350   -0.006275
O     -2.818944   -0.330960   -0.000738
C     -0.493320   -1.004698    0.260122
H     -0.478104   -2.090019    0.570270
H      2.371871    0.783742   -0.165646
H      2.262498   -1.006793    0.342027
