10

O      1.883100   -0.633712   -0.355017
C      0.595996   -0.117489   -0.165903
C      0.320168    1.224518   -0.021625
H      1.053093    2.014896   -0.037956
C     -1.047535    1.249007    0.135177
N     -1.552892    0.007256    0.087724
H     -2.563325   -0.296025    0.176482
N     -0.545563   -0.822367   -0.096143
H     -0.640917   -1.869337   -0.173567
H      2.497875   -0.756748    0.450829
