13

O     -2.016811   -1.183778   -0.313956
C     -1.259344   -0.015501   -0.395265
C     -0.300155   -0.054009    0.796325
C      0.570522    1.112479    0.851422
O      1.637144    1.257395    0.282057
C      2.327542    0.426267   -0.545211
O      1.869225   -0.704220   -0.830352
H      3.284758    0.668461   -1.000560
H      0.239325   -1.020713    0.771209
H     -0.894229   -0.068036    1.742465
H     -0.728741   -0.015726   -1.354707
H     -1.952950    0.858072   -0.300934
H     -2.776285   -0.976203    0.297507
