12

C      1.591676    0.460913   -0.557120
C      1.068641   -0.598771    0.028913
C     -0.275442   -0.545960    0.593606
H     -0.352657   -0.940512    1.632690
C     -1.499899   -0.388605   -0.168433
H     -2.439071   -0.742810    0.295976
H     -1.513832   -0.454892   -1.277376
C     -0.934306    0.823656    0.414765
O     -0.971323    2.013657    0.604991
H      1.698313   -1.501330    0.062008
H      1.042805    1.415152   -0.642782
H      2.585096    0.459501   -0.987239
