11

C     -1.756304   -0.548709   -0.140446
N     -0.552561    0.217406   -0.072982
N      0.888911    0.248801    0.050977
C      2.156128   -0.353387    0.190625
O      2.213251   -1.606538    0.256617
H      3.075078    0.187236    0.244311
C      0.122316    1.456019   -0.074567
O      0.153587    2.709358   -0.132894
H     -1.600574   -1.606221    0.192955
H     -2.467006   -0.117431    0.610070
H     -2.232828   -0.586534   -1.124665
