11

C      1.155160   -0.289159   -1.023076
O     -0.215687   -0.127847   -0.846300
C     -0.563710    0.123671    0.473312
C     -1.516159   -0.915207    1.015757
H     -1.039217   -1.909116    1.108995
C     -1.147529    1.448700    0.644044
N     -1.627433    2.494769    0.790186
H      0.391929    0.129122    1.063888
H      1.680878    0.621822   -0.710448
H      1.340419   -0.442305   -2.090134
H      1.541350   -1.134452   -0.426224
