11

O      2.426854   -0.950996    0.280784
C      1.150250   -0.406047    0.143760
C      0.091324   -1.159633   -0.056976
H      0.045319   -2.257028   -0.142589
C     -1.064570   -0.261538   -0.151838
H     -1.422231   -0.335597   -1.210528
H     -1.871682   -0.498312    0.567687
C     -0.503644    1.086975    0.023087
H     -1.046874    2.054457    0.017935
N      0.762154    0.957944    0.188664
H      1.433099    1.769776    0.340014
