14

C     -0.311996    1.360948   -0.037651
C     -0.018501   -0.090856    0.037813
C      1.356821   -0.604777    0.101680
N      2.409793    0.107299    0.187663
H      2.312619    1.114602    0.215722
H      1.499830   -1.681774    0.073989
C     -1.111689   -0.987008    0.517829
H     -1.978736   -0.484968    0.984033
H     -0.779713   -1.879170    1.084361
C     -0.897141   -0.905774   -0.933487
O     -1.156736   -1.206735   -2.083498
H     -1.177147    1.575707    0.655172
H     -0.638676    1.650915   -1.073868
H      0.491273    2.031591    0.270243
