12

C      1.872865   -0.142106   -0.256297
C      0.823074   -0.291331    0.527176
C     -0.333629    0.648732    0.529848
C     -1.555632   -0.190770    0.153679
H     -1.323508   -0.905579   -0.656766
H     -1.832756   -0.738429    1.081355
H     -2.377672    0.445062   -0.204181
H     -0.451795    0.986716    1.588698
H     -0.207202    1.488325   -0.175740
H      0.767539   -1.125386    1.212337
H      1.953569    0.703191   -0.966221
H      2.665147   -0.878424   -0.186118
