12

C     -1.880726   -0.383034    0.032053
H     -2.657993   -1.048227    0.345543
C     -1.447645    0.933293   -0.223983
H     -1.714962    1.979466   -0.225991
C     -0.495101   -0.144598   -0.445540
C      0.644697   -0.253566    0.538312
C      1.936677    0.017822   -0.120359
O      2.503946   -0.838659   -0.779171
H      2.351696    1.027475    0.017549
H      0.484319    0.445026    1.380450
H      0.590349   -1.271976    0.980267
H     -0.315258   -0.463024   -1.499130
