17

C      1.729975    0.909464    0.470280
C      0.809610   -0.170267    0.194047
C      1.117977   -1.381379   -0.142549
H      2.127059   -1.854845   -0.280302
O      0.013265   -2.207270   -0.414419
C     -1.121779   -1.359646   -0.355892
H     -1.962829   -1.790541    0.213651
H     -1.487532   -1.194451   -1.425145
C     -0.659454   -0.083653    0.210964
C     -1.237044    1.158751   -0.260678
H     -0.628274    1.807260   -0.898773
H     -1.568450    1.775835    0.656003
H     -2.260155    0.929155   -0.754982
H     -0.921416   -0.176391    1.407432
H      1.411700    1.802236   -0.157328
H      1.877844    1.165036    1.486814
H      2.759504    0.670705    0.050876
