10

N      1.984038   -0.378067   -0.601909
C      1.307204    0.138649    0.358588
C      0.118139    0.888847    0.069992
C     -1.039982    0.357498   -0.219502
C     -2.066047   -0.453484   -0.193741
H     -2.305513   -0.839259   -1.129519
H     -2.608518   -0.704406    0.686408
H      0.090608    1.932852    0.071292
H      1.660235   -0.010856    1.362303
H      2.859835   -0.931773   -0.403913
