15

C     -1.426564   -1.299481    0.404905
C     -0.414331   -0.176586    0.358647
C     -0.646514    0.601793   -0.906671
H     -0.107245    0.133745   -1.756432
H     -1.749015    0.555995   -1.114262
H     -0.359512    1.668694   -0.809162
O      0.906901   -0.658923    0.476548
C      1.997753    0.188436    0.460656
N      1.917982    1.249153   -0.260929
H      2.686726    1.950044   -0.338913
H      2.884353   -0.026604    1.029536
H     -0.597422    0.453206    1.262896
H     -1.361044   -1.944870   -0.504964
H     -1.295751   -1.871268    1.342478
H     -2.436317   -0.823334    0.355667
