14

C     -1.716887    0.197533    0.065000
H     -2.255183    0.399698    1.033615
H     -2.378495    0.379110   -0.822837
C     -0.981840   -1.083639    0.084453
H     -1.187341   -1.798677   -0.739848
H     -1.078794   -1.621080    1.071937
C      0.309384   -0.381411   -0.004550
O      1.498392   -0.781466   -0.042832
C      2.594263    0.036527   -0.127638
H      3.077963    0.158237   -1.090630
H      3.027113    0.582569    0.701039
C     -0.402454    0.907535   -0.025425
H     -0.294478    1.478036   -0.979337
H     -0.211643    1.527026    0.877053
