12

C      1.620631   -0.070190   -0.036487
N      0.575587    0.932222    0.092290
C     -0.664589    0.574559    0.110529
O     -1.618118    1.571318    0.235171
H     -1.488932    2.510080   -0.160132
C     -0.965822   -0.860651   -0.002320
H     -0.744426   -1.264196   -1.030899
H     -0.446556   -1.459141    0.786510
H     -2.058925   -1.066337    0.140693
H      2.389822    0.323188   -0.749921
H      1.252202   -1.050898   -0.337108
H      2.149126   -0.139955    0.951673
