14

O      2.913794    0.429922   -0.067955
C      2.191275   -0.752305   -0.240789
C      0.759972   -0.425713   -0.607532
C     -0.114260   -0.482063    0.642784
C     -1.526974   -0.167501    0.325725
C     -2.152939    0.854721    0.881323
H     -3.167783    1.128235    0.691044
H     -1.598632    1.461426    1.581412
H     -2.072135   -0.780757   -0.375871
H      0.019243   -1.482237    1.089750
H      0.308500    0.249204    1.359323
H      0.724529    0.617372   -1.035987
H      0.383256   -1.103889   -1.389511
H      3.332156    0.453584    0.847596
