10

O     -2.385122    0.577605   -0.168759
C     -1.544399   -0.157632    0.294936
C     -0.256182   -0.318103   -0.456949
H     -0.433346   -0.519951   -1.556337
C      0.737650    0.711099   -0.202492
H      0.865908    1.791553   -0.348337
C      1.547366   -0.158403    0.326866
H      2.560075   -0.097504    0.772414
O      0.661639   -1.165529    0.117023
H     -1.753591   -0.663136    1.221636
