13

C     -2.139597    0.023548   -0.042125
C     -0.776575   -0.513272   -0.522650
N      0.204101    0.423760    0.000488
C      1.575956    0.146193   -0.195430
C      2.828424    0.124609   -0.555248
O      3.753011   -0.785894   -0.116240
H      3.195258    0.884727   -1.258317
H     -0.058443    1.296581    0.519377
H     -0.619494   -1.544544   -0.164335
H     -0.812980   -0.470825   -1.614933
H     -2.113798    1.093420   -0.237722
H     -2.125901   -0.119216    1.076329
H     -2.909962   -0.559087   -0.561024
