15

C      1.695209   -0.149057    0.128894
C      0.420507    0.378390    0.240696
C     -0.688839    0.952896    0.549331
H     -1.216682    1.503453    1.291291
N     -0.035346    1.587144   -0.636282
H      0.651568    2.318761   -0.475469
C     -0.906431   -0.479814    0.127780
O     -1.076536   -1.354862    1.179391
H     -1.603635   -0.954996    1.915378
N     -1.144382   -0.879808   -1.193188
H     -0.619742   -1.649710   -1.592900
H     -1.815384   -0.381629   -1.767849
H      2.141067   -0.467121    1.101042
H      1.769272   -1.019421   -0.581307
H      2.429352    0.595773   -0.286808
