12

C      2.475801    0.169375    0.065310
C      1.359080    0.051708    0.752214
C      0.020916    0.048588    0.196528
C     -0.982570    0.881046   -0.434445
H     -1.371408    1.729886    0.164114
H     -0.648190    1.219606   -1.454538
O     -1.889418   -0.140119   -0.549533
C     -1.000722   -1.003903    0.041798
H     -1.375687   -1.382381    1.017095
H     -0.594580   -1.800930   -0.631253
H      1.446502   -0.051246    1.820256
H      2.560276    0.278371   -0.987545
