10

O      1.640143    0.151683   -1.697394
C      1.924454    0.302937   -0.437397
C      0.867574    0.200613    0.599956
N      0.086221    0.068921    0.669420
C     -0.649404   -0.056269    0.721823
C     -1.631389   -0.224413    0.774337
H     -2.086088   -1.252989    0.171358
H     -2.408149    0.485397    0.055392
O     -0.555962   -0.171495   -0.905796
H      2.812600    0.495615    0.048300
