14

N      2.758352    2.262928    1.684687
C      2.401758    1.468834    0.915133
O      1.963166    0.533795    0.014485
C      0.619583    0.617266   -0.410320
C     -0.231017    0.477290    0.800943
C     -1.108314   -0.515603    0.903232
C     -1.280471   -1.516932   -0.167016
H     -2.190486   -2.131405   -0.008145
H     -1.469789   -0.942757   -1.113223
H     -0.376530   -2.135728   -0.336627
H     -1.738133   -0.622905    1.795621
H     -0.180469    1.159954    1.640597
H      0.393072    1.574896   -0.933579
H      0.439277   -0.229633   -1.084476
