15

C     -2.464421   -0.409350   -0.166190
C     -1.220640   -0.264861   -0.488001
C     -0.096479    0.273272    0.253585
H     -0.348526    0.758493    1.229725
C      1.026765   -0.683632    0.551161
H      1.002948   -1.209778    1.540955
H      0.940368   -1.433738   -0.354355
C      2.248289    0.043129    0.299679
H      3.224856   -0.299489    0.482758
C      1.875748    1.158861   -0.185708
C      0.621392    1.404921   -0.428081
H      0.108661    2.099033   -1.024764
H     -0.939202   -0.720593   -1.497976
H     -3.269148   -0.800402   -0.631198
H     -2.710613    0.084134    0.871509
