15

C     -1.688152   -0.466111    0.227878
H     -1.930004   -0.870488   -0.772811
H     -2.333132   -0.818384    1.061762
C     -0.231175   -0.608984    0.612147
C      0.606999   -1.209116   -0.430511
O      1.587716   -0.704993   -0.984420
C      2.156091    0.515547   -0.792780
H      1.834839    1.427278   -1.300861
H      2.976011    0.621143   -0.103199
H      0.333406   -2.223581   -0.758480
H     -0.067214   -1.009977    1.644002
C     -0.214762    0.870112    0.569460
H      0.588479    1.592486    0.757228
C     -1.509534    1.010199    0.227333
H     -2.109569    1.874869    0.043251
