13

C      1.028478    0.281346   -1.021445
N      0.317831   -0.225958   -0.096487
C      0.220965   -1.656677    0.157763
H      0.366462   -2.217554   -0.808503
H      0.950143   -2.008375    0.901119
H     -0.832620   -1.854957    0.446646
C     -0.435932    0.633427    0.753032
C     -1.103554    1.635352    0.254733
H     -1.665904    2.270912    0.917553
H     -1.095490    1.826686   -0.796193
O     -0.406564    0.331606    2.114021
H      1.598799   -0.352393   -1.665778
H      1.057385    1.336584   -1.156462
