13

C     -2.043870   -0.044182    0.451889
C     -0.737241   -0.416774   -0.143037
C      0.374673    0.556443   -0.288968
C      1.646835    0.083697    0.286851
C      2.513990   -0.548438   -0.440642
O      3.533675   -0.897953   -1.093226
H      1.867184    0.263700    1.322635
H      0.072280    1.566065    0.110055
H      0.491266    0.764433   -1.401051
O     -0.590238   -1.554319   -0.510512
H     -1.892477    0.578949    1.387058
H     -2.572310   -0.953180    0.808326
H     -2.663767    0.601558   -0.204892
