18

C     -2.624551   -0.160886   -0.291558
C     -1.176613    0.062507   -0.673720
C     -0.294924   -0.252431    0.528340
C      1.124503   -0.042025    0.181182
C      1.634392    1.267653   -0.256024
H      1.629001    2.030957    0.559702
H      2.669820    1.202981   -0.618436
H      1.029410    1.653041   -1.117258
C      1.948316   -1.044279    0.267842
N      2.808290   -1.936436    0.632093
H      3.152306   -1.869937    1.635941
H     -0.480333   -1.285037    0.847101
H     -0.558750    0.411800    1.379194
H     -0.873718   -0.632327   -1.469862
H     -1.067665    1.121863   -0.949412
H     -2.779749    0.347228    0.676434
H     -3.266365    0.357341   -1.045128
H     -2.873369   -1.232012   -0.286429
