13

O      2.512893   -0.820044    0.690766
C      2.165916    0.472605    0.330212
N      0.951499    0.740386   -0.009239
C     -0.018031   -0.307860   -0.006725
C     -1.257135    0.275837   -0.638431
C     -2.389651    0.340621    0.011122
H     -2.448015   -0.031604    1.027713
H     -3.262386    0.761910   -0.460436
H     -1.184309    0.646606   -1.661668
H      0.236884   -1.173688   -0.642900
H     -0.270141   -0.574467    1.028045
H      2.945342    1.250937    0.342143
H      2.017134   -1.581240    0.273885
