11

C     -1.108863   -0.492898   -0.102945
H     -1.797069   -0.425950   -0.951260
H     -1.563821   -0.579523    0.877980
C     -0.182490    0.748787   -0.083763
H     -0.457213    1.459594    0.715928
H     -0.182710    1.276071   -1.065786
C      1.181108    0.072618    0.166084
H      2.006256    0.642559   -0.189453
H      1.224047   -0.013807    1.313443
O      0.974006   -1.165306   -0.320976
C     -0.093252   -1.522145   -0.359253
