17

C     -1.306032    0.748376    0.002683
H     -0.836618    1.723521   -0.179570
H     -2.244634    0.613057   -0.590624
C     -1.158227   -0.025804    1.249466
H     -0.688458    0.482241    2.109663
H     -2.028167   -0.652366    1.548935
C     -0.373762   -0.377798    0.119468
C     -0.484736   -1.485948   -0.839328
H     -1.334998   -1.416823   -1.562675
H     -0.304807   -2.522360   -0.457528
C      0.831085   -0.981793   -1.431962
C      1.082861   -0.311812   -0.084164
C      1.680815    1.057213   -0.145588
H      1.788708    1.452464   -1.168549
H      1.080598    1.743186    0.505289
H      2.677031    1.003270    0.362989
H      1.619342   -1.048624    0.561495
