12

C     -1.439392   -0.394573   -0.239250
C     -0.247384    0.435895    0.062071
C      0.978910   -0.265086    0.518053
O      1.398366   -1.157156   -0.449017
H      2.333309   -0.984291   -0.673445
H      0.781428   -0.847449    1.463635
H      1.740388    0.486160    0.797367
C     -0.271604    1.748727   -0.068833
O     -0.125526    2.871757   -0.561242
H     -1.059081   -1.305425   -0.745322
H     -1.891421   -0.726657    0.737312
H     -2.197993    0.138100   -0.841331
