11

O     -0.404964    1.454260    0.466402
C     -0.044856    0.386870   -0.341257
C      1.230057   -0.203142    0.236384
H      1.590619   -0.964579   -0.466762
H      1.985270    0.602665    0.345325
H      0.946288   -0.626971    1.236235
C     -1.090031   -0.653487   -0.348709
O     -2.121828   -0.532191    0.296466
H     -0.941232   -1.536261   -0.933437
H      0.129142    0.712888   -1.383548
H     -1.278463    1.359948    0.892900
