16

C      2.073112    0.287809   -0.912739
C      0.817136   -0.532830   -1.020155
C      0.032761   -0.466058    0.273626
H      0.311855   -1.251830    1.000172
C     -0.406285    0.872961    0.696994
H     -0.435940    1.091789    1.792225
H     -0.251011    1.733065    0.034252
C     -1.423378   -0.108141    0.162125
C     -2.679325   -0.398732   -0.156516
H     -3.495282    0.299879   -0.034116
H     -2.876175   -1.387017   -0.556397
H      1.091951   -1.557022   -1.294384
H      0.170758   -0.120010   -1.833232
H      2.796091   -0.205237   -0.250726
H      2.474598    0.474437   -1.928030
H      1.799135    1.266935   -0.430223
