13

C      2.109978   -0.314516   -0.034598
C      0.603860   -0.168636    0.000019
C     -0.273120   -1.116029    0.257076
C     -1.660053   -0.657942    0.214666
H     -2.234093   -1.181507   -0.603154
H     -2.173291   -0.761704    1.199280
C     -1.507060    0.779786   -0.122207
H     -2.352875    1.471517   -0.242716
N     -0.127134    1.020029   -0.239724
H      0.283246    1.957259   -0.473362
H      2.424281   -0.144675    1.027871
H      2.392831   -1.346821   -0.304697
H      2.513431    0.463239   -0.678453
