13

C      1.854005   -0.196207   -0.071150
O      0.721070   -0.612172   -0.793469
C     -0.366933   -0.236149   -0.060535
N     -1.607087    0.180498   -0.618252
C     -1.481628   -0.983604    0.356818
H     -2.046290   -0.719995    1.271899
H     -1.754678   -1.965000   -0.051236
C     -0.718058    1.240043   -0.231704
H     -0.769404    1.719369    0.760465
H     -0.164212    1.825732   -0.998071
H      1.848099   -0.831858    0.849633
H      2.783204   -0.286835   -0.653968
H      1.701912    0.866176    0.239570
