13

C      2.365545   -0.015213   -0.038931
O      1.345788   -0.801426    0.520558
C      0.001320   -0.505835    0.336526
C     -1.065152   -1.217314    0.845052
N     -2.233540   -0.626697    0.454212
H     -3.208554   -0.926153    0.676271
C     -1.891010    0.440776   -0.289594
H     -2.580500    1.129625   -0.755698
N     -0.552787    0.507352   -0.356053
H     -0.046515    1.249658   -0.877367
H      2.058656    1.059215    0.131987
H      3.324048   -0.131793    0.486071
H      2.482702   -0.162196   -1.133034
