15

C      3.081526    0.276526    0.030739
O      1.685183    0.050973   -0.053674
C      1.023239    0.309878    0.981472
O     -0.345683    0.109124    0.958615
C     -0.907177   -0.378535   -0.241935
C     -2.412662   -0.507595    0.002280
O     -2.860139    0.777228    0.319255
H     -2.916338    1.360789   -0.484394
H     -2.907556   -0.907360   -0.905527
H     -2.569902   -1.143933    0.898311
H     -0.473050   -1.343841   -0.561351
H     -0.805370    0.339298   -1.079111
H      3.435500    0.245584    1.080786
H      3.314330    1.292265   -0.398592
H      3.658098   -0.480402   -0.546873
