12

C     -1.281739   -0.903881   -0.148071
C     -0.339244    0.193807    0.014083
C      0.922072   -0.113689   -0.023905
C      2.190812   -0.473594   -0.003351
H      2.576271   -0.720612    0.951752
H      2.629015   -0.458182   -0.959890
C     -0.603210    1.591356    0.213438
O     -0.657347    2.355465   -0.775217
H     -0.764652    2.051395    1.186407
H     -2.310119   -0.479406   -0.164549
H     -1.130089   -1.504927   -1.064472
H     -1.231770   -1.537734    0.773777
