15

C      1.303038    0.970283    0.140239
H      1.163962    1.716357   -0.648337
H      1.679860    1.305397    1.117948
C      1.802897   -0.407374   -0.202544
H      2.559563   -0.894749    0.433668
H      2.052252   -0.525967   -1.296703
C      0.470975   -0.208935    0.156222
C     -0.701780   -0.410549   -0.703920
H     -0.969762    0.336115   -1.414830
H     -0.683765   -1.488628   -1.163750
C     -1.412885   -0.476525    0.594680
C     -2.107205    0.924927    0.777060
H     -2.941131    0.895782    0.047868
H     -2.026951   -1.292295    0.840602
O     -0.189066   -0.443840    1.321795
