11

C      0.017319   -1.155847    0.933020
C     -0.272296   -0.028482    0.327975
C      0.037455    0.076934   -1.122844
O      0.930709    1.108987   -1.386961
H      1.734302    0.953157   -0.802541
H      0.424701   -0.858672   -1.528035
H     -0.925180    0.293997   -1.631063
C     -0.864901    1.030547    1.085799
N     -1.367116    1.888686    1.698608
H     -0.182148   -1.305488    1.998116
H      0.467154   -2.003820    0.427926
