11

O     -1.412818    2.060062    0.492033
C     -1.272691    0.834169    0.286553
C     -0.284167   -0.248720   -0.001424
C      0.969976   -0.601196   -0.209938
C      2.049470    0.369476   -0.193771
O      1.765856    1.565898    0.024865
H      3.076684    0.129666   -0.357056
H      1.157554   -1.650167   -0.394120
C     -1.749120   -0.521466    0.137053
H     -2.217374   -0.825798   -0.802502
H     -2.083369   -1.111923    1.018306
