11

C      0.004245    0.757176   -0.547668
H     -0.000061    1.623766    0.336240
H     -0.514486    1.194771   -1.365353
N      1.388109    0.511580   -0.540315
C      1.628104   -0.405709    0.373513
H      2.619427   -0.727098    0.638092
O      0.447596   -0.904359    0.915833
C     -0.598195   -0.401822    0.173988
O     -1.805537   -0.233519    0.726421
H     -2.505379   -0.250681   -0.003658
H     -0.663824   -1.164106   -0.707092
