12

O     -1.853694   -0.607899    0.141308
C     -0.999399    0.232502   -0.531997
C      0.229702    0.498931    0.309472
C      0.978650   -0.730663    0.579565
C      1.585539   -1.767944    0.804122
H      2.118424   -2.665150    0.985500
N      1.120846    1.363297   -0.368679
C      1.827904    2.065155   -0.931428
H     -0.140769    0.966898    1.257721
H     -0.621290   -0.229801   -1.484498
H     -1.451446    1.214998   -0.773618
H     -2.794468   -0.340322    0.012533
