17

O      2.059738    1.193757    0.232531
C      0.983344    0.426944    0.627007
H      1.111161    0.126790    1.680879
C      0.830769   -0.825276   -0.198296
H      1.656302   -1.519367    0.016477
H      0.799773   -0.600523   -1.279320
C     -0.509536   -1.333494    0.320058
H     -0.299472   -1.844954    1.284699
H     -0.905229   -2.026580   -0.436105
C     -1.310663   -0.072915    0.477628
H     -2.154453   -0.078097    1.200370
C     -0.346658    1.086250    0.482224
H     -0.532511    1.965231    1.119048
C     -1.247040    0.869271   -0.659273
H     -0.866454    0.515229   -1.647847
H     -2.098867    1.556078   -0.762117
H      2.829796    0.561657    0.138778
