14

C     -1.520029   -0.115015    0.855542
C     -0.716858    0.102516   -0.376317
C      0.553679   -0.631660   -0.516795
H      0.445994   -1.642959   -0.934714
N      1.768269    0.064958   -0.850379
H      1.747180    1.086059   -1.055898
C      1.594223   -0.402287    0.510213
H      1.349564    0.314870    1.305861
H      2.323620   -1.198410    0.782893
C     -1.126116    0.913852   -1.295176
O     -1.307674    1.953417   -1.955756
H     -2.212570    0.738640    1.026937
H     -0.790186   -0.141753    1.702365
H     -2.109096   -1.042227    0.801224
