14

O      3.360412    0.387079    0.143864
C      2.153538    0.048217    0.171126
C      1.290017    0.458646   -0.906249
C      0.028253    0.101578   -0.874960
C     -0.645285   -0.694271    0.156669
C     -1.753612    0.191946    0.722293
H     -1.995293   -0.082274    1.767097
H     -1.482017    1.254077    0.644928
H     -2.660450    0.039267    0.101678
H     -1.142831   -1.558593   -0.385439
H     -0.039827   -1.118702    0.941997
H     -0.599675    0.434769   -1.716378
H      1.683121    1.068194   -1.752178
H      1.803651   -0.529932    0.985553
