14

O     -1.122504   -0.960810    1.196395
C     -0.334105   -0.095895    0.405405
C     -1.166551    0.924781   -0.366153
H     -1.323551    1.852068    0.205665
H     -2.144849    0.433046   -0.624558
H     -0.630576    1.155873   -1.326471
O      0.592027    0.612646    1.130857
C      1.819278    0.491547    0.639470
H      2.762881    0.997843    0.988813
N      1.854995   -0.328990   -0.367997
C      0.511308   -0.816157   -0.557617
H      0.492338   -1.946459   -0.423433
H      0.241351   -0.634583   -1.654203
H     -1.552040   -1.684911    0.753828
