11

C      1.413552    0.272219    0.086366
C      0.158655   -0.419116   -0.419248
H      0.313178   -0.857757   -1.420044
O     -0.492952   -1.232506    0.497885
C     -1.581533   -0.389386    0.565410
H     -2.530576   -0.411445    1.127868
C     -1.034953    0.436419   -0.299359
H     -1.283369    1.383368   -0.785849
H      1.375951    0.200552    1.198495
H      2.290674   -0.290520   -0.269020
H      1.371372    1.308172   -0.282504
