13

C     -2.006002   -0.279230    0.461369
O     -0.809828   -0.958548    0.156460
C      0.348846   -0.270932   -0.159668
C      1.531694   -0.845351   -0.088309
O      2.635097   -0.071340   -0.426151
H      3.120418    0.373264    0.343020
H      1.654027   -1.894194    0.224561
N      0.224795    1.079653   -0.565548
H      0.713299    1.876798   -0.082700
H     -0.371849    1.363117   -1.384578
H     -2.779013   -1.052135    0.677292
H     -2.350420    0.245642   -0.451595
H     -1.911065    0.433257    1.295848
