16

C      2.520871    0.354943   -0.639589
O      1.237022    0.164177   -1.160920
C      0.366475   -0.079914   -0.093577
C     -1.004926   -0.282045   -0.672961
N     -1.442436    0.879954   -1.398760
O     -1.559370    1.923020   -0.828887
C     -1.981407   -0.656872    0.393955
H     -2.068687   -1.762782    0.515808
H     -2.963125   -0.195615    0.128410
H     -1.676105   -0.180889    1.346188
H     -0.996316   -1.124209   -1.420330
H      0.663932   -1.021846    0.414701
H      0.316877    0.783996    0.602804
H      3.182395    0.546226   -1.522538
H      2.886596   -0.574891   -0.172318
H      2.518203    1.226748    0.050891
