11

C     -1.577768   -0.128665    0.270510
H     -2.304459   -0.897129   -0.054017
H     -1.884254    0.941164    0.315670
C     -0.148961   -0.462667    0.068782
C      0.861052    0.664676   -0.125248
O      2.130480    0.083178   -0.293838
H      2.016358   -0.827581   -0.662185
H      0.882222    1.327290    0.766700
H      0.638554    1.237206   -1.055691
H      0.087929   -1.349008   -0.562210
C     -0.701153   -0.588463    1.427356
