15

C      2.179100   -0.084568   -0.056931
C      0.664935   -0.187281   -0.034557
C     -0.044175   -0.579067   -1.095335
C     -1.486437   -0.610639   -0.676802
H     -2.027525   -1.443666   -0.160654
C     -1.460302    0.650112    0.107720
H     -2.372996    0.804941    0.682897
H     -1.184834    1.464181   -0.580515
C     -0.265764    0.279344    1.021765
H     -0.548998   -0.481096    1.732850
H      0.157217    1.218611    1.447921
O     -1.121716   -0.959424   -1.946190
H      2.434989    0.141872   -1.161823
H      2.483498    0.806258    0.540430
H      2.593009   -1.019578    0.179223
