15

C      2.366587   -0.405652    1.034837
N      1.088952   -0.162466    0.426965
C      0.978523    0.265589   -0.783842
C     -0.328077    0.502173   -1.371022
C     -1.439983    0.287744   -0.687581
N     -2.001610   -0.151147    0.598358
H     -1.771553    0.520578    1.377186
H     -1.742725   -1.130836    0.778967
C     -2.853324    0.233420   -0.439979
H     -3.859922    0.381963   -0.796474
H     -0.440685    0.859933   -2.381689
H      1.876480    0.446208   -1.356934
H      2.346939   -0.267961    2.137264
H      2.579232   -1.505852    0.891018
H      3.201167    0.126306    0.572925
