17

C      2.302871   -0.378702   -0.531254
C      0.953915   -0.950690   -0.925444
C     -0.066473    0.161500   -0.957114
H     -0.262607    0.564807   -1.961726
C     -1.159663    0.186409    0.037896
C     -1.319307   -1.057647    0.870846
H     -2.337491   -1.464858    0.692447
H     -1.179508   -0.840315    1.939321
H     -0.616271   -1.857341    0.534159
O     -2.358720    0.844287   -0.282862
H     -2.571349    1.403771    0.503510
C      0.000207    1.081149    0.237732
H      0.707099    0.846509    1.061774
H     -0.083243    2.169845    0.027231
H      2.330157    0.733018   -0.632465
H      3.098843   -0.828555   -1.144361
H      2.561542   -0.613188    0.530310
