13

O      1.309865    1.299727    0.074761
C      2.045671   -0.003042   -0.048273
H      2.373626   -0.165301   -1.121137
H      2.906535    0.068539    0.643864
C      0.739516    0.067979    0.283023
O      0.032701   -0.223666    1.408668
C     -1.140140   -0.483000    0.731989
H     -1.762685   -1.344616    0.994263
C     -1.631426    0.494891   -0.340472
H     -2.611088    0.209612   -0.751089
H     -1.470291    1.550033   -0.021116
C     -0.424809   -0.344245   -0.543619
H     -0.367474   -1.126911   -1.310861
