13

O      2.154293   -0.026862   -0.317249
C      0.938001   -0.520959    0.305276
H      1.092203   -1.336033    0.984032
C     -0.121322   -0.702472   -0.801402
H      0.120265   -1.265191   -1.586900
O     -1.184705   -1.324091    0.053935
C     -1.317941   -0.042699    0.660249
H     -2.116455    0.159351    1.314401
C      0.093338    0.639816    0.743087
H      0.249524    1.501634    1.263542
C     -0.774173    0.472115   -0.495658
H     -1.017136    1.427573   -1.062884
H      1.884107    1.017819   -0.161419
