13

N      0.952185   -0.409573   -1.136103
C      2.030423   -0.600521   -0.519152
O      3.072684   -0.858379    0.113851
C     -0.265855    0.068532   -0.546786
C     -0.993654   -0.990680    0.251812
H     -1.612379   -0.470556    0.993963
H     -1.667816   -1.573849   -0.395784
H     -0.271510   -1.689637    0.731069
C     -0.084620    1.303501    0.294113
H     -0.144076    2.238229   -0.296375
H     -0.924098    1.306583    1.036348
H      0.853081    1.323405    0.863682
H     -0.944367    0.352946   -1.390637
