11

C     -1.466065    0.097684    0.097115
N     -0.195678    0.613675   -0.295622
C      1.037117   -0.058251   -0.076343
O      2.251127    0.656746   -0.068103
H      3.031681    0.152428    0.358065
N      0.991894   -1.319197    0.109565
H      0.075340   -1.816206    0.096881
H     -0.193306    1.560304   -0.780431
H     -1.457142   -0.692023    0.836777
H     -2.041775    0.956641    0.555300
H     -2.033192   -0.151801   -0.833203
