11

N      1.947170   -0.291135   -0.174662
C      0.537406   -0.152358   -0.045035
N     -0.352714   -1.072853    0.093709
N     -1.587262   -0.471581    0.180147
H     -2.193695   -0.805081   -0.603416
H     -2.007249   -0.715935    1.113256
C     -1.433445    0.919750    0.086612
C     -0.137507    1.140225   -0.052198
H      0.286638    2.129984   -0.149438
H      2.449932   -1.043431    0.348001
H      2.490728    0.362414   -0.796976
