8

N     -0.953665    0.827998    0.402345
C     -0.763800   -0.438327    0.304445
O      0.324508   -1.120055    0.777474
C      1.521494   -0.858154    0.508491
O      1.871460    0.209346   -0.343197
H      1.350645    1.074950   -0.143356
H     -1.543682   -1.002300   -0.200030
H     -1.806961    1.306543    0.022662
