11

O     -2.042042    0.413455   -0.406974
C     -0.766879   -0.079258   -0.577682
C     -0.043094   -0.356128    0.708329
N      1.282756   -0.868769    0.340502
C      2.142968   -0.068876   -0.176188
O      2.920224    0.851276   -0.467056
H     -0.509113   -1.126389    1.323819
H      0.138334    0.529517    1.320861
H     -0.172081    0.600789   -1.196291
H     -0.845635   -1.043534   -1.127314
H     -2.105437    1.147917    0.257994
