16

C      1.908624   -0.307442    0.026902
C      0.431227   -0.576390   -0.086259
C     -0.518970    0.309214    0.016959
C     -0.277095    1.758543    0.269109
H      0.475682    2.170928   -0.427324
H      0.096773    1.945836    1.304776
H     -1.213730    2.332916    0.106760
C     -1.823071   -0.351324   -0.149257
H     -2.439453    0.110204   -0.955089
H     -2.343679   -0.226034    0.850162
C     -1.509326   -1.789813   -0.386637
N     -0.083814   -1.867482   -0.327852
H      0.465179   -2.752021   -0.448185
H      2.450310   -1.001644   -0.632201
H      2.154953    0.725181   -0.261767
H      2.226390   -0.480672    1.099902
