11

N      2.225692    0.194603    0.268357
H      2.734895   -0.383099    0.975565
H      2.802814    0.719276   -0.427935
C      0.839331    0.070522    0.104311
C     -0.271107   -0.470012   -0.375525
C     -1.597868    0.007965   -0.061205
N     -2.629152   -0.561914   -0.560470
H     -3.599040   -0.217239   -0.334433
H     -1.715167    0.852890    0.600544
H     -0.139810   -1.328484   -1.047329
N      1.349412    1.115491    0.953949
