14

C     -1.253454   -0.966574    0.381620
C     -0.309140    0.155231    0.101034
O      0.669590   -0.284201   -0.754237
C      1.920915   -0.168149   -0.147932
H      2.662637   -0.539271   -0.891797
H      2.125180    0.892088    0.135678
H      1.929165   -0.828300    0.731871
C     -1.016556    1.299714   -0.540693
C     -0.419202    2.485555   -0.469543
H     -1.953880    1.172900   -1.031578
H      0.148234    0.493067    1.063438
H     -1.694518   -1.355988   -0.560167
H     -2.084061   -0.590390    1.043176
H     -0.724910   -1.765683    0.939127
