11

N     -1.809247   -0.478265    0.111731
C     -0.403821   -0.285431    0.044317
N      0.509762   -1.162421    0.055856
N      1.765308   -0.611921   -0.025264
H      2.697788   -1.170660   -0.032051
C      1.692134    0.660739   -0.092603
C      0.269139    1.026367   -0.055309
H      0.015589    1.642332    0.828377
H     -0.026467    1.488220   -1.014414
H     -2.245305   -1.409319   -0.077917
H     -2.464878    0.300357    0.353107
