12

C     -1.717001   -0.036151   -0.262496
C     -0.309192   -0.003754    0.218248
H     -0.252892    0.111106    1.336129
C      0.506180   -1.155801   -0.223156
C      1.545118   -0.693757   -0.893525
H      2.336539   -1.294024   -1.350929
C      1.525370    0.750456   -0.962040
H      2.231993    1.379792   -1.435604
C      0.464247    1.120099   -0.324423
H     -2.024453   -1.096167   -0.422918
H     -2.367359    0.325946    0.581005
H     -1.938551    0.592256   -1.126492
