14

N      2.522934   -0.063297   -0.021853
C      1.235389   -0.192717    0.133523
C      0.316636    0.955192    0.228801
H     -0.034158    1.209387    1.249101
H      0.729219    1.904743   -0.096920
C     -0.869740    0.582729   -0.619899
H     -0.488310    0.226016   -1.560660
H     -1.626718    1.342558   -0.658802
C     -1.424661   -0.629113    0.224998
H     -1.728665   -0.219649    1.182375
H     -2.234409   -1.039740   -0.409250
C     -0.416825   -1.743153    0.259913
O      0.787653   -1.510318    0.200726
H      3.231655   -0.822637   -0.112053
