11

N     -0.991581   -0.919500    0.418081
C     -0.376069    0.316327    0.115058
O      0.908113    0.543717    0.563416
C      1.953009   -0.289367    0.166013
O      1.671744   -1.228378   -0.597879
H      2.951028   -0.076653    0.541392
C     -1.034981    1.212926   -0.580711
H     -2.036585    1.029184   -0.927467
H     -0.548558    2.161540   -0.807283
H     -0.705849   -1.840152    0.017852
H     -1.790272   -0.909644    1.091528
