11

C     -0.978944   -0.897901   -0.056681
C     -0.096773    0.293075    0.130085
C      1.358125    0.115730   -0.107911
H      1.714107   -0.603703    0.669758
H      1.909534    1.064179   -0.108290
H      1.451547   -0.429268   -1.076257
C     -0.617436    1.424823    0.487658
O     -1.172058    2.541030    0.331281
H     -0.390588   -1.822071   -0.158952
H     -1.591226   -1.001560    0.853862
H     -1.586289   -0.684333   -0.964552
