11

O     -0.746359    1.793348    0.190028
C     -1.577931    0.896299    0.180055
N     -1.177989   -0.437160    0.055635
C      0.093530   -0.990438   -0.070047
C      1.391182   -0.384428   -0.112640
C      1.639466    0.893612   -0.035753
H      2.613773    1.344083   -0.068067
H      2.291124   -1.022523   -0.219633
H      0.125716   -2.119866   -0.154852
H     -2.003139   -1.133511    0.059927
H     -2.649374    1.160584    0.271175
