11

N      1.089184    0.954939    0.046656
H      0.962063    1.326394    1.014254
C      0.970786   -0.500511    0.069044
H      1.386617   -0.867419   -0.874075
H      1.510663   -0.838689    0.968299
C     -0.516048   -0.688892    0.206077
H     -0.931429   -1.162257    1.104328
C     -1.161002    0.440083   -0.487589
H     -2.131333    0.859244   -0.187912
C     -0.004100    1.341572   -0.835738
O     -1.175401   -0.864464   -1.023345
