11

C     -1.777237   -0.224184    0.007522
H     -2.745952   -0.472346    0.405086
C     -1.019635    0.909034   -0.399527
H     -1.031347    1.984471   -0.505105
C     -0.462552   -0.483917   -0.470975
C      0.727191   -0.667141    0.470619
H      0.523276   -0.923183    1.531921
N      1.995406   -0.922073   -0.107020
C      1.777627    0.368067    0.275088
H      2.296433    1.314714    0.277335
H     -0.283210   -0.883444   -1.484943
