15

O      2.917780    0.229523   -0.689870
C      1.777989    0.763489   -0.139231
C      0.902582   -0.352181    0.385269
C     -0.519783   -0.084565   -0.059672
C     -1.597652   -1.066352    0.341736
H     -2.580221   -0.568766    0.509312
H     -1.275105   -1.584282    1.253547
H     -1.680333   -1.819457   -0.489049
C     -0.944343    1.338923   -0.231987
H     -0.236711    2.163106   -0.128272
H     -2.006217    1.596425   -0.147507
O     -0.684553    0.458651   -1.333444
H      0.909908   -0.314203    1.494461
H      1.258046   -1.317077   -0.022814
H      3.758612    0.556765   -0.289379
