11

N      0.546403    1.436789   -0.067195
H     -0.358245    1.816173   -0.425881
C      1.068556    0.228463   -0.618774
H      2.168464    0.131166   -0.801591
C      0.441410    0.193163    0.663942
H      0.849773    0.177942    1.666027
C     -0.544888   -0.843326    0.202351
O     -1.856589   -0.530163    0.261037
H     -2.166562    0.039012   -0.496490
H     -0.307455   -1.792968    0.749966
C      0.159134   -0.856251   -1.133393
