11

O     -0.404742    1.667561   -0.140902
C     -0.062854    0.349647   -0.341109
C      1.296534   -0.070577    0.108037
H      1.619696   -1.030998   -0.351511
H      2.048425    0.717034   -0.048358
H      1.254911   -0.237868    1.215975
C     -1.131959   -0.727617   -0.139607
H     -2.027163   -0.343688    0.351245
H     -0.815227   -1.744329    0.120913
O     -0.714470   -0.283674   -1.368948
H     -1.063152    1.704509    0.594265
