21

C      1.929388    0.540719   -0.980347
C      0.522476    0.905342   -0.634507
C     -0.290140   -0.256092   -0.116844
C     -1.654414    0.260632    0.180713
C     -1.860788    1.170662    1.113488
H     -2.858683    1.515326    1.295612
H     -1.060004    1.587886    1.707755
H     -2.495416   -0.118331   -0.380240
C      0.321462   -0.844501    1.136236
H      1.204095   -1.452357    0.851547
H      0.624574   -0.058587    1.867997
H     -0.436360   -1.520350    1.599715
C     -0.354330   -1.342272   -1.147598
H      0.666324   -1.787628   -1.247154
H     -0.691342   -0.922814   -2.137386
H     -1.109619   -2.098549   -0.877868
H      0.025711    1.284206   -1.545204
H      0.542050    1.676364    0.163182
H      2.023163   -0.022921   -1.927986
H      2.456493   -0.011498   -0.181407
H      2.495359    1.494765   -1.117808
