15

C     -1.986337   -0.925258    0.096240
C     -0.994873   -0.099138   -0.677216
H     -1.321545    0.008891   -1.738973
C     -0.804254    1.239432   -0.045399
H     -1.573885    1.974600    0.066061
O      0.516467    1.316260    0.343724
C      1.124564    0.250632    0.045451
C      2.582315    0.079200    0.363830
H      3.175019    0.859925   -0.162277
H      2.956562   -0.892986    0.015023
H      2.703762    0.245723    1.443085
O      0.289020   -0.651786   -0.570965
H     -2.294822   -1.775082   -0.554783
H     -2.886580   -0.314486    0.382741
H     -1.485412   -1.315929    0.993460
