12

C      1.613230   -0.986291    0.211858
C      0.810723    0.049363    0.082795
N      1.156685    1.237771    0.782794
O      0.348300    2.179277    0.942226
C     -0.390822   -0.060588   -0.764986
H     -0.392716   -0.845417   -1.544543
C     -1.694374    0.179658   -0.009039
H     -2.498505   -0.530787   -0.253448
H     -1.649977    0.587412    1.010607
O     -1.191123    1.037335   -0.980257
H      1.374374   -1.899329   -0.307901
H      2.514205   -0.948403    0.829893
