8

C     -1.410333   -0.384029    0.176486
C      0.028276   -0.119024    0.117553
C      1.226113    0.118019    0.082320
O      2.566476    0.397328    0.062330
H      2.879247    1.302749    0.385782
H     -1.628941   -1.461077    0.022142
H     -1.764098   -0.007130    1.158336
H     -1.896741    0.153165   -0.676114
