12

C     -1.490598   -0.498141    0.169742
C     -0.197896    0.202964   -0.071021
N      0.051559    1.273761    0.605183
H     -0.635934    1.655682    1.316283
N      0.696808   -0.340364   -1.032243
C      1.970588   -0.156797   -0.969121
O      2.460636    0.601076    0.083172
H      2.185933    0.270356    1.021278
H      0.375618   -0.916287   -1.840336
H     -2.240938   -0.058442   -0.496932
H     -1.374619   -1.603758   -0.025253
H     -1.801156   -0.430050    1.239248
