9

C     -0.535101    0.991761    1.041043
O     -1.444698    0.305820    0.788660
C     -0.839490   -0.361493   -0.181800
H     -1.251977   -0.217417   -1.210903
H     -0.615833   -1.451738    0.030376
C      0.344109    0.451582    0.066081
C      1.581989   -0.283541    0.537120
H      2.112046   -0.637012   -0.372568
H      0.648955    1.202038   -0.698009
