17

C      1.825325    0.273776    0.333643
C      0.671661   -0.104929   -0.615514
H      1.071122   -0.400170   -1.604332
C     -0.078374   -1.228321    0.052947
H      0.526347   -1.782197    0.801845
H     -0.290908   -1.987188   -0.758310
C     -1.313475   -0.674996    0.585927
H     -2.040506   -1.126490    1.140956
C     -1.118040    0.865989    0.603075
H     -1.098157    1.480834    1.396637
C     -1.684686    0.366319   -0.529568
H     -2.419003    0.279488   -1.214943
C     -0.274618    1.007812   -0.710903
H     -0.163435    1.908963   -1.174678
H      2.126237   -0.596607    0.940601
H      1.532870    1.125387    0.980397
H      2.727642    0.592328   -0.227781
