15

N      2.662110    0.373181   -0.267630
C      1.308845    0.570696    0.118038
O      1.043585    1.602978    0.750871
C      0.290039   -0.410736   -0.227302
N     -1.064529   -0.171642    0.106408
C     -1.971504   -1.262006    0.157664
H     -2.441910   -1.578013   -0.759335
H     -2.188516   -1.759803    1.073371
C     -1.550725    0.996911    0.285874
H     -0.947910    1.859595    0.182374
H     -2.608626    1.145974    0.556712
H      0.655827   -1.405462    0.229946
H      0.405849   -0.556331   -1.372657
H      3.028972   -0.542604   -0.641131
H      3.378495    1.137263   -0.193205
