13

C     -1.549746   -0.794084   -0.090989
C     -0.631866    0.269330    0.401251
O     -0.724703    0.663917    1.537687
C      0.384258    0.824657   -0.522959
O      1.111569    1.780666    0.134934
H      1.449725    1.444173    0.990332
C      1.266210   -0.324738   -0.964138
O      1.627851   -1.085948    0.122272
H      2.541751   -0.807626    0.423376
H     -0.156884    1.261378   -1.394677
H     -1.133167   -1.794363    0.139992
H     -2.537053   -0.732477    0.418512
H     -1.647946   -0.704884   -1.195592
