11

C     -0.697221    0.380836   -0.194546
C     -1.742592   -0.210749    0.686136
O     -2.716361    0.457243    0.932998
H     -1.587805   -1.216341    1.070009
C      0.435686   -0.547779   -0.410904
N      1.581530   -0.101924   -0.707706
C      2.786418    0.254990   -0.518232
H      3.144824    0.586252    0.467472
H      0.280692   -1.609214   -0.312078
H     -1.145488    0.670774   -1.180759
H     -0.339681    1.335912    0.263440
