17

O      2.897103    0.223299    0.684113
C      1.624930    0.542412    0.178038
C      0.600570   -0.342950    0.784538
H      0.894563   -0.727131    1.806539
C     -0.826431   -0.284640    0.482398
C     -1.426915    0.785415   -0.395127
O     -2.804755    0.621141   -0.528567
H     -3.275251    1.042319    0.251320
H     -1.001205    0.692739   -1.415926
H     -1.199210    1.785750    0.037987
H     -1.534885   -0.652352    1.267720
C     -0.009575   -1.387512   -0.154811
H      0.211323   -1.276102   -1.244599
H     -0.078362   -2.411473    0.225302
H      1.428839    1.624956    0.314400
H      1.667296    0.375088   -0.916165
H      2.831966   -0.610957    1.219582
