10

O      2.222968   -0.527122    0.308139
C      0.864897   -0.326970    0.176636
C      0.173303    0.866172    0.036029
H      0.600075    1.858216    0.006166
C     -1.180545    0.606300   -0.064076
H     -2.007526    1.299855   -0.182732
N     -1.288384   -0.739396    0.017359
H     -2.197247   -1.255474   -0.026781
N     -0.083002   -1.285182    0.158931
H      2.895462   -0.496398   -0.429671
