12

O     -2.214998    0.541039    0.077058
C     -1.278677   -0.376612   -0.430697
C      0.078675    0.164353   -0.202269
O      0.411612    1.376906   -0.769896
H      1.222935    1.914817   -0.592408
C      0.925983   -0.525477    0.533766
C      2.278817    0.023365    0.755840
H      2.990526   -0.386165   -0.000413
H      0.627985   -1.492456    0.973540
H     -1.495114   -0.504230   -1.524390
H     -1.459272   -1.321859    0.105816
H     -2.088473    0.586319    1.074053
