11

N     -1.057913   -0.708807   -0.835765
C      0.029482   -0.040446   -0.181999
C      1.255887   -0.840021    0.002052
O      2.231909   -0.357754    0.546997
H      1.319579   -1.878737   -0.343612
O      0.311371    1.267045   -0.673124
C     -0.197734    1.165223    0.644868
H     -1.211616    1.549662    0.810796
H      0.519701    1.385587    1.472851
H     -1.415728   -1.506946   -0.299671
H     -1.784939   -0.034806   -1.143393
