8

O     -1.665273   -1.740679    1.156695
C     -1.692411   -0.463163    0.650064
C     -1.058645   -0.102120   -0.445211
O     -0.139331    0.295780   -1.193706
C      1.153671    0.438274   -0.778235
C      2.323626    0.572088   -0.424078
H      3.329517    0.704243   -0.121465
H     -2.251154    0.295577    1.155937
