16

C      0.253278   -1.147080    0.121262
H      0.599629   -1.614613    1.070293
H      0.286285   -1.892665   -0.713196
C     -1.154242   -0.666782    0.329044
H     -1.824297   -1.258405    0.988947
N     -1.840990   -0.108481   -0.820753
H     -1.384884   -0.209527   -1.750917
C     -1.225868    0.763663    0.146404
H     -1.938213    1.425113    0.657825
C      0.174428    1.267110   -0.054540
H      0.438925    1.843880    0.869129
H      0.244284    1.920169   -0.946570
C      1.078652    0.072107   -0.150156
O      2.118312    0.182416    0.781156
H      2.710656   -0.595183    0.654806
H      1.464044    0.018278   -1.182734
