14

O      1.311591   -0.967486    1.181707
C      1.331402   -0.116244    0.064906
C     -0.023625    0.411927   -0.213565
C     -1.141171   -0.491306   -0.517834
O     -1.405068   -1.385466    0.510899
H     -1.885864   -0.874632    1.230993
H     -0.943898   -1.109252   -1.443509
H     -2.093271    0.035637   -0.733445
C     -0.190507    1.707808   -0.179329
H      0.595301    2.413613    0.038514
H     -1.171601    2.104234   -0.380181
H      2.054868    0.685933    0.315738
H      1.659489   -0.679973   -0.851304
H      1.902354   -1.734793    0.976409
