13

C      1.044552    0.927863    0.026127
H      1.357249    1.141979    1.119768
H      1.776398    1.386454   -0.623883
C      0.858798   -0.536069   -0.187011
H      1.660237   -1.169550    0.163508
H      0.745839   -0.633071   -1.315835
C     -0.518106   -0.869791    0.303930
H     -0.861864   -1.822048   -0.140371
H     -0.544108   -0.935050    1.438702
C     -1.313118    0.355349   -0.128728
H     -1.740499    0.135920   -1.123636
H     -2.125429    0.528334    0.593824
C     -0.339949    1.489682   -0.126395
