13

C      1.887720   -0.665308    1.152534
O      0.661990    0.031559    1.287370
C     -0.073971    0.393904    0.173455
O      0.266501    1.486184   -0.626183
H     -0.249771    2.356909   -0.476792
C     -1.152455   -0.295632   -0.185031
C     -1.927584    0.074409   -1.346140
O     -2.934291   -0.575805   -1.673921
H     -1.631899    0.915839   -1.928736
H     -1.404270   -1.147397    0.452216
H      2.267361   -0.830284    2.196841
H      2.637437   -0.094286    0.557874
H      1.653232   -1.650092    0.700999
