16

C     -2.356776    0.649672    0.274007
C     -1.010583    0.077381    0.015275
C      0.146433    0.635058    0.332089
H      0.313748    1.593477    0.828849
C      1.243996   -0.233722   -0.085488
C      2.697697    0.039178    0.092810
H      2.925310    1.126981    0.047977
H      3.314477   -0.434557   -0.704337
H      3.080064   -0.345563    1.055837
C      0.667620   -1.286884   -0.641651
N     -0.748984   -1.161449   -0.614320
H     -1.178741   -1.974436   -0.118830
H     -1.062361   -1.103999   -1.609533
H     -3.140984   -0.040357   -0.090654
H     -2.468595    1.672511   -0.169489
H     -2.422320    0.786707    1.387458
