9

O      2.700887    0.419848   -0.728147
C      1.622040   -0.074443   -0.317814
C      0.552087   -0.441991    0.309069
C     -0.767726   -0.175280   -0.302510
O     -1.121807    1.139794    0.067438
H     -1.254401    1.212143    1.027266
H     -1.531019   -0.888857    0.084417
H     -0.758176   -0.253368   -1.402851
H      0.558115   -0.937847    1.263132
