15

C     -1.697072   -0.475722   -0.115085
C     -0.244312   -0.106830   -0.064304
C      0.230184    1.256445   -0.192641
O     -0.260519    2.112375    0.800044
H     -1.142700    2.427431    0.465743
H      1.317640    1.326857   -0.196309
H     -0.079395    1.652319   -1.206381
C      0.585918   -1.124469    0.104890
C      2.016526   -1.025403    0.185379
O      2.700053   -2.057900    0.345916
H      2.524040   -0.099700    0.113379
H      0.164610   -2.138018    0.193342
H     -1.880361   -1.316362    0.584859
H     -1.887624   -0.825774   -1.150506
H     -2.346990    0.394751    0.131673
