10

C      1.159324   -0.186835    0.083407
C     -0.270298    0.187165    0.150250
O     -0.604759    1.389895    0.709506
H     -0.512694    2.282202    0.244843
C     -1.180199   -0.652756   -0.332651
H     -0.887484   -1.597053   -0.769295
H     -2.238704   -0.435594   -0.312258
H      1.224609   -1.302526    0.093917
H      1.612909    0.156149   -0.853564
H      1.697295    0.159352    0.985844
