14

N      2.687504   -1.565650    0.194097
C      1.924198   -0.756064   -0.172811
C      0.963004    0.226941   -0.622855
H      1.094338    0.602697   -1.678483
C     -0.418981    0.197495   -0.135115
C     -0.872330   -0.880722    0.819527
O     -2.214655   -0.674625    1.118571
H     -2.443004    0.306578    1.141759
H     -0.804521   -1.844476    0.262039
H     -0.303474   -0.926107    1.747228
H     -1.241088    0.539320   -0.827431
C      0.488132    1.295002    0.382322
H      0.358255    2.321585    0.028314
H      0.782622    1.158025    1.444151
