14

C     -2.116034    0.323883    0.454681
C     -0.795932   -0.262168    0.045648
H     -0.890637   -1.088311   -0.710421
C      0.438248    0.047012    0.630176
C      1.680010   -0.710607    0.233129
O      2.639464    0.257166   -0.121437
H      2.396862    1.151836    0.228647
H      2.080828   -1.335453    1.032525
H      1.469887   -1.304789   -0.700553
H      0.519965    0.665611    1.537213
O      0.017042    0.845494   -0.554105
H     -2.892952   -0.487516    0.524322
H     -2.478974    1.051813   -0.327224
H     -2.067777    0.846030    1.428713
