15

C      2.077503   -0.608842   -0.230110
C      0.582907   -0.401623   -0.144457
C      0.001262    0.670133    0.360886
O      0.739853    1.755768    0.884363
H      0.989154    2.550079    0.276403
C     -1.474507    0.550455    0.290988
H     -1.833849    0.481232    1.343598
H     -1.947278    1.388480   -0.255058
C     -1.682681   -0.782356   -0.345571
H     -2.176371   -1.521767    0.350306
H     -2.272294   -0.700176   -1.281196
O     -0.379289   -1.271377   -0.567080
H      2.360322   -1.553338    0.317581
H      2.405551   -0.758466   -1.268178
H      2.609716    0.201798    0.267523
