14

O      2.410850   -0.419604    0.904953
C      1.286493   -0.518859    0.086098
H      1.510654   -0.516584   -1.004146
C      0.332795   -1.647610    0.501331
C     -0.689327   -0.616423    0.889964
H     -1.063784   -0.603826    1.902495
C     -1.555212   -0.105687   -0.221758
H     -2.473836    0.350369    0.162227
H     -1.744181   -0.873281   -0.967070
N     -0.587958    0.915703   -0.568937
H     -0.945873    1.883238   -0.528190
C      0.249035    0.464608    0.486038
H      0.498353    1.179069    1.282260
H      2.771991    0.508889    0.776047
