12

N      3.111663   -0.284112   -0.574200
C      2.154192    0.383574   -0.727835
C      1.001390    1.206274   -0.934046
N     -0.129113    0.782633   -0.500578
C     -0.169798   -0.498536    0.169047
C     -1.195659   -0.360541    1.257104
N     -2.374165   -0.791841    1.174811
H     -2.999140   -0.636418    1.998819
H     -0.859375    0.152964    2.162430
H      0.823617   -0.783814    0.599749
H     -0.459253   -1.314033   -0.541216
H      1.095641    2.143850   -1.436314
