10

O      2.244485   -0.046406   -0.240727
C      0.967655    0.414318   -0.380645
C     -0.183000   -0.294172    0.227764
H      0.060586   -1.210194    0.795780
C     -1.364952    0.460841    0.697704
H     -1.396482    1.551962    0.704174
N     -1.389738   -0.255810   -0.580201
H     -1.995594   -1.090557   -0.575582
H      0.835900    1.322354   -0.957541
H      2.221141   -0.852334    0.309275
