13

C      1.439954   -0.086932    0.704839
H      1.191398   -0.864570    1.455996
H      2.051304    0.738664    1.094043
N      1.474687   -0.454599   -0.678549
H      2.206731   -0.077249   -1.298963
C      0.369707    0.350546   -0.271706
C     -0.978279   -0.240059   -0.027823
C     -1.967771    0.802185    0.454845
H     -1.465055    1.781647    0.402326
O     -1.510522   -0.864949   -1.153786
H     -2.223281   -1.473850   -0.832252
H     -0.940105   -1.016626    0.763084
H      0.351232    1.405791   -0.612056
