13

C     -1.769699   -0.405587   -0.716217
N     -0.620788    0.278948   -0.148599
H     -0.834066    1.020148    0.546817
C      0.407325    0.577731   -1.168398
H      0.894614    1.553064   -1.056957
C      0.645825   -0.417804   -0.083980
C      1.558135   -0.059916    0.995818
C      2.315702    0.215933    1.892088
H      2.979275    0.470263    2.703754
H      0.595734   -1.497563   -0.283517
H     -1.412690   -1.072201   -1.517161
H     -2.454390    0.341050   -1.212245
H     -2.304977   -1.004066    0.048598
