9

C      1.036553   -0.550326    0.013275
H      1.988600   -1.045741    0.028000
C     -0.112689   -1.202294   -0.042342
C     -1.219841   -0.209408   -0.046852
H     -1.839220   -0.328134    0.867530
H     -1.813911   -0.284429   -0.983245
C     -0.454105    1.041392    0.014951
C      0.840626    0.893530    0.050899
H      1.573988    1.685410    0.097783
