11

C     -0.882225    2.527146    0.246674
C     -0.473829    1.380661    0.081753
C     -0.010472    0.052127   -0.086467
C     -0.032800   -1.017088    0.885796
N     -1.063617   -1.745066    1.118825
H     -0.975161   -2.491008    1.841307
H      0.918079   -1.167779    1.425219
C      0.497078   -0.251505   -1.241095
N      1.100449   -0.493602   -2.356654
H      2.140223   -0.303298   -2.315102
H     -1.217724    3.509412    0.399744
