16

C      1.503275    0.449828   -0.324335
C      2.706813   -0.451420   -0.281902
H      2.405441   -1.434940    0.127323
H      3.045150   -0.643082   -1.337184
H      3.533879   -0.057502    0.322595
O      0.662952    0.260786    0.707951
C     -0.530984    0.161171    0.673363
C     -1.388601    0.220766   -0.516641
C     -2.803198   -0.168483   -0.067137
H     -3.280721    0.737866    0.381871
H     -3.410726   -0.511339   -0.927516
H     -2.657657   -0.981264    0.675308
H     -1.096920   -0.526148   -1.264943
H     -1.407709    1.204107   -1.008544
H      0.937638    0.213841   -1.263106
H      1.781370    1.525813   -0.354227
