13

C      2.325074   -0.435888    0.353298
N      1.915072    0.951256    0.598018
C      0.673654    1.256143    0.590748
N     -0.600473    1.330095    0.749045
C     -1.394731    0.830688   -0.307289
O     -1.624036    1.564168   -1.289628
C     -1.977882   -0.533616   -0.312888
H     -2.065091   -0.953155    0.714626
H     -3.034288   -0.420633   -0.680426
H     -1.428870   -1.231473   -0.984012
H      1.818904   -1.090749    1.104354
H      3.411354   -0.480346    0.383600
H      1.981314   -0.786489   -0.634959
