14

C      2.123873   -0.522968    0.292832
C      0.996814    0.215726    0.248248
C      0.242438    1.340805   -0.205267
H      0.160566    1.636251   -1.204433
H      0.251090    2.295672    0.501566
C     -0.454681    0.235216    0.623565
C     -1.693681    0.066600   -0.036291
H     -2.541516    0.248236    0.678957
H     -2.033825    0.356983   -1.060984
C     -0.880567   -1.064732    0.102974
H     -0.982906   -1.832780    0.907914
H     -0.565723   -1.582039   -0.828391
H      2.445927   -1.380573    0.673336
H      2.932192   -0.012397   -0.434976
