13

O      2.538232    0.694825    0.526891
C      1.964836    0.119618   -0.361908
C      0.541591    0.412768   -0.635977
C     -0.245053   -0.283658    0.475239
C     -1.726702   -0.086269    0.351046
H     -2.240093   -1.048979    0.575820
H     -2.040209    0.631184    1.143658
H     -1.950994    0.300007   -0.664004
H     -0.038241   -1.381564    0.301266
H      0.130799    0.024953    1.465122
H      0.211999    0.001169   -1.594235
H      0.382096    1.508324   -0.619638
H      2.471741   -0.607892   -0.963280
