11

O      2.253683   -0.137548    0.991316
C      0.881376   -0.398858    1.037823
C      0.286850    0.106913   -0.257276
C     -1.187067    0.396933   -0.134731
O     -1.934060   -0.695138    0.215909
H     -1.452088   -1.535220    0.291420
H     -1.524994    0.768734   -1.125039
H     -1.295317    1.224374    0.592315
H      0.867574    1.004716   -0.547199
H      0.510100   -0.668863   -1.026866
H      2.593942   -0.066043    0.058156
