13

C     -2.060821   -0.330121   -0.029556
C     -0.599138    0.029182    0.044508
N      0.347313   -0.832843    0.111515
C      1.603245   -0.140825    0.168482
O      2.441793   -0.522652   -0.875662
H      2.876939   -1.371201   -0.575192
H      2.051943   -0.391085    1.159560
C      1.234716    1.271956    0.123646
N     -0.046237    1.336800    0.052132
H     -0.630233    2.225359    0.004579
H     -2.253505   -1.323756    0.397272
H     -2.333994   -0.373256   -1.103648
H     -2.632020    0.422444    0.522365
