11

C     -0.472892    0.561256   -0.096494
C      0.562183   -0.504283    0.101138
O      0.232809   -1.695384   -0.112843
C      1.905146   -0.217634    0.522449
O      2.225494    0.966395    0.733121
H      2.613573   -0.996077    0.653138
C     -1.764107   -0.018585   -0.519069
O     -2.514732   -0.533273    0.278588
H     -2.054491    0.011291   -1.554913
H     -0.152384    1.289503   -0.871919
H     -0.580599    1.136790    0.866804
