11

C      1.758913    0.700590    0.971079
C      1.470157   -0.344295   -0.008021
C      0.265070   -0.498433   -0.511807
C     -0.893986    0.345282   -0.151579
C     -1.954433   -0.472271    0.420738
N     -2.807698   -1.108334    0.882623
H     -1.274029    0.843478   -1.083100
H     -0.633518    1.134677    0.586039
H      0.107768   -1.283531   -1.229038
H      2.258893   -1.002065   -0.324385
H      1.702861    1.684901    0.447451
