16

C     -1.995995    0.523618   -0.890187
C     -1.307824   -0.162168    0.234415
H     -1.988968   -0.457716    1.074593
N     -0.457287   -1.304818   -0.276384
H     -0.629563   -2.212071    0.169774
C      0.102586   -0.197467    0.458843
C      0.983775    0.768168   -0.260443
C      2.263553    0.552907   -0.478892
O      2.817172   -0.623200   -0.020277
H      2.891507   -1.391496   -0.647189
H      2.853237    1.302880   -1.013235
H      0.557406    1.692135   -0.622913
H      0.482831   -0.468792    1.461089
H     -2.596388    1.380864   -0.580904
H     -1.294096    0.826893   -1.691169
H     -2.681946   -0.229736   -1.374244
