8

O      1.817263    0.429446    0.065850
C      0.485960    0.138785    0.209479
C     -0.827638    0.704509    0.226318
H     -1.369140    1.616750    0.133796
C     -0.679880   -0.755701    0.429008
H     -0.924276   -1.446208   -0.393652
H     -0.833839   -1.166678    1.449590
H      2.331550    0.479097   -0.791555
