12

N     -0.651300    2.727671   -0.630708
C     -0.361917    1.728939   -0.155598
C      0.027019    0.461139    0.446991
C     -1.108725   -0.535102    0.462106
H     -2.060334   -0.017841    0.234525
H     -1.241255   -1.019590    1.453053
H     -0.941048   -1.369090   -0.268789
N      1.161105   -0.054112   -0.332892
C      1.589870   -1.329335    0.233293
H      2.291593   -1.127828    1.069679
H      0.910471   -0.145612   -1.335915
H      0.384521    0.680761    1.472025
