15

C     -1.609575    0.589317    0.238742
H     -2.605989    0.364049   -0.243139
H     -1.652188    1.626147    0.653818
N     -0.623110    0.419750   -0.763276
H     -0.142991    1.290243   -1.062567
C      0.191772   -0.659056   -0.397516
C      1.674213   -0.300903   -0.334598
O      1.893004    0.695451    0.586708
H      2.550883    1.359062    0.243021
H      2.187107   -1.241244   -0.001306
H      2.012893   -0.042233   -1.334025
H      0.105100   -1.517903   -1.143686
C     -0.303274   -1.194336    0.894062
N     -1.424723   -0.388032    1.253150
H     -2.253122   -1.000313    1.410613
