16

C     -1.925011    0.785595    0.510085
C     -1.361390   -0.540498    0.060811
H     -1.834750   -1.477488    0.460554
C     -0.619843   -0.659622   -1.206259
H     -0.650375    0.258961   -1.862729
H     -0.606511   -1.635530   -1.711196
N      0.139814   -0.558606    0.040612
C      1.301620   -0.502273    0.827553
C      2.314105    0.246779    0.426439
O      2.172802    0.944632   -0.763559
H      2.739180    0.623585   -1.561965
H      3.217998    0.301469    1.021820
H      1.402723   -1.061405    1.771833
H     -1.996229    1.520456   -0.300388
H     -1.342910    1.166715    1.392956
H     -2.951224    0.587229    0.893432
