10

N      2.022767   -0.555730   -0.152152
C      0.851265   -0.101628   -0.051226
C     -0.446495   -0.616812   -0.461578
H     -0.728054   -1.677750   -0.463291
C     -1.355521    0.427842    0.147784
H     -2.150995    0.053864    0.823823
C     -0.442044    1.438193    0.666307
O      0.681003    1.177015    0.572005
O     -1.362750    0.135820   -1.173308
H      2.930823   -0.280813    0.091636
