14

O      0.544351   -0.721346    0.127965
C      1.853370   -0.568674   -0.207223
C      2.702858    0.002485    0.616920
H      2.412772    0.379744    1.598282
H      3.734964    0.129657    0.367675
H      2.221679   -0.911963   -1.153795
C     -0.380838    0.323077    0.329334
C     -1.706995   -0.201696    0.680278
C     -2.740307    0.069352   -0.088971
H     -2.659482    0.669763   -0.982057
H     -3.732699   -0.306105    0.147207
H     -1.817228   -0.799740    1.559674
H     -0.438400    1.025675   -0.503036
H      0.005955    0.909771    1.209061
