11

O      2.415302   -0.133459   -0.399702
C      1.030982   -0.076944   -0.199898
N      0.295064   -1.128707   -0.153762
C     -1.093016   -0.769578    0.063387
H     -1.704467   -1.022895   -0.843538
H     -1.506778   -1.231386    0.979389
C     -1.092489    0.714254    0.145717
H     -1.977761    1.312519    0.304704
C      0.171817    1.064625   -0.014440
H      0.490057    2.099780   -0.002162
H      2.971289   -0.828210    0.120305
