10

O     -2.304472    0.877905    0.964604
N     -2.237458    0.452312   -0.317982
N     -0.945734    0.596793   -0.843553
C      0.085412   -0.204989   -0.314816
C      1.116503    0.356966    0.306281
N      2.143102   -0.373282    0.837285
C      3.415518   -1.312754    1.492529
H      1.166247    1.430952    0.407167
H      0.084312   -1.279451   -0.388241
H     -2.523429   -0.544451   -0.417454
