11

C     -1.292104   -0.431764   -0.197530
C     -0.325842    0.637655    0.244889
H     -0.731510    1.652435    0.400625
O      0.518946    0.230683    1.287830
C      1.101476    0.495421    0.036188
O      1.641631   -0.545890   -0.687565
H      1.911924   -1.320540   -0.140769
H      1.725790    1.426928    0.069517
H     -0.883449   -0.892586   -1.129306
H     -2.277575   -0.006977   -0.436131
H     -1.389288   -1.245364    0.552252
