14

C     -1.526961   -0.616009    0.244843
C     -0.353181    0.041574   -0.416071
H     -0.590504    0.053003   -1.521047
C     -0.076447    1.394536    0.072562
H     -0.770516    2.258966    0.131771
C      1.178769    1.441637    0.451399
H      1.636105    2.365698    0.863081
O      1.810456    0.224376    0.267590
C      0.907523   -0.671585   -0.265050
N      1.201723   -1.913654   -0.554382
H      2.171726   -2.235452   -0.369711
H     -1.613080   -0.439763    1.315801
H     -1.527112   -1.694862    0.041716
H     -2.448502   -0.208466   -0.262502
