17

C      1.940781   -0.058242    0.323613
C      0.753266    0.717964   -0.192275
H      0.677141    1.751178    0.247823
O      0.793058    0.786158   -1.527480
C     -0.221393    0.226084   -1.744599
C     -0.513446    0.015062   -0.359868
C     -0.621432   -1.404942    0.134449
H     -1.087136   -1.385832    1.128659
H     -1.313337   -1.946994   -0.548684
H      0.336878   -1.945642    0.128728
C     -1.679348    0.824482    0.176456
H     -1.964403    0.482677    1.178883
H     -2.518538    0.699869   -0.543783
H     -1.392072    1.886592    0.220806
H      2.665102    0.691500    0.711199
H      2.465285   -0.600420   -0.487198
H      1.679594   -0.739493    1.153270
