8

O      1.927597    0.498713   -0.705856
N      1.635871   -0.233535    0.428656
C      0.608660   -0.980363    0.366544
N     -0.551286   -1.440593    0.594223
N     -1.725240   -0.745944    0.367055
N     -1.769370    0.523695    0.572002
H     -2.648646    1.057304    0.404143
H      2.522412    1.320722   -0.697933
