14

C      2.317754    0.372467    0.612969
C      0.901604    0.845983    0.410647
C     -0.026905   -0.283021    0.004641
H      0.527574   -1.254874   -0.039062
C     -1.256987   -0.293607    0.817050
H     -1.352240    0.473534    1.617497
H     -1.557203   -1.294256    1.243105
C     -1.903112    0.065287   -0.456344
H     -2.649557   -0.669145   -0.854281
H     -2.317302    1.111092   -0.419035
O     -0.713442    0.051250   -1.128867
H      2.826545    0.436253   -0.365802
H      2.813329    1.103136    1.287067
H      2.389942   -0.664099    0.971729
