14

C     -1.051757   -1.166135    0.393638
H     -0.952741   -1.652942   -0.607015
H     -1.040598   -1.981854    1.149033
C     -2.208943   -0.251491    0.398561
C     -1.303733    0.897916    0.617836
H     -1.459795    1.474356    1.561613
H     -1.230714    1.603934   -0.272667
C     -0.137822   -0.031740    0.611987
C      0.893766    0.214378   -0.407324
C      2.165311    0.177951   -0.093874
H      2.969548    0.354389   -0.817212
H      2.446718   -0.039179    0.941385
H      0.587625    0.424107   -1.411209
H      0.323135   -0.023690    1.636563
