14

C     -0.640658   -1.126561    0.963690
C     -0.318308    0.289148    0.496884
C      0.455747    0.963644    1.527705
C      1.092730    1.500581    2.386422
H      1.645316    1.975397    3.162078
C      0.402537    0.286113   -0.784040
O      1.560256    0.807064   -0.825506
N     -0.100705   -0.256665   -1.979343
H     -0.660961   -1.135325   -1.970743
H      0.092390    0.233912   -2.894842
H     -1.272399    0.863091    0.388687
H     -0.804428   -1.169286    2.052302
H     -1.616376   -1.408597    0.471965
H      0.164861   -1.822518    0.706053
