19

C     -0.876290    1.934542    0.257182
C     -0.359911    0.507385    0.375529
C     -1.503009   -0.371998   -0.050799
C     -1.985890   -1.325036    0.699840
H     -2.810376   -1.921852    0.332390
H     -1.572977   -1.526166    1.684030
H     -1.911068   -0.165597   -1.035713
C      0.804794    0.375712   -0.583838
C      1.401070   -0.978620   -0.563628
C      2.672864   -1.161584   -0.235146
H      3.335351   -0.340361    0.032632
H      3.124992   -2.144233   -0.215160
H      0.820141   -1.858552   -0.815257
H      0.432554    0.680994   -1.578587
H      1.580601    1.104833   -0.289174
H     -0.080417    0.349379    1.425296
H     -1.297562    2.035983   -0.774554
H     -0.062489    2.672136    0.378063
H     -1.712379    2.133034    0.956893
