15

C     -2.427732   -1.258297   -0.824528
O     -1.776229   -1.067984    0.397433
C     -0.733066   -0.453395    0.390235
C      0.521753    0.289444    0.380946
C      1.382365    0.354613    1.396415
C      2.569498    1.274777    0.900718
C      3.525267    2.006460    0.482454
H      4.251646    2.584094    0.162292
H      1.402193    0.005959    2.285146
H      0.752775    0.827287   -0.526722
H     -0.347421   -1.093729   -0.772812
H     -1.199580    0.516615   -0.485634
H     -2.637669   -0.271515   -1.230143
H     -1.874301   -1.903673   -1.505397
H     -3.409499   -1.810656   -0.597304
