8

O     -1.466715   -0.741228    0.088042
C     -0.820041    0.479863   -0.027050
C      0.489011    0.508266    0.112554
O      1.159781   -0.660390    0.364510
H      2.116024   -0.855234    0.038198
H      1.016624    1.473168    0.023440
H     -1.432333    1.345111   -0.226301
H     -1.062352   -1.549556   -0.373393
