12

C     -0.633775   -0.956241   -0.023984
H     -1.091830   -1.666087   -0.746612
H     -0.956940   -1.195718    0.974101
C      0.841349   -0.933618   -0.111720
H      1.418388   -1.780274   -0.468751
C      1.244388    0.268900    0.287566
H      2.329724    0.462681    0.449600
C      0.186477    1.219095    0.236616
H     -0.087718    1.935268    0.992474
O     -0.215036    1.323333   -1.092285
C     -1.009196    0.481135   -0.348937
H     -2.025831    0.841527   -0.148068
