17

C     -1.896031   -0.864032    0.439082
N     -0.808081   -0.916723   -0.487121
C      0.428079   -0.336078   -0.105968
O      1.660236   -0.946175   -0.435309
C      2.786376   -0.075097   -0.436435
H      3.665097   -0.696220   -0.710115
H      2.942433    0.236786    0.623681
H      2.646823    0.793179   -1.107507
N      0.395076    0.764870    0.548984
C     -0.869763    1.360680    0.865699
H     -0.485381    2.403400    1.175427
H     -1.384865    1.114669    1.765932
H     -1.442783    1.695521   -0.025198
H     -0.839499   -1.371790   -1.455303
H     -2.705706   -0.174437    0.284725
H     -1.638381   -1.153452    1.483173
H     -2.453632   -1.835098    0.172994
