9

C      2.029163    0.222467   -0.032442
C      0.745323   -0.118688    0.020870
C     -0.397932    0.776276   -0.127776
H     -0.323217    1.841072   -0.301835
N     -1.470177    0.049232   -0.010922
H     -2.445324    0.433217   -0.075643
N     -1.086899   -1.264624    0.204782
N      0.163112   -1.401738    0.229650
H      2.785952   -0.537214    0.093315
