14

C     -1.009329   -0.967897   -0.841300
N     -0.371472   -0.207152    0.235689
C     -0.564276    1.182398    0.011708
H     -0.768521    1.376839   -1.077009
H     -1.517420    1.507370    0.523889
H      0.221494    1.837799    0.409304
C      0.982938   -0.624066    0.400560
C      1.960064    0.302272   -0.114342
N      2.738878    1.044692   -0.516063
H      1.077245   -1.648276   -0.063409
H      1.235772   -0.799660    1.483930
H     -0.889032   -0.483835    1.123498
H     -1.972565   -0.514976   -1.121452
H     -1.123777   -2.005509   -0.455004
