15

C      1.206344   -0.074421   -1.026839
H      1.050991   -1.027809   -1.579502
H      1.632719    0.717509   -1.678372
C      1.924028   -0.320729    0.253151
H      2.825314    0.307671    0.385662
H      2.198899   -1.389484    0.438653
C      0.731712    0.127703    1.010909
O      0.545156    0.212680    2.224473
C      0.007567    0.376976   -0.233917
C     -1.166538   -0.508559   -0.522613
C     -2.429629   -0.051904    0.159980
H     -3.274859   -0.597281   -0.309368
H     -2.453817   -0.272639    1.238309
H     -2.626452    1.035583    0.024323
H     -0.171435    1.464703   -0.384848
