11

C     -1.698805   -0.535164    0.094902
C     -0.743024    0.569649   -0.163308
O     -1.163320    1.744174   -0.029259
N      0.582016    0.224711   -0.544436
C      1.596342    0.444206    0.199799
O      2.843176    0.048941   -0.310286
H      2.943904   -0.859776   -0.788364
H      1.464534    0.905021    1.151485
H     -1.499322   -1.390837   -0.605353
H     -2.738035   -0.218244   -0.109059
H     -1.587466   -0.932682    1.103879
