12

N     -1.780296   -0.143260    0.019770
C     -0.425786   -0.051341    0.498002
C      0.672482   -0.859639   -0.040521
H      0.552010   -1.608964   -0.834888
N      1.783869    0.054079   -0.100502
H      2.491607   -0.182205   -0.816533
C      1.175801    1.346106   -0.262253
N      0.083481    1.281165    0.707912
H     -0.643505    2.015131    0.501579
O      0.140500   -1.084456    1.219935
H     -2.141756   -1.112390    0.010702
H     -1.908407    0.345774   -0.903202
