11

C     -0.067486   -1.719435   -0.074150
H     -0.363021   -2.741397   -0.127775
C     -1.034957   -0.842309   -0.295536
C     -0.743770    0.485582   -0.243569
N     -1.917293    1.422666   -0.296164
H     -2.480744    1.361528    0.688642
C      0.485546    0.923888   -0.112852
H      0.650727    2.037722   -0.099894
C      1.546858    0.024223    0.145009
H      2.635278    0.274088    0.261908
N      1.288861   -1.226556    0.154381
