13

C      2.060496    0.199653    0.308170
C      1.133729   -0.362167   -0.440225
C     -0.189453    0.285582   -0.523781
H     -0.174566    1.253140   -1.097579
C     -1.342742   -0.545525   -0.735829
H     -1.713433   -1.186440   -1.556213
C     -1.869938   -0.298401    0.429172
H     -2.787812   -0.599813    0.985003
N     -0.792612    0.540341    0.752795
H     -0.556251    1.117525    1.615049
H      1.313749   -1.270222   -0.985873
H      3.045267   -0.247847    0.393845
H      1.873567    1.114175    0.855468
