15

O     -2.217956   -0.283043   -0.814927
C     -1.175459   -0.209348    0.075643
H     -1.433464   -0.566965    1.110378
C     -0.429214    1.103438    0.127274
H     -0.393748    1.588979    1.104680
H     -0.799688    1.855381   -0.628413
C      0.811487    0.451875   -0.382210
H      1.249149    0.811825   -1.306005
C      1.727168   -0.157450    0.639591
H      2.732552   -0.350091    0.161577
H      1.758267    0.307352    1.627755
C      0.959268   -1.485584    0.577032
C      0.065336   -0.860170   -0.433691
H      0.041777   -1.291042   -1.442249
H     -2.895473   -0.915157   -0.416433
