11

N     -0.238763   -0.991727   -0.660602
H     -0.491734   -1.602308    0.134891
C      0.682308    0.115712   -0.448705
C      1.332361    0.085912    0.872348
O      2.523652    0.253867    0.956768
H      0.756924   -0.083827    1.761800
H      1.362301    0.297439   -1.300990
C     -0.728503    0.384862   -0.640348
C     -1.649830    0.761890    0.500959
H     -2.496597    0.033956    0.556045
H     -1.052120    0.744224   -1.636337
