11

C     -1.697783   -0.490325   -0.547613
C     -0.874854    0.704907   -0.191885
H     -1.150833    1.674223   -0.245269
C     -0.154931   -0.073934    0.777666
H     -0.266772   -0.201722    1.775486
C      1.069395    0.329644    0.051078
H      1.842088   -0.461067    0.101280
H      1.397681    1.363786    0.146802
N      0.151651    0.135377   -1.097593
C     -0.332130   -1.024528   -0.311429
H      0.016488   -1.956361   -0.458524
