15

C      1.360037   -0.093843   -0.931342
H      0.800932   -0.656779   -1.681102
H      2.088968    0.619562   -1.359909
C      1.531468   -0.664749    0.414857
H      2.521848   -0.490989    0.888652
H      1.129498   -1.668243    0.630054
C      0.612219    0.481684    0.272928
N     -0.823614    0.285184    0.236525
C     -1.417935   -1.005588    0.192568
H     -2.301421   -1.235563    0.780506
H     -1.012596   -1.777646   -0.416638
C     -1.594173    1.306005    0.243957
H     -2.657234    1.155410    0.216870
H     -1.189276    2.294421    0.276578
H      0.951281    1.451134    0.688594
