15

C      1.582220    0.200685   -0.457670
C      0.488926    0.163024    0.562424
H      0.756213    0.393000    1.596120
C     -0.837238    0.759849    0.104286
H     -1.062734    1.758819    0.382467
N     -1.463020   -0.323601    0.881223
H     -1.407102   -0.104446    1.891748
C     -0.344350   -1.108888    0.389705
H     -0.046457   -1.982178    0.893981
C     -0.588555   -1.099902   -1.090802
N     -0.889939    0.337541   -1.262276
H     -1.782824    0.488099   -1.739108
H      1.217792   -0.227146   -1.403571
H      1.979980    1.215196   -0.654508
H      2.397089   -0.470052   -0.094017
