17

C      1.215582    1.185032   -0.192547
C      0.459381   -0.114696   -0.474442
C      1.161987   -1.170247    0.355593
H      1.587170   -0.761928    1.293444
H      1.984148   -1.568752   -0.277946
H      0.425465   -1.938714    0.637714
N     -0.925471   -0.012188   -0.143918
C     -1.367379    0.283975    1.185753
H     -1.525483   -0.498795    1.912738
H     -1.528000    1.333512    1.402854
C     -1.861524   -0.180558   -1.024799
H     -1.563868   -0.406258   -2.042192
H     -2.899626   -0.113236   -0.821266
H      0.539153   -0.363841   -1.560377
H      2.239212    1.023445   -0.598626
H      1.351109    1.239595    0.919284
H      0.708143    2.063654   -0.571268
