13

O      2.173999   -0.280695   -1.294094
C      2.529654    0.251217   -0.037993
H      2.674040    1.349914    0.029371
H      2.966835   -0.410556    0.735761
C      1.125677   -0.143309   -0.416771
C     -0.129174   -0.220699   -0.016125
C     -1.200884   -0.044401    0.977046
H     -1.528124    0.998136    1.179132
H     -1.085251   -0.654309    1.890769
C     -1.509614   -0.591399   -0.342330
O     -2.223791    0.218711   -1.227741
H     -2.085631    1.188716   -1.029009
H     -1.707736   -1.661324   -0.448014
