12

O      1.967710   -1.051901    1.138475
C      1.624571    0.048956    0.752510
C      1.034825    0.261050   -0.589902
C     -0.140304   -0.557122   -0.827703
C     -1.132807   -0.298087   -0.032076
C     -2.272195    0.106175    0.460041
H     -2.426118   -0.233675    1.421294
H     -2.979497    0.714049   -0.039346
H     -0.134259   -1.276584   -1.592547
H      1.866170    0.035040   -1.327150
H      0.838109    1.356807   -0.780147
H      1.753794    0.895295    1.416552
