13

C     -1.452606   -0.495798    0.529459
H     -1.339788   -1.585455    0.364423
H     -2.391890   -0.216229    1.038495
C     -1.054851    0.443967   -0.578711
H     -1.532475    1.413436   -0.693535
H     -0.735995   -0.058809   -1.512972
C     -0.210872    0.281718    0.672260
C      1.086189   -0.369236    0.440221
C      1.897443    0.078058   -0.509074
H      1.594466    0.925758   -1.109592
H      2.866818   -0.350136   -0.737400
H      1.449776   -1.222145    1.006160
H     -0.176214    1.154873    1.374755
