15

C     -2.560598    0.409722   -0.095475
C     -1.078664    0.534643    0.185567
N     -0.354748   -0.524100   -0.410999
C      0.838506   -0.712882    0.040873
C      2.038734   -0.784270    0.565835
O      2.124477   -1.602568    1.650314
N      3.012925   -0.022749   -0.062604
H      2.908867    0.971261   -0.385028
H      3.950232   -0.445541   -0.248666
H     -0.589952   -1.184397   -1.143444
H     -0.740702    1.494361   -0.278767
H     -0.877247    0.628674    1.269595
H     -3.007956    1.417599    0.034933
H     -2.648547    0.182855   -1.188103
H     -3.015327   -0.362608    0.519066
