11

O      2.501594    0.666309   -0.046728
C      1.457178    0.480673    0.833073
H      1.490309    1.061386    1.777828
C      0.191381    0.063746    0.241649
N     -0.982458    0.210383   -0.520025
C     -1.886120   -0.915589   -0.611077
H     -2.737798   -0.750483   -1.277101
H     -2.294821   -1.071474    0.423166
H     -1.221768    1.114924   -1.025012
O      0.849585   -0.780028    0.973222
H      2.632918   -0.079846   -0.673166
