15

C     -2.479047    0.822079    0.021378
C     -2.101423   -0.563955   -0.206726
C     -0.853245   -0.793340   -0.554235
C      0.426696   -0.899140   -0.781820
C      1.283083   -1.030916    0.341999
C      2.229858   -0.137064    0.485593
C      3.144565    0.806761    0.541090
H      2.853844    1.670580    1.078262
H      4.048096    0.572238    0.038691
H      1.277867   -1.769007    1.116202
H      0.681241   -0.871466   -1.811088
H     -2.674544   -1.455148   -0.138772
H     -1.709980    1.416090    0.569331
H     -2.727848    1.343395   -0.919415
H     -3.399162    0.888893    0.672609
