10

N     -1.030251    1.726123    0.233811
C     -0.617210    0.504745    0.261947
O      0.695929    0.264187   -0.048706
C      1.136516   -0.892317   -0.355954
O      2.504112   -0.926974   -0.638743
H      3.111545   -0.655264    0.146446
C     -1.526986   -0.591131    0.615845
O     -2.718135   -0.304699    0.890210
H     -1.196800   -1.618507    0.643875
H     -0.358720    2.493838   -0.022911
