11

N      2.857991    0.367784    0.288785
C      1.671706   -0.090246    0.478896
C      0.412656   -0.407371    0.385013
C     -0.586614    0.278733   -0.450943
C     -1.880773   -0.391336   -0.339928
O     -2.007605   -1.368736    0.369228
H     -2.731525   -0.016171   -0.891645
H     -0.633311    1.344288   -0.126140
H     -0.265879    0.331732   -1.531214
H      0.149254   -1.229836    0.981130
H      3.014099    1.181160    0.932648
