12

C     -1.019406   -1.224153   -0.028287
C     -0.420022   -0.056626   -0.013700
C      0.909080    0.087752    0.666954
O      1.821717    0.511319   -0.300753
H      2.537823   -0.144938   -0.471004
H      1.200697   -0.900346    1.054679
H      0.826417    0.782693    1.517975
C     -1.009731    1.123726   -0.645721
O     -0.361323    2.192523   -0.578473
H     -1.966282    1.043763   -1.141892
H     -0.547939   -2.059443    0.448261
H     -1.971032   -1.356270   -0.508038
