11

C      2.302023   -0.064538    0.065516
C      1.013753   -0.110567   -0.109571
C     -0.275699    0.012685   -0.049333
C     -1.099034    1.139660    0.295299
H     -0.747538    2.112268    0.571192
N     -2.335725    0.736876    0.203160
N     -2.374252   -0.620482   -0.191027
C     -1.148596   -1.064766   -0.345163
H     -0.945413   -2.069762   -0.641721
H      2.759407   -0.303926    0.974912
H      2.851073    0.232551   -0.773265
