15

C      1.196022   -0.880607   -0.690328
C      0.064902   -0.131931   -0.004269
C     -0.953344   -0.900317    0.760111
H     -0.896608   -1.963941    0.798509
H     -1.041465   -0.371019    1.784430
C     -2.030977   -0.240412   -0.089209
C     -0.966807    0.547655   -0.789710
H     -1.002347    0.711452   -1.844348
C      0.022258    1.341149    0.012249
O     -0.231771    1.806013    1.310389
H      0.459966    1.359084    1.877068
H      0.810760    1.837561   -0.565665
H      1.950162   -1.184011    0.058759
H      1.700329   -0.146231   -1.367738
H      0.918921   -1.784445   -1.250249
