13

C      1.522927   -0.349275    0.240363
C      0.268294    0.146717   -0.432893
H      0.556784    0.760254   -1.334343
C     -0.546506    1.004755    0.435716
H     -0.277928    1.931684    0.951135
C     -1.737716    0.453469    0.508897
H     -2.573660    0.871519    1.093693
N     -1.775718   -0.733809   -0.263956
C     -0.639363   -0.946240   -0.823076
H     -0.411456   -1.806308   -1.476969
H      1.948970    0.448231    0.885195
H      1.386130   -1.278065    0.796772
H      2.279242   -0.502930   -0.580536
