13

C     -0.711110   -1.215811    0.505284
H     -1.100376   -0.919930    1.506115
H     -0.998429   -2.262585    0.203894
C     -0.835880   -0.159505   -0.538776
C     -1.193169    1.264049   -0.144126
H     -0.242835    1.814424    0.081688
H     -1.840879    1.322384    0.731147
H     -1.608036    1.778995   -1.047937
H     -1.074322   -0.488274   -1.553370
C      0.525056   -0.625230   -0.016862
C      1.823162   -0.562583   -0.017219
C      3.093606   -0.289857    0.061438
O      4.163213    0.343924    0.228724
