13

O      2.641073    0.608878   -0.295513
C      1.473860    0.286331   -0.071030
C      0.996606   -1.006905    0.179846
H      1.736251   -1.848596    0.284630
C     -0.285221   -1.309602    0.264215
H     -0.635363   -2.248878    0.424547
C     -1.296438   -0.258874   -0.209022
H     -2.236645   -0.445434    0.297174
H     -1.417893   -0.565049   -1.307698
C     -0.770088    1.096245   -0.036968
H     -1.519058    1.875650    0.166718
C      0.503940    1.399267    0.020621
H      0.808975    2.416967    0.282481
