12

N      1.837873   -0.107196   -0.263322
C      0.584253   -0.140130    0.458641
H      0.754906   -0.067015    1.565126
C     -0.206734   -1.335231    0.203272
N     -1.349688   -1.031914   -0.290763
H     -2.139505   -1.666913   -0.580133
C     -1.468454    0.376541   -0.426943
O     -2.456292    1.047507   -0.879151
N     -0.260656    0.948166    0.040177
H     -0.062608    1.989670    0.058404
H      2.288558    0.817683   -0.013436
H      2.478347   -0.831169    0.128128
