15

C      2.652322    0.625586   -0.087696
N      1.342705    0.107455   -0.039656
C      0.962858   -1.128206   -0.042141
H      1.582823   -1.997758   -0.081747
C     -0.533325   -1.158955    0.021226
H     -0.785256   -1.608458    0.999769
H     -0.981010   -1.682683   -0.829141
C     -0.863974    0.283846    0.057159
C     -2.222453    0.879483    0.124130
H     -2.918903    0.107544    0.527175
H     -2.578605    1.243818   -0.838001
H     -2.178648    1.737742    0.838255
N      0.220403    0.942430    0.020858
H      2.967871    1.196489   -0.930711
H      3.333191    0.451667    0.713621
