16

C     -1.106913   -0.938568    0.738931
H     -0.302734   -1.253388    1.461016
H     -1.918944   -1.691446    0.634343
C     -1.669994    0.366833    1.203899
C     -1.192974    1.017788   -0.053453
H     -0.442954    1.800955    0.218872
H     -1.975543    1.426753   -0.724682
C     -0.643583   -0.277681   -0.496534
C      0.834479   -0.320164   -0.790777
C      1.674240    0.321444    0.265849
H      1.122380    0.401444    1.202514
H      2.579636   -0.313253    0.499345
H      2.113407    1.299031   -0.076501
H      0.959405    0.191714   -1.782096
H      1.161077   -1.356692   -0.923587
H     -1.190984   -0.674769   -1.377138
