12

N     -1.097756   -1.064251    0.428344
C     -0.336506   -0.138154   -0.355874
H     -0.259046   -0.437082   -1.423244
C      0.974036    0.217891    0.279594
C      2.183139   -0.023085   -0.569619
H      2.350413   -1.116469   -0.623431
H      1.118569   -0.176410    1.307129
O      0.536212    1.545404    0.335776
C     -0.682025    1.280783   -0.242664
O     -1.660686    2.013237   -0.531964
H     -1.142606   -0.786881    1.415472
H     -1.983744   -1.314983   -0.019519
