9

C      1.990841    0.463630   -0.416908
C      1.035756   -0.270314   -0.592939
C     -0.085571   -1.137693   -0.821329
O     -1.227061   -0.691851   -0.516213
C     -1.450567    0.548607    0.010085
H     -1.398628    0.713624    1.070801
H     -1.685357    1.402707   -0.608875
H     -0.008823   -2.130557   -1.231406
H      2.829410    1.101846   -0.258875
