14

C      3.328046    0.191706    0.193523
C      1.942860    0.334387   -0.199072
C      0.768146    0.445044   -0.512332
C     -0.627615    0.596463   -0.886142
N     -1.673899   -0.018946   -0.200060
C     -2.015065   -0.866091    0.860666
H     -1.587025   -1.447383    1.658532
C     -3.054182   -0.334713    0.062460
H     -3.677182    0.476604    0.493407
H     -3.606544   -1.011425   -0.605566
H     -0.902651    1.211003   -1.735283
H      3.998870    0.595077   -0.602582
H      3.580772   -0.877853    0.309280
H      3.525469    0.706128    1.163168
