11

C      1.840444   -0.114886   -0.081122
C      0.588854    0.060644    0.291986
C     -0.566567   -0.126663   -0.597337
H     -0.595160   -1.217662   -0.872423
H     -0.515139    0.508984   -1.504354
N     -1.687609    0.173493    0.241612
H     -2.691946    0.133484   -0.097814
N     -1.203044    0.501207    1.494503
N      0.057864    0.444248    1.542016
H      2.621860    0.046957    0.644532
H      2.150444   -0.409807   -1.061599
