19

C     -0.715567    0.744031   -1.107869
C     -0.566163   -0.074228    0.160640
O      0.218241    0.577466    1.063192
C      1.342909    0.926230    0.965869
C      2.297033    0.794726   -0.132084
H      1.893534    0.584112   -1.118528
H      3.088365    0.019483    0.061371
H      2.822278    1.792370   -0.223100
C     -1.954334   -0.348824    0.768746
H     -1.886906   -0.549428    1.847290
H     -2.375316   -1.243447    0.288146
H     -2.550325    0.568318    0.614242
C      0.062650   -1.426239   -0.103218
H     -0.207566   -1.775695   -1.125684
H      1.159990   -1.400658   -0.004887
H     -0.339443   -2.121188    0.663606
H     -0.303296    0.248785   -2.003169
H     -0.207384    1.720405   -0.984837
H     -1.778697    0.963780   -1.333614
