8

C      0.229833   -0.492074    0.076794
C      1.073202    0.480117   -0.224258
H      2.127754    0.333965   -0.314971
H      0.667612    1.491171   -0.389694
C     -1.197646   -0.238919    0.187974
O     -1.652123    0.915874   -0.002012
H     -1.895501   -1.015078    0.431149
H      0.646870   -1.475055    0.235019
