10

O      2.264518   -0.047960   -0.009652
C      0.868508    0.041138    0.037001
N      0.074088   -0.991492    0.026709
C     -1.298767   -0.603566    0.082807
H     -1.870705   -0.909937   -0.837209
H     -1.829511   -0.990113    0.968321
N     -1.229104    0.844243    0.129859
C      0.009814    1.193332    0.103014
H      0.340915    2.220122    0.127593
H      2.670244   -0.755767   -0.628442
