17

C      1.328222   -0.380865   -2.910252
C      1.091898    0.228413   -1.550423
O     -0.028937   -0.431607   -0.958359
C     -0.512546   -0.117513    0.285405
O      0.022003    0.776069    0.958241
C     -0.368733    1.181799    2.213927
H     -1.196301    0.751240    2.758882
H      0.192884    1.980750    2.674862
C     -1.671951   -0.841046    0.830500
H     -2.202754   -1.395309    0.030460
H     -2.357377   -0.117513    1.324144
H     -1.308129   -1.513513    1.636697
H      2.004888    0.109421   -0.959447
H      0.854357    1.306494   -1.709240
H      0.359649   -0.673042   -3.328214
H      2.026432   -1.249132   -2.767646
H      1.766395    0.385354   -3.591559
