13

C      2.283261   -0.032724   -0.285955
C      0.943031    0.055182   -0.170379
N      0.083223   -0.868197    0.474924
H      0.397165   -1.751507    0.950774
C     -1.287618   -0.408361    0.377487
H     -1.651944   -0.279057    1.429135
H     -1.959500   -1.151618   -0.093687
C     -1.213920    0.870149   -0.376976
H     -1.867656    0.910553   -1.270932
H     -1.525558    1.721105    0.294672
O      0.144807    1.067982   -0.661433
H      2.833101    0.734481   -0.801636
H      2.821609   -0.867990    0.134005
