17

C      1.323223    1.009519    0.021109
C      2.525295    0.050482   -0.021821
H      3.324173    0.474916    0.435429
H      2.704067   -0.086264   -1.165864
H      2.228374   -0.946086    0.286793
C      0.098206    0.582198    0.202522
C     -1.271513    1.074944    0.296082
H     -1.596529    1.633004   -0.679281
H     -1.510649    1.660987    1.230663
C     -1.823765   -0.298169    0.361000
H     -2.596253   -0.562543    1.096819
C     -1.444498   -1.256980   -0.740646
H     -1.799602   -2.241353   -0.681317
H     -1.245088   -0.777652   -1.698507
C     -0.422909   -0.798129    0.297426
H     -0.034277   -1.577717    0.871370
H      1.541746    2.058840   -0.111777
