14

C      1.333780   -0.816133   -0.758984
H      1.704720   -1.813561   -0.411365
N      1.706461    0.326132    0.177285
H      2.097351    1.109082   -0.375707
H      2.137653    0.030450    1.067917
C      0.393387   -0.112961   -0.072244
C     -0.688953   -0.343063    0.848706
H     -0.843874   -0.971271    1.614974
C     -1.647281   -0.187259   -0.332825
H     -1.528069   -0.913539   -1.142689
H     -2.658866    0.086410   -0.021899
C     -0.622745    0.901358   -0.430156
H     -0.570810    1.638886   -1.107238
O     -0.812753    1.065469    0.944225
