14

C     -0.751514    1.138371    0.004274
N     -0.363969   -0.209646    0.247106
C      1.009568   -0.383322    0.630167
C      1.851292    0.233387   -0.371252
N      2.522518    0.749178   -1.175258
H      1.188379   -1.465152    0.753607
H      1.135701    0.072356    1.642193
C     -0.696468   -1.011027   -0.929301
H     -0.400998   -2.069162   -0.723985
H     -1.813131   -0.999140   -0.988112
H     -0.946938   -0.624770    1.028350
H     -1.052188    1.298121   -1.057811
H     -1.679564    1.373715    0.597813
H     -0.002687    1.897089    0.342208
