10

N      1.776639   -0.418020   -0.027686
C      0.359201   -0.176888   -0.025284
C     -0.214559    1.038188    0.194378
H      0.207011    2.011782    0.398219
N     -1.545043    0.841704    0.113915
N     -1.786047   -0.432172   -0.142983
H     -2.775593   -0.787346   -0.243738
N     -0.639929   -1.049935   -0.227681
H      2.234794   -0.935992    0.757739
H      2.383527   -0.091322   -0.796879
