13

C     -1.541872    0.095059   -0.070096
C     -0.256993   -0.342900    0.523533
C      0.945970    0.412956    0.033753
C      2.174451   -0.161364    0.740580
H      2.522306   -1.089835    0.245416
O      1.136758    0.358969   -1.317798
H      0.332198    0.255899   -1.862180
H      0.898295    1.476436    0.343861
H     -0.296802   -0.187290    1.636622
H     -0.133069   -1.432743    0.385481
H     -1.448874    0.873406   -0.858742
H     -2.107009   -0.775673   -0.504825
H     -2.225361    0.517081    0.704395
