11

O      0.113377   -1.491413    0.823359
C     -0.110709   -0.395811    0.063998
C     -1.344873    0.114527   -0.432537
N     -2.431016   -0.540794   -0.132641
H     -3.351189   -0.218278   -0.464166
H     -1.447452    0.986338   -1.027143
C      0.972977    0.277131   -0.248025
C      2.021871    0.988046   -0.590139
H      2.466410    0.688705   -1.500108
H      2.265277    1.753230    0.094582
H      0.845327   -2.161681    0.673952
