16

C      2.913649    0.097116   -0.655949
N      1.667991   -0.515757   -0.282817
C      0.589132    0.139811   -0.345923
C     -0.691235   -0.518396    0.046812
H     -0.536824   -1.502173    0.551707
C     -1.669508    0.353869    0.733983
H     -1.298089    1.395900    0.871063
H     -1.999433   -0.048547    1.713066
C     -2.513500    0.102169   -0.417105
H     -3.519398    0.436214   -0.687918
C     -1.656757   -0.675931   -1.043582
H     -1.634285   -1.239314   -2.002908
H      0.596369    1.158155   -0.678499
H      3.626657   -0.639692   -1.080163
H      3.368720    0.554560    0.248566
H      2.756511    0.902016   -1.427456
