14

O      2.687640    0.310100   -0.631490
C      2.229551   -0.551846    0.347606
C      0.672527   -0.575100    0.364916
N      0.422601    0.745796    0.863205
C     -0.538602    1.409859    0.312012
O     -1.183277    0.704273   -0.697563
C     -1.756702   -0.537227   -0.330402
H     -1.852525   -1.260241   -1.168817
H     -2.855049   -0.191705   -0.314640
H     -1.674385   -0.901769    0.664722
H     -0.797542    2.428013    0.628158
H      0.507971   -0.772247   -0.695712
H      0.540413   -1.401060    1.073303
H      3.597379    0.593154   -0.415299
