15

C     -1.194643   -1.175375    0.125432
C     -0.386036   -0.128590   -0.610194
H     -0.242752   -0.415305   -1.685473
C     -0.740895    1.280232   -0.350346
H     -1.643220    1.438915    0.282868
H     -0.856321    1.869896   -1.302154
C      0.528193    1.466345    0.328786
C      1.108986    2.499178    0.931376
C      0.892745    0.100981    0.087043
C      1.950201   -0.684316    0.363388
H      2.779580   -0.276793    0.895221
H      1.970239   -1.710991    0.057168
H     -0.960741   -1.120863    1.224058
H     -0.934697   -2.162638   -0.306953
H     -2.270637   -0.980675   -0.040220
