19

C      2.971884    0.547074   -0.434041
O      2.379412   -0.627493   -0.907888
C      1.471423   -1.152813   -0.010869
C      0.335860   -0.176685    0.288044
C     -0.928431   -0.747321   -0.257479
C     -2.172330   -0.111719    0.298098
C     -2.268113    1.350959    0.031535
H     -2.124945    1.613011   -1.037010
H     -3.328153    1.660491    0.263931
H     -1.587932    1.973350    0.622808
H     -3.038090   -0.603046   -0.223363
H     -2.224451   -0.270059    1.389457
H     -0.974442   -0.735539   -1.355879
H     -0.964360   -1.831230    0.056979
H      1.075164   -2.089784   -0.462977
H      1.954560   -1.478024    0.948225
H      3.691074    0.936251   -1.178824
H      3.521079    0.403991    0.507853
H      2.210791    1.338587   -0.242492
