10

O      1.435513   -0.211823   -0.380719
C      1.859760    0.785933   -0.078761
H      1.519965    1.663480    0.508064
C      0.283673   -0.845991   -0.167307
H      0.249487   -1.922449    0.071960
C     -0.852551   -0.103171    0.636167
H     -1.003949   -0.116897    1.659886
O     -0.796348    1.228435   -0.122862
C     -1.101266   -0.177408   -0.595273
H     -1.594285   -0.300109   -1.531155
