12

N      2.836850    0.006612   -1.576724
C      1.757066   -0.180368   -0.570846
C      0.772072   -0.336314    0.326110
H      1.183563   -0.812596    1.200937
C     -0.244808   -1.099530   -0.317607
H     -0.216838   -2.030458   -0.653530
C     -1.345531   -0.404670   -0.486124
H     -2.443437   -0.437820   -0.897157
C     -1.025950    0.918587    0.273210
H     -1.839014    1.730993    0.506476
C      0.076058    0.874626    0.709711
H      0.489970    1.770936    1.485546
