16

C      3.037753    0.191374   -0.766301
O      1.836234   -0.252651   -1.294994
C      0.777290    0.081662   -0.454832
C     -0.545439   -0.379548   -0.987536
C     -1.518633   -0.455798    0.154942
C     -2.895530    0.034623   -0.208791
H     -3.230694   -0.469524   -1.142769
H     -3.584159   -0.320472    0.590054
H     -2.974362    1.126719   -0.240686
H     -1.141723    0.105451    1.037183
H     -1.626148   -1.509571    0.487042
H      1.016511   -0.330561    0.550220
H      0.724994    1.205649   -0.394736
H      3.880972   -0.060202   -1.408824
H      3.242429   -0.265840    0.230578
H      3.000506    1.298689   -0.607671
