13

C     -1.921728    0.090896    0.201775
C     -0.548168   -0.301726   -0.234406
N      0.474397    0.380789    0.500295
C      1.844262    0.184938    0.277977
C      2.271942   -0.421928   -0.794447
H      2.750563   -0.901530   -1.627844
O      2.784824    0.637289    1.203886
H      0.165429    1.067136    1.248366
H     -0.422235   -0.023792   -1.319296
H     -0.475900   -1.412272   -0.170308
H     -1.900191    0.814760    1.069278
H     -2.545390   -0.760302    0.526483
H     -2.477803    0.645741   -0.597272
