17

C      2.539583   -0.297331   -0.212150
C      1.316923   -0.945002   -0.809960
C      0.168459    0.015971   -0.973320
C     -0.617962    0.122899    0.301639
O      0.103996    0.573576    1.402890
H      0.299622    1.530916    1.301426
C     -2.037419    0.544470    0.199093
H     -2.399729    1.248536    0.977065
H     -2.431129    0.771269   -0.816894
C     -1.747960   -0.884976    0.549179
H     -1.898461   -1.170833    1.615781
H     -1.917044   -1.602418   -0.256527
H      0.459977    1.016664   -1.295124
H     -0.511434   -0.437990   -1.750468
H      3.409012   -0.930740   -0.486263
H      2.743544    0.714240   -0.642861
H      2.520023   -0.269253    0.896493
