17

C     -2.644210    0.234601    0.392908
C     -1.427221   -0.330277   -0.303767
C     -0.170595    0.430279    0.005675
H      0.077388    1.254830   -0.663903
O      0.288586    0.541282    1.305962
C      0.938381   -0.425120    0.582812
C      2.279162   -0.199477   -0.019132
O      3.254992    0.106331    0.927910
H      3.667610    0.969090    0.700599
H      2.238689    0.594751   -0.789838
H      2.589899   -1.126235   -0.568543
H      0.700033   -1.460212    0.890638
H     -1.609657   -0.240358   -1.395154
H     -1.331525   -1.416991   -0.096629
H     -3.546693    0.043357   -0.255776
H     -2.483936    1.315492    0.535278
H     -2.820903   -0.291343    1.347702
