12

N      1.203033    0.394289    1.039418
C      0.106219    0.049712    0.183885
N     -1.174363    0.003517    0.139216
C     -1.240512   -0.430583   -1.129649
H     -1.232840    0.552112   -1.868958
C     -1.397267   -1.560693   -1.938798
H     -2.197483   -2.207635   -2.334291
C     -0.075495   -1.639639   -2.122342
H      0.706857   -2.189142   -2.619382
N      0.119988   -0.811726   -0.954225
H      1.433280   -0.261576    1.810629
H      1.781630    1.251104    0.942314
