11

C      1.974153    1.830274    0.388715
C      1.583860    0.701753    0.346499
C      1.111528   -0.641037    0.273180
C      0.081130   -0.995157   -0.643243
C     -1.127433   -0.584752   -0.372619
C     -2.306327   -0.123105   -0.019083
H     -2.541019    0.835268   -0.392248
H     -2.867917   -0.782730    0.600612
H      0.149613   -1.562725   -1.545513
O      1.610317   -1.503374    1.020460
H      2.332095    2.825585    0.439070
