13

C     -1.074951    0.511614    0.291227
H     -1.386917    0.527588    1.298438
H     -1.823245    1.039558   -0.380431
C      0.167197    1.178894   -0.037961
H      0.241604    2.307534   -0.016975
C      1.370370    0.569354   -0.155583
H      2.252172    0.935849   -0.414380
C      1.357706   -0.903089    0.216804
H      2.290196   -1.324783    0.688624
N      0.262344   -1.531832    0.205295
C     -0.948087   -0.924268   -0.266891
H     -1.831896   -1.545825   -0.015381
H     -0.876492   -0.840595   -1.412786
