14

C     -1.973695    0.093445    1.016956
C     -1.181487   -0.147336   -0.178789
C      0.037995   -0.567064    0.057755
C      1.307806   -0.862880    0.294224
C      2.203336    0.271774    0.419200
H      2.275485    0.758358   -0.597187
H      3.228425   -0.012775    0.777170
H      1.784372    1.017108    1.115621
H      1.464300   -1.898679    0.354825
O     -1.496833   -0.008972   -1.489012
H     -1.104520    0.775471   -2.016739
H     -3.046718    0.163477    0.734911
H     -1.712762    1.095629    1.435309
H     -1.785705   -0.677557    1.777069
