17

C     -2.355328   -0.526392    0.351379
O     -1.440887    0.531766    0.544690
C     -0.334747    0.395574   -0.277634
C     -0.189323    1.559965   -1.233776
H     -1.161785    1.756623   -1.716815
C      0.930564    0.260956    0.558116
O      0.793785   -0.873309    1.362745
H      1.694967   -1.263984    1.492272
C      2.098465   -0.003698   -0.369446
H      2.434799    0.918127   -0.882865
H      1.766169   -0.735463   -1.144459
H      2.979386   -0.412954    0.158689
H      1.055326    1.187235    1.126587
H     -0.466654   -0.522295   -0.876305
H     -3.192159   -0.316123    1.053522
H     -1.876267   -1.508475    0.549095
H     -2.736311   -0.447552   -0.695795
