11

C      2.018091   -0.318276   -0.073138
C      0.678489   -0.232227   -0.041286
N     -0.101496    0.937784    0.126553
H      0.249705    1.905235    0.250184
C     -1.459880    0.544294    0.094768
H     -2.335707    1.206906    0.196436
C     -1.509512   -0.765340   -0.079055
H     -2.430369   -1.353010   -0.143382
O     -0.225387   -1.279709   -0.167164
H      2.564060    0.590761    0.039731
H      2.552005   -1.236419   -0.203647
