15

C      0.880032    0.940357   -0.227600
H      1.405626    1.495115   -1.002185
H      0.563994    1.612890    0.670449
C      1.492473   -0.321854    0.289579
H      1.897851   -0.386163    1.277077
H      2.269826   -0.666088   -0.487859
C      0.191649   -1.042613   -0.026966
H      0.261617   -1.942338   -0.660674
C     -0.633611   -1.215538    1.204832
O     -1.548190   -0.471206    1.223880
C     -1.625448    0.349770    0.134207
H     -1.811164    1.349649    0.522217
H     -2.441374   -0.011081   -0.546999
C     -0.355244    0.220502   -0.609944
H     -0.548035    0.088599   -1.760013
