14

C     -1.894097    0.308725    0.557598
C     -0.903754   -0.263062   -0.424820
C      0.474069   -0.393820    0.215017
H      0.423361   -0.986207    1.174146
O      1.449474   -0.896546   -0.570178
C      2.204873    0.218047   -0.442328
H      3.143169   -0.045651    0.139855
H      2.457423    0.762866   -1.389475
C      1.205074    0.868984    0.428891
H     -0.837268    0.286582   -1.366819
H     -1.224153   -1.305309   -0.666931
H     -2.582138    0.998503    0.012837
H     -1.371055    0.921165    1.327484
H     -2.544978   -0.474278    1.004723
