15

C     -2.422330   -0.826536   -0.742340
H     -2.690735   -1.862039   -0.692615
C     -2.515132    0.440779   -1.203324
H     -3.076017    1.039064   -1.912046
C     -1.518780    0.253665   -0.201971
O     -0.185130    0.009684   -0.459914
C      0.631396    0.130235    0.635435
C      2.049402   -0.177481    0.136858
O      2.933888   -0.078420    1.176994
H      3.171844    0.864881    1.323131
H      2.270657    0.456597   -0.732330
H      2.050264   -1.231719   -0.241540
H      0.411890   -0.651169    1.393009
H      0.613700    1.120837    1.112295
H     -1.724918    0.511621    0.861458
