12

C      2.011834   -0.477987    0.086089
H      2.729428   -1.094824    0.570780
C      1.708119    0.680726   -0.658114
H      2.167344    1.511812   -1.082054
N      0.671593   -0.195382   -0.299414
C     -0.720147   -0.605169   -0.285940
C     -1.510773    0.377651    0.553832
H     -2.567848    0.382276    0.228339
H     -1.108189    1.418216    0.405692
H     -1.423068    0.163410    1.640085
H     -0.831554   -1.618009    0.163674
H     -1.126740   -0.542720   -1.322970
