14

C     -2.352485   -0.307333   -0.141420
N     -1.370868    0.265716    0.740621
C     -0.102927    0.376098    0.091694
O      0.180157    1.338559   -0.667239
N      0.918140   -0.616052    0.276927
C      2.166326   -0.476836   -0.381958
N      2.436441    0.532788   -1.165918
H      3.381606    0.590928   -1.633889
H      2.940337   -1.218057   -0.248640
H      0.682987   -1.411473    0.904775
H     -1.664734    1.236428    1.010341
H     -1.292449   -0.262557    1.635360
H     -3.267107   -0.535596    0.451589
H     -2.655423    0.487387   -0.872244
