11

C      2.531809    0.195585    0.450600
C      1.281837   -0.306343    0.522891
C      0.131694   -0.389769    0.060793
C     -1.186770   -0.583488   -0.715280
H     -1.379097   -1.151568   -1.551033
C     -1.338027   -0.134802    0.488813
H     -1.695576   -0.051409    1.463646
N     -1.689124    0.889240   -0.585638
H     -2.695995    0.849729   -0.912170
H      3.268207   -0.512810    0.151467
H      2.771043    1.195636    0.721741
