9

N      1.887096   -1.556366   -0.513620
C      0.843077   -0.721811   -0.511345
C     -0.143670    0.064843   -0.531306
C     -1.302515    1.006182   -0.532886
O     -1.840873    0.925644   -1.727778
C     -1.750548    1.788039    0.454103
N     -2.165121    2.473782    1.320336
H      1.751659   -2.360890   -1.313337
H      2.720893   -1.619423   -0.009825
