12

O     -1.850107   -0.172897    0.406079
C     -1.081194    0.797745   -0.235869
C      0.370178    0.396286   -0.240192
H      1.046557    1.058246   -0.788215
O      0.824234    0.253384    1.164839
C      0.842678   -0.862656    0.277607
O      2.110243   -1.289200   -0.029479
H      2.616468   -0.511533   -0.374903
H      0.085874   -1.631866    0.599497
H     -1.384185    0.925747   -1.301462
H     -1.193894    1.754930    0.317884
H     -2.386852   -0.718186   -0.209374
