12

O     -0.136473   -1.153825    0.830927
C      0.719833   -0.048929    0.817910
H      1.293679    0.241693    1.676447
C      1.040103    0.166388   -0.584622
H      1.990221    0.494583   -0.983611
C      0.025845    1.012475    0.021349
H      0.095948    2.055518    0.265561
N     -1.243867    0.376547   -0.296160
H     -1.846279    0.432451    0.564640
C     -0.753780   -1.006318   -0.400439
H     -1.497692   -1.722388   -0.658411
O      0.312463   -0.848196   -1.253590
