14

C      2.057118    0.261786    0.888961
O      0.749987    0.637591    0.599795
C      0.151472   -0.409414   -0.115349
C     -1.282874   -0.072729   -0.468679
C     -2.126612    0.173154    0.709317
H     -2.554974   -0.664824    1.239165
H     -2.304653    1.188058    1.026160
O     -1.220642    1.059525   -1.309903
H     -1.656040   -0.931977   -1.081219
H      0.246052   -1.328062    0.481395
H      0.709513   -0.479364   -1.072505
H      2.573940    0.087057   -0.087530
H      2.112949   -0.654435    1.514553
H      2.544766    1.133635    1.377152
