14

C     -1.728840   -0.881291    0.262140
C     -0.593175    0.091813    0.326024
C     -0.748180    1.331694    0.729280
H      0.031292    2.062937    0.792135
H     -1.766419    1.637350    1.025588
C      0.733378   -0.419008   -0.093786
C      1.719660    0.715935    0.048701
O      2.916378    0.341149    0.608036
H      3.625428    0.490347   -0.055106
H      0.632092   -0.748282   -1.149521
H      1.067423   -1.288531    0.503853
H     -1.891619   -1.081917   -0.827851
H     -1.415594   -1.822095    0.769550
H     -2.581826   -0.430101    0.762270
