15

C     -2.439681   -0.895047   -0.289942
O     -1.327264   -0.526439   -1.104793
C     -0.200769    0.080124   -0.569892
O     -0.128953    1.470619   -0.526073
H     -0.713866    1.944435    0.171758
C      0.813184   -0.618974   -0.097371
C      1.984007    0.105339    0.459252
O      1.802320    1.463262    0.383439
H      2.386779    1.959215    1.023346
H      2.211869   -0.215358    1.506224
H      2.912877   -0.143971   -0.125346
H      0.735586   -1.685217   -0.141578
H     -3.233798   -1.362266   -0.895933
H     -2.779365    0.035753    0.201195
H     -2.022926   -1.611475    0.458812
