15

C      1.568290    0.450020   -0.265565
N      0.420141   -0.035799    0.440180
C      0.394753   -1.436483    0.669018
H      1.180348   -2.017287    0.170218
H      0.531451   -1.604299    1.773954
C     -0.937823   -1.893435    0.243939
C     -1.628729   -0.835839   -0.196813
H     -2.655934   -0.851417   -0.581797
C     -0.808452    0.363874   -0.091474
N     -1.156693    1.679855   -0.446899
H     -2.102963    1.963577   -0.119722
H     -0.422224    2.374316   -0.317179
H      1.418887    1.514232   -0.495523
H      1.762345   -0.073853   -1.219909
H      2.436602    0.402539    0.437572
