14

C     -1.935348   -0.006017    1.040482
H     -2.174371   -1.051316    1.320504
H     -2.225921    0.734917    1.810409
C     -0.536247    0.241444    0.550653
O      0.200144   -0.960006    0.429682
C      1.508959   -0.991335   -0.001193
C      2.337176    0.027332    0.176596
H      2.040062    0.941357    0.667782
H      3.354341   -0.026799   -0.171178
H      1.866448   -1.879649   -0.500476
H      0.016170    1.055217    1.040777
C     -1.199983    0.601338   -0.713661
H     -0.876746    0.935187   -1.694446
N     -2.374683    0.378330   -0.254617
