16

C      1.969150   -0.885132   -0.128447
C      1.283518    0.292516   -0.754582
C     -0.115274    0.514813   -0.253005
O     -0.622893   -0.559642    0.452961
C     -1.771720   -1.017221   -0.194792
H     -1.545640   -1.345482   -1.246953
H     -2.192100   -1.912617    0.322138
H     -2.567196   -0.275090   -0.253966
C     -0.096123    1.768036    0.605991
H      0.158661    2.616977   -0.048114
H     -1.006929    1.906045    1.186626
H      0.744122    1.662596    1.344995
H     -0.746243    0.737937   -1.148386
H      2.563648   -0.517047    0.724567
H      1.270287   -1.656521    0.247117
H      2.674733   -1.330167   -0.856149
