11

N     -0.897845   -0.275370    0.294123
C     -2.268482    0.101307    0.354977
O     -2.759223    0.831559   -0.524499
H     -2.876938   -0.254855    1.174238
O     -0.161636    0.200739   -0.765516
C      1.164600   -0.151088   -0.843589
C      2.022199    0.282016    0.043695
H      3.081149    0.029575    0.021776
H      1.671780    0.920993    0.839410
H      1.499405   -0.785784   -1.638214
H     -0.475008   -0.899092    1.043599
