12

C     -2.054836    0.548315   -0.212970
N     -1.560688   -0.590068    0.066116
C     -0.256838   -0.690183    0.655163
N      0.740669    0.022354   -0.115003
C      2.087275    0.032344    0.318032
O      2.494523   -0.549360    1.353664
H      2.817593    0.567837   -0.267219
H      0.416757    0.509036   -0.975875
H     -0.237203   -0.222463    1.678982
H      0.050303   -1.748434    0.798507
H     -1.467906    1.426943    0.005309
H     -3.029649    0.693679   -0.656935
