11

O     -2.175877    0.879428   -0.249138
C     -0.908462    0.292691   -0.157958
N      0.199700    0.907679   -0.398527
C      1.285262    0.017892   -0.210478
O      2.662417    0.297888   -0.371938
H      3.136209    0.920110    0.272970
C      0.772429   -1.133555    0.146983
N     -0.637943   -1.057119    0.209209
H     -0.897975   -1.241053    1.217004
H     -1.120477   -1.746885   -0.411828
H     -2.315282    1.862923   -0.046298
