11

O     -1.317257   -1.300102   -0.640513
C     -0.780947   -0.052891   -0.360609
C      0.105128   -0.166389    0.823751
C      1.220180    0.550306    0.833811
H      1.878872    0.470952    1.705609
H      1.479630    1.205402   -0.004851
H     -0.149689   -0.811875    1.651037
C     -0.023643    0.434893   -1.536820
N      0.559016    0.833411   -2.450679
H     -1.601845    0.675547   -0.209999
H     -1.369445   -1.839254    0.189264
