16

C      2.118526   -0.500382    0.182707
O      0.839846   -0.332357    0.737966
C     -0.026451    0.173097   -0.212609
C     -1.090127   -0.887337   -0.511340
C     -1.866017   -1.240265    0.722684
H     -2.250700   -0.346329    1.254556
H     -0.560409   -1.800317   -0.864530
H     -1.760527   -0.541186   -1.322523
C     -0.662641    1.472969    0.179304
H     -0.944582    1.410894    1.244162
H     -1.602351    1.574147   -0.394214
H      0.004499    2.303477   -0.056278
H      0.521558    0.313292   -1.169762
H      2.443015    0.508464   -0.153084
H      2.078399   -1.233300   -0.657468
H      2.757961   -0.874868    1.020430
