12

O      3.402555    0.543389    0.667305
C      2.507981   -0.278057    0.484983
N      1.482000   -0.981736    0.370433
C      0.321370   -0.630919   -0.404349
C     -0.457729    0.494938    0.249578
H      0.173651    1.363346    0.549071
O     -1.596278    0.853246   -0.491692
C     -1.718448    0.224353    0.857415
H     -2.145314   -0.793040    0.807732
H     -2.231305    0.956252    1.498129
H     -0.343946   -1.495315   -0.523208
H      0.605464   -0.256458   -1.417627
