13

C     -1.399882   -0.801840    0.119931
C     -0.229249   -0.069459   -0.461751
H     -0.288824   -0.167692   -1.574304
C     -0.162810    1.343983   -0.142345
H     -0.877174    2.153255   -0.273443
O      1.073309    1.577986    0.421768
C      1.753763    0.528601    0.489169
H      2.774636    0.476822    0.904489
N      1.042192   -0.573991   -0.035299
H      1.436720   -1.556368   -0.073385
H     -1.560452   -1.712767   -0.519310
H     -2.301305   -0.157699   -0.028492
H     -1.260925   -1.040832    1.172971
