14

N      2.913157    1.109110    0.260545
C      1.752291    0.586944   -0.388425
N      0.882636   -0.016426    0.600773
C     -0.159134   -0.765397   -0.078130
H      0.048266   -1.217996   -1.059049
C     -1.169988   -1.471560    0.728097
H     -1.469964   -2.276330    1.362565
C     -1.572974   -0.281984    0.072742
N     -2.654766    0.604480   -0.154819
H     -2.909534    0.897338   -1.100592
H     -3.200923    0.965082    0.652711
H      1.379378   -0.635842    1.262312
H      2.821914    2.071680    0.624656
H      3.339643    0.430902    0.917925
