12

C     -1.502107    0.055523    0.578219
H     -2.503536    0.041613    1.084079
C     -0.553641    0.962022    0.589070
H     -0.535538    1.942938    1.107417
C      0.296212    0.201461   -0.263025
C     -0.747221   -0.827086   -0.304197
H     -1.190685   -0.946649   -1.343810
H     -0.396634   -1.785819    0.101300
C      1.659375   -0.017337   -0.176389
H      2.325262    0.682073    0.366610
H      2.124301   -0.965926   -0.400409
O      1.024213    0.657185   -1.338866
