11

C      1.818335    0.168820    0.519869
C      0.401040   -0.138161    0.323320
N     -0.129458   -1.253613    0.233189
C     -1.358523   -1.290359    0.092841
C     -1.808770    0.130498    0.032807
H     -2.153298    0.366546   -1.024543
H     -2.610183    0.328471    0.760328
O     -0.605990    0.811792    0.207714
H      2.102750    0.966226   -0.186530
H      1.895883    0.619838    1.566295
H      2.448214   -0.710058    0.465599
