15

C     -1.197948   -0.984776   -0.585836
C     -0.060664   -0.077649   -0.111356
N     -0.063668    1.154155   -0.940177
H     -0.196132    1.025769   -1.954225
H     -0.825320    1.825545   -0.573772
N     -0.093341    0.415659    1.217317
H     -0.824473    0.423487    1.847003
C      1.305542    0.763611    1.462038
H      1.758097    1.146184    2.265813
C      1.920908    0.338224    0.309809
C      1.306040   -0.800612   -0.202056
H      1.502940   -1.575939   -0.501259
H     -0.843440   -1.865820   -1.262209
H     -1.764386   -1.367542    0.272125
H     -1.924154   -0.420298   -1.243213
