15

C     -1.737600    0.869215    0.092327
C     -1.419166   -0.393850   -0.663053
N     -0.686624   -1.322045    0.168712
C      0.561332   -0.901438    0.686676
O      1.309064   -0.190611   -0.059753
C      2.570226    0.277640    0.364213
H      2.487778    1.132444    1.072269
H      3.059072    0.707459   -0.559319
H      3.229563   -0.524252    0.710870
H     -1.055133   -2.289885    0.394682
H     -0.723354   -0.092876   -1.494814
H     -2.291120   -0.861289   -1.139922
H     -0.783081    1.238146    0.523308
H     -2.101610    1.652717   -0.588764
H     -2.419348    0.698623    0.945668
