17

C     -2.081327   -0.186851   -0.166572
C     -0.743944    0.461861   -0.369521
H     -0.809752    1.393286   -0.974273
C      0.073503    0.687056    0.880518
H     -0.389441    0.292434    1.810595
H      0.404386    1.719938    1.038745
C      1.159525   -0.205361    0.355969
C      2.475998    0.521581    0.099717
H      2.258069    1.428391   -0.524156
O      1.393309   -1.340361    1.107708
H      2.300628   -1.695105    0.922659
C      0.347138   -0.439267   -0.905044
H      0.881512   -0.082095   -1.789305
H      0.066763   -1.501803   -1.011755
H     -2.148343   -1.118037   -0.784841
H     -2.887489    0.479664   -0.583488
H     -2.300534   -0.415331    0.893042
