14

C      2.409651   -0.927755    0.319085
C      1.234764   -0.400364    0.560112
N      0.498810    0.621391    1.328075
H      0.569324    1.385030    2.025555
C     -0.235428   -0.257430    0.387829
C     -0.746310    0.419533   -0.866517
C     -2.226152    0.430419   -0.812051
O     -2.815245   -0.611133   -0.645932
H     -2.737587    1.369178   -0.920108
H     -0.339753    1.455262   -0.972750
H     -0.433757   -0.240038   -1.714823
H     -0.935412   -0.931776    0.892327
H      3.298759   -0.573046    0.809282
H      2.458336   -1.739273   -0.390084
