9

N     -1.127134    0.740402   -0.002348
C      0.014243   -0.104115    0.020195
C      1.240004    0.331539   -0.110942
H      2.059366   -0.361787   -0.084697
H      1.442788    1.403974   -0.248387
C     -0.170584   -1.509549    0.195008
N     -0.335412   -2.638219    0.323885
H     -1.432649    1.145599   -0.922484
H     -1.690623    0.992155    0.829770
