12

N      2.748212    0.316950   -0.471842
C      1.903972   -0.077997   -0.118848
C      0.678242   -0.646778    0.389989
H      0.803318   -1.765859    0.584601
O      0.258635   -0.030130    1.546803
C     -0.652117    0.739638    1.384316
C     -1.110904    0.810118   -0.022838
H     -2.200547    0.796203   -0.035223
H     -0.660898    1.736070   -0.440980
C     -0.482318   -0.442209   -0.603299
H     -1.227366   -1.248915   -0.630900
H     -0.058230   -0.187091   -1.581780
