13

N      1.507342    2.224632    0.876470
C      1.379068    1.220034    0.375842
C      1.211422   -0.069689   -0.292691
H      2.054569   -0.441367   -0.907723
C     -0.126635   -0.178242   -1.054755
H     -0.162776   -0.599224   -2.067225
C      0.137309   -0.981601    0.148908
H      0.242783   -2.072650    0.150103
C     -1.023393   -0.304818    0.833308
H     -1.863335   -0.954767    1.116637
H     -0.686913    0.407567    1.604776
N     -1.311322    0.359511   -0.427692
H     -1.358119    1.390616   -0.355959
