11

C      1.770345   -0.350138    0.210869
O      0.384196   -0.461518    0.472162
C     -0.478753   -0.108212   -0.566656
C     -1.621691    0.512862   -0.375326
C     -2.050421    0.872828    0.996155
H     -1.926429   -0.060976    1.611463
H     -2.277869    0.779234   -1.188649
H     -0.225859   -0.341698   -1.591993
H      2.361562   -0.654044    1.097832
H      2.073983   -0.925611   -0.683562
H      1.990936    0.737272    0.017704
