19

C      2.928678    0.433915   -0.196092
C      1.492148    0.304831   -0.634798
C      0.788169   -0.564571    0.374295
C     -0.410739   -1.268233   -0.199502
C     -1.442995   -0.304848   -0.718157
C     -1.967014    0.618809    0.351072
O     -2.916051    1.452330   -0.285745
H     -2.375287    1.978724   -0.948698
H     -2.531196    0.089176    1.146636
H     -1.197843    1.300214    0.747207
H     -2.313712   -0.848253   -1.137874
H     -0.966564    0.330043   -1.490043
H     -0.087243   -1.897361   -1.049537
H     -0.818640   -1.954241    0.569172
H      0.422256    0.097261    1.185683
H      1.506876   -1.257340    0.791590
H      3.629338   -0.113791   -0.843256
H      3.183516    1.531618   -0.201833
H      3.076300    0.071715    0.835991
