14

O     -2.263140    0.715523    0.469813
C     -1.178140   -0.179256    0.303029
H     -1.485608   -1.218312    0.625840
C     -0.454387   -0.084765   -0.945903
H     -0.387710   -0.917194   -1.639487
N      0.720131    0.411767   -0.311270
C      1.909639   -0.322118   -0.379821
O      1.494532   -1.408560   -0.308336
H      2.976255   -0.212840   -0.469353
H      0.865612    1.272706   -0.868068
C      0.084394    0.324163    0.866161
H     -0.087600    1.273873    1.477630
H      0.468327   -0.460632    1.595632
H     -2.662304    0.805645   -0.415867
