11

C     -0.843720    0.670209    0.920566
C     -0.163783   -0.065418   -0.161282
C     -0.848344   -0.478580   -1.197380
H     -1.906326   -0.276482   -1.250169
H     -0.402221   -1.019839   -2.015110
C      1.238554   -0.314621   -0.056894
C      2.440109   -0.525414    0.053714
H      3.483131   -0.691885    0.140682
H     -0.684228    0.180800    1.922529
H     -0.388408    1.702384    0.934168
H     -1.924763    0.818845    0.709176
