12

N      2.722134    0.838748    1.439512
C      1.974119    0.270244    0.769581
C      0.999986   -0.438901   -0.081206
H      1.509850   -1.025111   -0.900187
O      0.091549   -1.192294    0.566814
C     -0.939303   -0.443105    0.131831
C     -1.789322    0.225049    1.203621
H     -2.790365    0.453129    0.766157
H     -1.581800   -1.079612   -0.564402
C     -0.043708    0.458804   -0.623155
H     -0.133001    0.434078   -1.735903
H     -0.020140    1.498972   -0.207850
