14

C     -1.643267   -0.195221    0.378890
C     -0.472709    0.239868   -0.479167
H     -0.835474    0.947727   -1.270579
N      0.470049    0.902382    0.350975
H      0.657792    1.902293    0.040903
C      1.703710    0.197971    0.296930
H      2.563837    0.852781   -0.002726
H      1.921711   -0.228016    1.330827
C      1.503244   -0.952422   -0.612196
N      0.163789   -0.893101   -1.065493
H     -0.316015   -1.798401   -0.787232
H     -2.433181   -0.623837   -0.241966
H     -1.279888   -0.985756    1.065910
H     -2.003599    0.633731    0.994923
