13

C     -1.845770    0.641537   -0.047045
C     -0.728795   -0.155033    0.308934
C      0.312391    0.211648    1.220570
C      1.342938   -0.259086    0.430918
N      2.275525    0.486341   -0.176724
H      2.155316    1.471696   -0.505645
H      3.256673    0.119036   -0.376893
O      0.872473   -1.597305    0.662360
N     -0.308451   -1.518430   -0.114651
H     -0.804150   -2.131123   -0.741346
H     -1.722302    1.679191    0.339079
H     -2.782163    0.267511    0.430398
H     -2.023684    0.784017   -1.145467
