13

O     -1.528263    1.695486    0.165896
C     -0.558553    0.722970    0.247952
H     -0.413039    0.392174    1.392902
C     -0.763699   -0.539472   -0.444194
H     -1.731009   -1.017661   -0.447936
H     -0.428455   -0.355186   -1.567833
C      0.314456   -1.518010   -0.007414
H      0.024706   -2.438186    0.296096
O      1.535832   -0.965665   -0.097663
C      1.814006    0.260394   -0.208661
H      2.796924    0.604117   -0.321206
O      0.761976    1.215353   -0.102988
H     -1.824882    1.943685    1.095047
