16

C     -2.103948    0.501136    0.767748
C     -1.127940    0.437116   -0.402483
H     -1.479149    1.057040   -1.249006
C      0.203550    0.957013   -0.009263
C      1.104753    0.020726   -0.074644
C      2.534250    0.252155    0.263425
H      2.645706    0.549101    1.339045
H      3.074492   -0.695567    0.064668
H      2.999996    1.023511   -0.394898
C      0.460818   -1.200155   -0.514320
H      0.985082   -2.140411   -0.654186
N     -0.892210   -0.923565   -0.706762
H     -1.326521   -1.300551   -1.548888
H     -2.928826   -0.226890    0.565394
H     -1.621461    0.184564    1.691005
H     -2.528594    1.504776    0.863166
