13

O     -1.874209   -0.290642   -0.962776
C     -1.827291   -0.087021    0.418832
H     -1.928385    0.976015    0.725224
H     -2.231348   -0.850506    1.100708
C     -0.637757   -0.498534   -0.370848
C      0.455179    0.522111   -0.517003
C      1.663938   -0.002816    0.240504
H      2.391868    0.803164    0.309373
H      1.314622   -0.247083    1.273756
H      2.022133   -0.939007   -0.197807
H      0.748274    0.654504   -1.577441
H      0.185765    1.497106   -0.110889
H     -0.282788   -1.537291   -0.331634
