13

C     -1.140770   -1.024257    0.196701
O      0.104988   -0.642068    0.715761
C      0.967095    0.179341   -0.000219
N      2.309322   -0.117799   -0.330879
H      2.544649   -0.556611   -1.246850
H      3.063068    0.109685    0.358362
N      0.372430    1.292963   -0.340847
C     -0.962497    1.522573    0.023259
O     -1.264913    1.500419    1.226207
H     -1.711188    1.713784   -0.703185
H     -1.924885   -1.227826    0.953227
H     -0.909497   -2.117930   -0.091724
H     -1.447800   -0.632274   -0.759813
