12

C      2.146899   -0.177881   -0.150203
C      0.806980   -0.148783   -0.088592
C     -0.032672    0.971401    0.300741
H      0.327493    1.953415    0.599205
C     -1.310045    0.637905    0.244509
H     -2.119771    1.288038    0.483068
C     -1.366174   -0.772068   -0.202071
H     -1.789271   -1.388804    0.642366
H     -1.996915   -0.859934   -1.113066
O     -0.051751   -1.195776   -0.388274
H      2.710998   -1.029402   -0.443260
H      2.674229    0.721888    0.115577
