15

C     -1.062535    1.356056    0.118861
C     -0.273573    0.100380    0.401355
C     -0.963036   -1.063154   -0.262017
H     -1.149179   -0.827580   -1.335877
H     -1.977063   -1.139246    0.209799
H     -0.432440   -2.016387   -0.114469
C      1.117368    0.270794   -0.088525
O      1.425562    1.362417   -0.633818
C      2.128553   -0.754290    0.031526
C      3.336651   -0.548980   -0.417667
H      1.877078   -1.683558    0.492448
H     -0.223441   -0.107287    1.490516
H     -0.583849    1.987918   -0.667559
H     -1.134129    1.962352    1.041757
H     -2.085969    1.100564   -0.266330
