12

O     -0.140528    2.300405    0.046572
C      0.056813    1.055495    0.080442
C      1.351950    0.390177    0.190916
H      1.659579    0.668138    1.315377
H      2.145004    0.629595   -0.477239
C      0.982886   -1.093115    0.127757
C     -0.363333   -1.246036   -0.305620
H     -0.988308   -2.136344   -0.066861
H     -0.345280   -1.174778   -1.447068
C     -1.053792    0.147367   -0.035745
H     -1.961683    0.354193   -0.565933
H     -1.343306    0.104903    1.137402
