12

N     -1.443001   -0.561264   -0.255091
C     -0.300242    0.045660    0.404654
H     -0.394243   -0.021261    1.514544
C      0.980970   -0.611632   -0.006403
H      0.726420   -1.351461   -0.815637
H      1.500265   -1.112544    0.836359
C      1.748973    0.494831   -0.593167
O      1.130697    1.575454   -0.568053
C     -0.105886    1.448289    0.001403
O     -0.945840    2.400705    0.152486
H     -1.064096   -1.052079   -1.109518
H     -1.834017   -1.254698    0.438423
