16

C      1.474256   -0.611142    0.657505
C      0.797494   -0.173846   -0.617408
H      1.450635   -0.329644   -1.519785
C     -0.652303   -0.312440   -0.789916
C     -1.569305   -0.666939    0.331326
H     -2.606200   -0.809706   -0.074327
H     -1.284276   -1.564603    0.889170
H     -1.679610    0.165447    1.080283
H     -0.999786   -0.641144   -1.810186
C     -0.017627    1.061753   -0.664744
C     -0.277479    1.857177    0.603202
H      0.425880    2.704108    0.627776
H     -0.098967    1.665646   -1.577997
H      2.318548    0.052482    0.942052
H      0.762801   -0.789349    1.488064
H      1.955939   -1.607797    0.434985
