11

O      2.480094    0.533535    0.809733
C      1.165079    0.457326    0.383807
N      0.512995   -0.747763    0.133228
H      0.413170   -1.237504    1.066010
H      1.015836   -1.364009   -0.552643
C     -0.807332   -0.399587   -0.280146
H     -1.598673   -0.847742    0.368388
H     -1.003421   -0.712189   -1.352773
C     -0.820897    1.072311   -0.234835
H     -1.650222    1.754115   -0.478823
O      0.293370    1.491508    0.138053
