15

C     -0.617611   -1.530703    0.370088
N     -0.490036   -0.416495   -0.544451
H     -0.219031   -0.822268   -1.485872
C     -1.608551    0.410833   -0.595361
C     -1.282906    1.635688   -0.223666
H     -1.962175    2.509829   -0.164083
C      0.127675    1.603998    0.086838
H      0.722773    2.456551    0.428674
C      0.584510    0.392145   -0.105163
N      1.901758   -0.110889    0.069492
H      2.497795    0.252965    0.823731
H      2.271104   -0.840502   -0.553465
H     -1.509298   -1.454662    1.022981
H     -0.674957   -2.495589   -0.173165
H      0.258949   -1.590902    1.043421
