11

C     -0.734622    0.616884    0.179887
H     -1.386052    1.142581   -0.544860
H     -0.805470    1.077735    1.200356
C      0.707309    0.599740   -0.228945
H      1.354511    1.126898    0.503961
H      0.835504    1.040772   -1.259800
C      1.027131   -0.841184   -0.269815
H      2.044583   -1.175814   -0.547110
O      0.055818   -1.559412    0.030865
C     -1.061383   -0.811284    0.322149
H     -2.037330   -1.216916    0.613312
