14

C     -2.051429    0.616055    0.577969
C     -1.197942   -0.355866   -0.175039
C      0.055656   -0.716508    0.518144
O     -0.020221   -1.551506    1.453500
C      1.363743   -0.198982    0.219075
N      1.957216    0.728771   -0.704853
C      2.780754    0.082694    0.211522
H      3.180881    0.541072    1.143056
H      3.518107   -0.646173   -0.222674
H     -1.836095   -1.251250   -0.383403
H     -0.924857    0.143236   -1.145396
H     -2.810123    1.011636   -0.150301
H     -1.396067    1.439925    0.939916
H     -2.619622    0.156895    1.419796
