19

C      2.396385   -0.647515   -0.956498
C      1.435700    0.260971   -1.064593
C      0.299285    0.228831   -0.105649
C      0.247880    1.440467    0.791963
H      1.164699    1.583019    1.387418
H     -0.606709    1.469325    1.462546
H      0.175403    2.334647    0.113719
C     -0.038519   -1.118880    0.419839
H      0.423576   -2.013099   -0.030835
H     -0.357999   -1.265519    1.465752
C     -0.965014   -0.378045   -0.538085
C     -2.291013   -0.032751    0.051061
H     -2.891996   -0.989449    0.083235
H     -2.255285    0.330332    1.079440
H     -2.886706    0.638371   -0.621723
H     -1.008876   -0.714631   -1.594723
H      1.534089    0.988212   -1.858983
H      3.251975   -0.690450   -1.612559
H      2.373124   -1.423836   -0.175218
