15

O      3.425399   -1.158034   -1.479288
C      2.441112   -1.085917   -0.698896
C      1.565091   -0.865671    0.236244
C      1.264192    0.485807    0.677655
C      0.118681    1.022407    0.302860
C     -0.782997    0.210946   -0.542438
C     -2.099488    0.051277    0.229389
H     -2.797700   -0.621635   -0.293784
H     -1.912840   -0.374016    1.233576
H     -2.605758    1.031333    0.355422
H     -1.052521    0.712730   -1.497630
H     -0.408025   -0.820926   -0.688660
H     -0.165712    2.043644    0.606144
H      1.970778    1.040969    1.304020
H      1.039787   -1.672915    0.708482
