16

C     -2.246364    0.341713   -0.770746
C     -0.880633    0.354806   -0.187219
N     -0.495113    1.375987    0.454134
H      0.409528    1.466159    0.879434
C     -0.039167   -0.839659   -0.379572
C      1.347843   -0.731701    0.186110
C      2.092038    0.381770   -0.464498
O      3.239059    0.671073   -0.177037
H      1.600841    0.968731   -1.230370
H      1.317441   -0.507167    1.292851
H      1.933033   -1.658170    0.002419
H     -0.527282   -1.718359    0.139564
H     -0.003610   -1.106716   -1.462595
H     -2.167715    0.022142   -1.820227
H     -2.857968   -0.357522   -0.152454
H     -2.721931    1.336914   -0.766915
