11

N      1.849086   -1.145905   -1.926706
C      1.585643   -0.370259   -1.109569
C      1.261930    0.623860   -0.097275
C      0.041696    0.680229    0.410869
C     -0.980918   -0.303291   -0.086996
O     -1.451422   -1.092532    0.986274
H     -1.716073   -0.490324    1.731818
H     -1.853675    0.282707   -0.446732
H     -0.564639   -0.933479   -0.873447
H     -0.199572    1.417736    1.162206
H      2.027945    1.331257    0.249558
