12

N     -0.525888   -0.294545   -0.411305
C     -1.855058    0.236606   -0.286608
H     -1.872478    1.338541   -0.231237
H     -2.516342   -0.059895   -1.115633
H     -2.319576   -0.142800    0.670174
C      0.520889    0.314876    0.333712
O      0.282631    1.296902    1.083668
C      1.897128   -0.262665    0.181982
H      1.861145   -1.376414    0.360373
H      2.265759   -0.093375   -0.852383
H      2.606821    0.163580    0.900567
H     -0.345030   -1.120812   -1.046900
