8

O     -2.631696    0.282277   -0.247057
C     -1.455583   -0.142748   -0.372825
C     -0.330290    0.470178    0.311078
C     -0.567019    1.507568    1.087231
C      1.017048    0.012897    0.190352
C      2.148983   -0.386519    0.073302
H      3.148697   -0.742333   -0.014379
H     -1.330141   -1.001319   -1.027703
