10

C     -0.990325    0.911202   -0.749739
H     -1.057901    1.805017   -1.355858
N     -0.124093   -0.021085   -0.246890
C      1.233397   -0.419534   -0.192474
C      2.062925   -0.230994    0.967981
N      2.731201   -0.089063    1.902031
H      1.641919   -0.881387   -1.068333
C     -1.515008   -0.158024    0.073754
H     -1.845937    0.001285    1.120914
H     -2.136178   -0.917417   -0.451384
