14

C      1.467882   -0.284617    0.554420
C      0.541929   -0.278776   -0.712191
H      1.136879   -0.296560   -1.600695
O     -0.347379   -1.357802   -0.548516
C     -1.426134   -0.884256    0.157925
H     -2.225059   -1.546573    0.521294
C     -1.477972    0.362159    0.372554
H     -2.021463    1.014781    0.803626
C     -0.302142    0.952532   -0.530249
H      0.196800    1.762085    0.036724
H     -0.600366    1.330308   -1.539968
H      2.090432    0.621264    0.476221
H      0.816232   -0.244230    1.451055
H      2.150362   -1.150316    0.557800
