18

C     -1.639521    0.383470   -1.058638
C     -0.610651   -0.348984   -0.192169
C     -1.345620   -0.912091    0.986962
H     -1.619963   -1.988628    0.792354
H     -2.323018   -0.377512    1.140356
H     -0.798724   -0.857834    1.932118
C      0.476948    0.620822    0.192821
H      0.215174    1.696774    0.100199
C      1.610894    0.266741    1.009847
H      2.143523    1.079676    1.545543
H      1.779101   -0.728945    1.453605
C      1.825776    0.339058   -0.472200
N      2.591294    0.231674   -1.466629
H      3.601542   -0.029869   -1.371524
H     -0.221605   -1.196141   -0.793719
H     -1.567030    0.085789   -2.110350
H     -2.665650    0.242033   -0.684194
H     -1.452470    1.493965   -1.004381
