13

C      2.155813    0.738359   -0.139284
H      2.243781    1.236014   -1.122252
H      2.363546    1.403569    0.716136
C      2.074814   -0.706836   -0.006653
H      2.625720   -1.643208    0.037186
C      0.904630   -0.049754    0.017222
N     -0.517573   -0.179311    0.127796
C     -1.759226   -0.673627    0.614434
H     -2.163704   -0.357785    1.597831
H     -2.155106   -1.664393    0.281172
C     -1.783634    0.378309   -0.462378
H     -2.035087    1.406849   -0.149309
H     -1.953973    0.111813   -1.511900
