12

N      2.418149    0.017732    0.348061
C      1.225555    0.107789   -0.401212
O      1.297498    0.325412   -1.658411
N     -0.028265   -0.044121    0.250886
C     -1.232224    0.041100   -0.472356
C     -2.388198   -0.098017    0.123376
H     -2.491181   -0.285513    1.198939
H     -3.327554   -0.034776   -0.421990
H     -1.204000    0.221634   -1.521202
H      0.006639   -0.221868    1.295495
H      2.472777    0.423525    1.296247
H      3.250803   -0.452897   -0.037834
