11

C     -0.086716    0.030054   -0.674990
H     -0.160432   -0.022923   -1.801724
C     -1.041098   -0.771986    0.097491
H     -1.970144   -1.062066   -0.194779
C     -0.617532    0.690831    0.357166
H     -1.238153    1.574832    0.274119
N      0.754841    0.759495    0.907743
H      1.247936    1.542537    0.477537
C      1.023489   -0.514151    0.039442
H      1.992650   -0.666346   -0.188858
C      0.095158   -1.560277    0.706854
