13

C     -1.305502   -0.726446   -0.091222
C     -0.153813    0.182441    0.382289
H     -0.370565    0.439196    1.449255
C      1.188900   -0.510882    0.275989
H      1.274882   -1.279929   -0.465501
H      1.456262   -0.876194    1.242644
N      2.052448    0.607876   -0.128444
C      1.281230    1.362442   -0.818962
C      0.043042    1.379551   -0.443586
H     -0.684160    2.122968   -0.781787
H     -0.992569   -1.287285   -0.940250
H     -2.121996   -0.081817   -0.410665
H     -1.668157   -1.331921    0.730238
