16

C     -1.283708    0.472079    0.379720
H     -1.994268    0.539485   -0.482115
H     -1.166566    1.455612    0.900375
C     -0.030452   -0.213900    0.019507
C     -0.037062   -0.756181   -1.400432
H      0.155486    0.040970   -2.126928
H     -1.055238   -1.194760   -1.546982
H      0.707360   -1.582189   -1.434043
C      1.159838    0.684249    0.310710
O      2.337961   -0.006464    0.449507
H      3.067906    0.561980    0.099728
H      0.922937    1.318715    1.187537
H      1.247402    1.367382   -0.562986
N     -0.355992   -1.171718    0.928293
C     -1.422935   -0.644248    1.275515
H     -2.252669   -0.871011    2.002594
