10

O      2.385039   -0.544998    0.346204
O      1.139425   -0.392913   -0.039481
C      0.382027    0.742504    0.052813
C     -0.930794    0.623716    0.051824
C     -1.627565   -0.640151   -0.041323
O     -1.012276   -1.723084   -0.128676
H     -2.706268   -0.662807   -0.036355
H     -1.490614    1.555646    0.127185
H      0.907060    1.689544    0.122594
H      2.953965   -0.647457   -0.454786
