8

O      2.311370   -0.231723   -0.569537
C      1.226273    0.279225   -0.195275
C     -0.006807   -0.501672   -0.131838
C      0.019689   -1.784154   -0.478518
C     -1.251499    0.112463    0.304922
O     -1.324845    1.314247    0.640449
H     -2.134844   -0.503022    0.335463
H      1.160663    1.314636    0.094335
