13

C     -1.995196    0.754155    0.547403
C     -1.030406    0.214527   -0.170582
C     -0.210096   -0.939019    0.277215
H     -0.655353   -1.934381    0.190712
C      1.267235   -0.774007   -0.027388
C      1.758284    0.549565   -0.498016
O      2.677294    0.571619   -1.300448
H      1.280279    1.442966   -0.109522
H      1.748577   -1.682918   -0.418375
O      0.744698   -0.773846    1.260702
H     -0.798218    0.614216   -1.150047
H     -2.244150    0.362236    1.541781
H     -2.542950    1.594886    0.141052
