13

C     -1.331791    0.862873    0.165154
C     -0.955028   -0.478783   -0.441934
C      0.321898   -0.993997    0.232323
H      0.447053   -2.088476    0.334812
C      1.481280   -0.188439    0.127767
O      2.585510    0.382858   -0.475945
H      3.418878    0.656819   -0.011963
N      0.833105   -0.204744    1.302991
H     -0.698241   -0.331512   -1.516570
H     -1.787016   -1.202353   -0.313784
H     -0.549035    1.225150    0.846837
H     -2.316874    0.750833    0.681684
H     -1.449739    1.609770   -0.646885
