11

C      1.789988    0.268443   -0.246426
N      0.479458    0.193229   -0.158915
C     -0.273349   -0.766496    0.609009
H     -0.027745   -1.789542    0.242423
H     -0.036156   -0.717084    1.695917
N     -1.646223   -0.425329    0.371860
C     -1.738934    0.580981   -0.414075
H     -2.674759    1.042585   -0.755074
N     -0.445401    1.021715   -0.787420
H      2.192265    1.040255   -0.859553
H      2.380858   -0.448757    0.302254
