13

O     -1.295957    1.387820    0.316064
C     -0.960760    0.046219    0.744734
H     -1.630924   -0.327728    1.456383
C     -0.617377   -0.721571   -0.509788
H     -1.001239   -0.397136   -1.443845
H     -1.024179   -1.808679   -0.272109
N      0.779866   -0.745411   -0.231660
H      1.318375   -1.563522   -0.229382
C      1.434483    0.562241    0.007989
H      1.059954    1.510045   -0.391282
H      2.526224    0.476224    0.168670
C      0.534404    0.031165    1.039178
H     -1.122870    1.550332   -0.654952
