15

C      2.489399    0.820526   -0.313758
N      1.125952    0.391825   -0.255049
C      0.777545   -0.695146    0.324105
C     -0.649105   -1.152636    0.390683
H     -0.876633   -1.859854    1.195576
C     -1.704195   -0.143263    0.150339
N     -2.503875    0.995838    0.462890
H     -2.144197    1.936497    0.189036
H     -3.406855    0.893158    0.943207
C     -1.473553   -1.136205   -0.818571
H     -1.786193   -1.507996   -1.777116
H      1.561617   -1.290874    0.776497
H      2.582898    1.930952   -0.302748
H      3.034269    0.344427   -1.145023
H      2.972927    0.472750    0.633029
