15

C      1.734644   -0.466250   -0.096917
C      0.550302    0.243262    0.469122
N     -0.647690    0.166844   -0.428015
C     -1.443040    1.239701    0.041584
H     -1.355115    2.183333   -0.527395
H     -1.415209    1.369535    1.127966
C     -1.348214   -1.012233   -0.385564
O     -1.216965   -1.254987    0.756708
H     -1.920990   -1.747091   -0.919587
H     -0.171027    0.196279   -1.265835
H      0.310638   -0.241588    1.438995
H      0.808793    1.277130    0.671804
H      1.806509   -1.537825    0.252026
H      2.689914    0.067761    0.082754
H      1.617450   -0.483872   -1.217646
