13

O     -0.063181   -1.252767   -0.618958
C     -0.372320    0.032836   -0.156990
C     -1.861063    0.015720    0.149225
H     -2.069774   -0.765980    0.888480
H     -2.388642   -0.093215   -0.807367
H     -2.159550    0.988196    0.583874
C      0.341381    0.323479    1.077752
O      1.546061    0.509346    1.146077
C      2.423005    0.478704    0.098046
O      2.035340    0.245686   -1.069688
H      3.499231    0.653035    0.213861
H     -0.213309    0.779891   -0.944727
H     -0.717180   -1.914933   -0.275099
