10

N      1.852453    0.227896    0.722426
C      0.717876   -0.336876    0.088886
N      0.238926   -0.977799   -1.000640
C     -0.724590   -0.685989    0.036876
C     -1.641651    0.469945   -0.169756
O     -1.330815    1.392984   -0.903925
H     -2.583318    0.503322    0.323638
H     -1.074787   -1.475273    0.710723
H      1.813020    1.196693    1.119846
H      2.732886   -0.314903    0.797746
