9

C      1.336759   -0.134331   -0.273760
O      2.150246   -0.432389    0.571602
C     -0.101366   -0.367556   -0.002568
H     -0.361457   -0.814363    0.986362
C     -1.061141    0.433755   -0.714767
H     -1.980547    0.767963   -0.196690
H     -0.716030    1.156959   -1.488079
O     -0.888787   -0.905354   -1.029755
H      1.622323    0.295316   -1.218002
