14

C     -1.048541   -1.301393    0.456159
C     -0.216735   -0.124574    0.068087
N     -0.561386    1.094660    0.741468
O     -1.919907    1.203427    0.747362
H     -2.160553    1.700256   -0.065937
H     -0.143805    1.882768    0.171809
C      1.253290   -0.388731    0.039876
H      1.515104   -1.472331   -0.057260
C      2.177622    0.620586   -0.307609
H      2.822557    1.350378   -0.751230
O      2.012629    0.278042    1.032385
H     -0.668434   -1.814066    1.374096
H     -0.974371   -2.054581   -0.354796
H     -2.087470   -0.974441    0.606903
