8

C      1.862815    1.220781    1.195301
C      1.179060    0.210517    1.039040
N      0.388602   -0.935401    0.882017
C     -0.572670   -0.968222    0.025277
C     -1.521758   -0.628510   -0.802876
H     -1.345970   -0.766975   -1.848443
H     -2.454858   -0.217765   -0.480381
H      2.464779    2.085575    1.318900
