9

C     -1.677422   -0.026042   -0.265409
C     -0.712321   -0.299536    0.572461
C      0.663198    0.047781    0.292133
C      1.863862    0.195698   -0.224420
O      2.767452    0.937727    0.491296
H      2.166133   -0.226871   -1.159659
H     -0.939337   -0.798008    1.501191
H     -1.453257    0.468081   -1.186299
H     -2.678309   -0.298830   -0.021294
