14

C      2.368339    0.055614   -0.066685
C      1.248844   -0.891003   -0.172852
C     -0.002636   -0.495762   -0.070293
C     -1.230993   -1.200761   -0.135993
H     -1.510086   -2.270678   -0.289484
C     -1.978137    0.038019    0.078035
H     -2.530683   -0.039030    1.049315
H     -2.630654    0.354812   -0.771018
C     -0.684081    0.754187    0.143081
H     -0.474995    1.294673    1.101823
H     -0.578393    1.440024   -0.748709
H      2.443140    0.706651   -0.985054
H      2.246041    0.760022    0.778348
H      3.314293   -0.506769    0.089488
