16

C     -2.183036   -0.769474   -0.504571
N     -0.892623   -0.601378    0.096484
C     -0.298631    0.690622   -0.133767
H     -0.876955    1.601788    0.121755
C      1.148792    0.681833    0.351716
H      1.511422    1.472823    1.013841
C      2.016077   -0.480348   -0.030402
H      1.632881   -1.486744    0.264047
H      3.063493   -0.326730    0.175862
C      1.667176   -0.275871   -1.499772
C      0.833102    0.900848   -1.075740
H      0.988930    1.888072   -1.491461
H     -1.028044   -0.706637    1.143153
H     -2.843173    0.098810   -0.456561
H     -2.676131   -1.617971    0.027098
H     -2.063279   -1.069642   -1.574353
