14

C      0.139572    1.414824    0.135072
C      0.160589    0.078712   -0.602608
O      1.443856   -0.406840   -0.587239
C      1.957449   -0.707215    0.469546
H      2.974773   -1.089759    0.458133
C     -0.796354   -0.830820    0.150778
O     -2.058357   -0.239988    0.067599
H     -2.695839   -0.827707   -0.430057
H     -0.811655   -1.856180   -0.241190
H     -0.508258   -0.869729    1.237447
H     -0.202799    0.226062   -1.619936
H      0.449135    2.243215   -0.524089
H     -0.888321    1.570070    0.496680
H      0.836210    1.295357    0.989863
