12

O      2.221385    0.840443    0.240325
C      1.301336   -0.144512    0.479683
C      0.033103   -0.049939    0.116570
C     -0.910753    0.829039   -0.539547
H     -1.139171    1.786793   -0.020837
H     -0.640196    0.987045   -1.626217
O     -1.931472   -0.064542   -0.368974
C     -1.105165   -0.947991    0.259787
H     -1.390954   -1.194571    1.324833
H     -0.911758   -1.884431   -0.312022
H      1.611794   -1.039113    0.984442
H      2.861853    0.881780   -0.538043
