17

C      2.417812    0.266680   -0.375142
C      1.324655   -0.728825   -0.305901
C      0.066644   -0.356401   -0.061241
C     -0.356521    1.041285    0.159346
H     -0.104207    1.698697   -0.697559
H      0.081967    1.480350    1.082463
C     -1.804453    0.923667    0.381564
H     -2.441142    1.804366    0.580612
C     -2.241362   -0.306791    0.318756
H     -3.302163   -0.648117    0.453829
C     -1.127029   -1.215510    0.039128
H     -1.285894   -1.809124   -0.904123
H     -0.951930   -1.937952    0.862474
H      1.546558   -1.765035   -0.454529
H      2.786075    0.400340   -1.406057
H      3.296504   -0.079195    0.229459
H      2.094487    1.231566    0.096920
