15

C     -1.415316   -1.446139   -0.647908
C     -0.527872   -0.221885   -0.803984
C     -0.532966    0.611759    0.476160
C      0.328479    1.769825    0.278629
O      1.532673    1.878526    0.480946
C      2.404371    0.947060    0.947435
O      2.032093   -0.217069    1.243070
H      3.442939    1.177207    1.078706
H     -0.295653   -0.029686    1.321586
H     -1.589966    0.971910    0.596461
H      0.491589   -0.600110   -1.002120
H     -0.917252    0.364725   -1.652224
H     -1.295386   -1.851783    0.368089
H     -1.164620   -2.168818   -1.446255
H     -2.493111   -1.185520   -0.785493
