17

C      2.118881    0.300321   -0.018890
C      0.827307   -0.053089    0.703298
H      1.021015   -0.809125    1.489088
O      0.211018    1.087131    1.194110
C     -0.900626    0.906374    0.415952
C     -1.146495    2.014724   -0.589718
H     -2.134799    2.490687   -0.428971
H     -1.800896    0.755060    1.043201
C     -0.334458   -0.336163   -0.179984
C     -1.130834   -1.572493    0.129314
H     -2.143982   -1.262596    0.471057
H     -0.616466   -2.140811    0.932877
H     -1.283657   -2.198172   -0.777405
H     -0.100718   -0.284852   -1.263041
H      2.027102    0.168898   -1.113105
H      2.435883    1.315335    0.274239
H      2.951724   -0.381229    0.314719
