12

C      2.393665    0.573118    0.193686
N      1.211807   -0.039384   -0.395938
C      0.332194   -0.667915    0.305950
N     -0.777416   -1.222838   -0.380627
C     -1.955038   -0.718503   -0.246708
C     -2.958148    0.027769    0.115177
H     -3.543875   -0.281143    0.956305
H     -3.210663    0.933529   -0.396114
H      0.504256   -0.726789    1.369787
H      2.756602   -0.114741    1.011996
H      2.062950    1.527381    0.663046
H      3.183667    0.709516   -0.548791
