13

C      0.787810   -0.514878   -0.603468
C      1.837304    0.385345    0.002341
O      2.681522   -0.147403    0.724841
H      1.878485    1.443627   -0.166652
C     -0.475558   -0.505343    0.231866
H     -0.540569   -1.307236    0.991707
C     -1.204276    0.777779    0.432076
H     -1.720088    0.850685    1.409805
H     -0.805638    1.722660    0.018600
N     -1.672678   -0.226657   -0.518989
H     -2.537577   -0.752059   -0.232816
H      1.176430   -1.547384   -0.641804
H      0.594833   -0.179136   -1.647507
