13

C     -2.267760    0.360630    0.440507
C     -1.200209   -0.583174    0.078143
O      0.105502   -0.341251    0.424218
C      1.012220   -0.169162   -0.427956
C      2.414522    0.090552   -0.032302
H      3.046631    0.109338   -0.948453
H      2.817220   -0.735735    0.602707
H      2.521703    1.083948    0.471340
H      0.728783   -0.218028   -1.474285
H     -1.441021   -1.470045   -0.461795
H     -1.965603    1.062796    1.256602
H     -3.183963   -0.184430    0.788182
H     -2.588027    0.994560   -0.432422
