13

C     -1.584214   -0.471846    0.334867
C     -0.362064    0.268118   -0.177923
O      0.638589   -0.626475   -0.523049
C      1.782546   -0.382802    0.247913
H      2.569473   -1.120086   -0.054660
H      2.129657    0.644774    0.041996
H      1.586820   -0.500642    1.323233
C     -0.818815    1.058808   -1.393377
H     -0.231227    1.982728   -1.522514
H     -0.025615    0.968492    0.627315
H     -2.247868    0.315872    0.779639
H     -1.283725   -1.206997    1.105846
H     -2.153558   -0.929944   -0.504800
