13

N      1.656586    0.389265   -0.685009
C      0.675582   -0.383524    0.030306
C     -0.718951    0.071271   -0.213971
N     -1.619982   -0.771775    0.551214
H     -1.170628   -1.712226    0.611898
H     -1.664995   -0.372678    1.514024
N     -0.902259    1.402443    0.180367
C     -1.035084    2.513477    0.512784
H     -1.008450   -0.025955   -1.290362
H      0.773842   -1.453944   -0.275298
H      0.891285   -0.276856    1.112403
H      2.602041    0.188913   -0.351063
H      1.521013    0.431589   -1.697293
