10

C     -1.422312    0.010114    0.128143
C     -0.004185    0.445599    0.056891
C      0.933081   -0.470266    0.058965
O      2.250023   -0.055554   -0.007625
H      2.690149    0.313403   -0.831441
H      0.655938   -1.502898    0.111592
H      0.183024    1.498683    0.006813
H     -1.540313   -1.079739   -0.074658
H     -1.763756    0.228757    1.169204
H     -1.981650    0.611903   -0.617884
