14

C     -1.492779   -0.043384   -0.932047
O     -2.584616    0.353152   -1.260451
C     -0.977425    0.247474    0.411134
H     -1.635869    0.831112    1.069383
C     -0.138050   -0.778938    1.078098
H      0.018854   -1.741384    0.542644
H     -0.110158   -0.884746    2.177303
C      0.477220    0.476292    0.550502
C      1.412140    0.266061   -0.622791
H      1.162662   -0.624887   -1.215735
H      2.424220    0.071020   -0.169419
H      1.518563    1.181292   -1.226945
H      0.802831    1.270192    1.231311
H     -0.877594   -0.623255   -1.632987
