15

C      2.041917   -0.581557    0.230219
C      0.865788   -0.256914   -0.095152
C      0.323939    1.174629   -0.098398
H      0.891545    1.842099    0.541477
H      0.364780    1.499917   -1.132157
C     -1.087224    0.932667    0.296565
H     -1.810662    1.619596    0.631709
C     -1.476925   -0.185365   -0.681783
H     -2.157974   -0.161642   -1.469728
C     -0.275211   -1.100008   -0.493581
H     -0.250617   -2.139134   -0.732139
C     -1.247994   -0.569733    0.631298
H     -1.529587   -1.014331    1.508291
H      2.633690   -1.412988    0.299712
H      2.714536    0.352763    0.563668
