10

N     -0.500552    1.557866    0.371718
C      0.009832    0.264577    0.201492
C      0.217881   -0.420717   -1.022971
C      0.410720   -0.985256   -2.041995
H      0.571919   -1.511830   -2.997391
C      0.346159   -0.391624    1.292304
N      0.589842   -1.014092    2.381435
H     -0.219511   -1.586253    2.713599
H     -0.137411    2.225391    1.066196
H     -1.288879    1.861939   -0.238568
