16

C      1.864438    0.427130   -0.400142
C      0.605966    0.892648    0.204491
C     -0.610564    0.147104   -0.172656
C     -0.813852   -1.297900    0.078988
C     -0.739923   -1.581438    1.533722
N     -0.665959   -1.790004    2.658199
H     -0.132125   -1.950786   -0.466848
H     -1.851170   -1.547901   -0.205392
C     -1.578324    0.817337   -0.773754
H     -1.481952    1.881634   -0.983451
H     -2.477032    0.279388   -1.055418
H      0.437030    1.965349    0.002529
H      0.701121    0.778918    1.325609
H      2.170747    1.109134   -1.239231
H      1.851465   -0.586891   -0.827845
H      2.720133    0.456279    0.321198
