10

N     -1.932894   -0.508595   -0.325359
C     -0.663490   -0.254563   -0.150015
C     -0.111641    0.962610    0.499371
H     -0.476461    1.046629    1.537118
H     -0.391360    1.872181   -0.093082
O      1.284981    0.724844    0.424400
C      1.528651   -0.477692   -0.189963
H      2.512835   -0.884639   -0.366758
N      0.436700   -1.069873   -0.534303
H     -2.187320   -1.410901   -0.801410
