9

O     -1.709746    1.507958   -0.070557
C     -0.715164    0.546069   -0.248546
C     -0.944280   -0.811389   -0.235420
H     -1.908341   -1.280523   -0.087646
O      0.231622   -1.345066   -0.435195
C      1.161345   -0.443759   -0.569793
H      2.215167   -0.615468   -0.743422
N      0.590254    0.756438   -0.456161
H      1.079143    1.685740   -0.518919
