12

N     -1.999837   -0.470772   -0.270000
C     -0.753574   -0.334500    0.451573
H     -0.794676   -0.870132    1.434023
C     -0.408775    1.066810    0.734904
N      0.738330    1.309060    0.221771
H      1.242732    2.247766    0.270240
C      1.216845    0.133533   -0.412749
O      2.441545    0.004868   -1.088157
H      2.948134   -0.886308   -1.107439
N      0.373024   -0.822678   -0.291534
H     -2.286847   -1.475917   -0.172748
H     -2.716899    0.098270    0.230116
