11

C     -1.590948   -0.247423    0.085637
C     -0.240767    0.072765   -0.537248
C      0.890233    0.497127    0.351690
C      2.022693   -0.292365   -0.079712
N      2.981784   -0.936353   -0.447280
H      0.673152    0.316954    1.416176
H      1.082101    1.606017    0.195278
O     -0.116048   -0.010267   -1.704579
H     -1.428033   -0.316184    1.168795
H     -1.964132   -1.248593   -0.296166
H     -2.310034    0.558322   -0.152591
