12

N      2.236277    0.292517    0.142535
C      0.891407    0.020137   -0.230858
O      0.615845   -0.591705   -1.465803
H      0.053189   -1.432999   -1.519701
C     -0.143238    0.312378    0.527297
C     -1.493215    0.009083    0.090206
N     -2.540593    0.269396    0.783637
H     -3.511296    0.077183    0.523248
H     -1.623536   -0.459496   -0.867229
H     -0.015505    0.778683    1.480356
H      2.567384    1.123953    0.670886
H      2.963280   -0.399129   -0.134574
