12

C     -1.568499    0.475943   -0.135943
C     -0.673087   -0.530301    0.453948
C     -1.043072   -1.259133    1.500307
C      0.670329   -0.758149   -0.106015
H      0.846217   -1.602514   -0.807316
C      1.669270    0.355218   -0.150978
H      2.506277    0.257606   -0.874498
H      1.250440    1.358572    0.027831
O      1.716916   -0.564983    0.875233
H     -2.136541    0.108702   -1.011555
H     -0.954329    1.364882   -0.412964
H     -2.283922    0.794157    0.641951
