16

C      2.349310    0.361227   -0.383901
C      1.194724   -0.401522   -0.988683
C      0.032079   -0.382277    0.009266
H      0.181625   -0.971823    0.915761
O     -0.341446    1.017363    0.252600
C     -1.213706    0.153754   -0.447034
C     -2.514859   -0.075844    0.279861
H     -2.681702   -1.159506    0.426140
H     -3.337831    0.359966   -0.312463
H     -2.549514    0.422233    1.273308
H     -1.306285    0.422252   -1.533368
H      1.453335   -1.455609   -1.221389
H      0.900048    0.063843   -1.948786
H      3.221966    0.229375   -1.036879
H      2.533102   -0.018552    0.649467
H      2.079154    1.435119   -0.391022
