17

C     -1.667268   -1.102427   -0.258556
C     -0.727133   -0.534302    0.756507
H     -0.839854   -0.977390    1.788624
C     -0.122919    0.776073    0.655150
C     -0.452562    1.758606   -0.443620
H     -1.538303    1.946413   -0.520184
H      0.047003    2.727594   -0.264445
H     -0.029636    1.368940   -1.404788
H      0.260333    1.244967    1.589875
C      0.702709   -0.420724    0.263152
C      1.825712   -0.975292   -0.178963
C      2.955903   -0.062043   -0.499046
H      3.481578    0.148488    0.460271
H      1.919381   -2.047179   -0.302888
H     -1.141126   -1.567954   -1.133802
H     -2.294092   -1.925026    0.170212
H     -2.379727   -0.358745   -0.677500
