15

C     -0.930040    1.744584    0.046041
C     -0.100157    0.675898    0.733428
H      0.055028    0.863004    1.799612
N     -0.438390   -0.681895    0.290557
C     -1.426612   -1.705391    0.263587
H     -1.152497   -2.718417    0.519414
H     -2.456518   -1.513962   -0.005430
C      0.750043   -0.208967   -0.003244
C      2.027724   -0.542869   -0.681672
H      1.912382   -1.299173   -1.468940
H      2.782272   -0.934309    0.037028
H      2.409956    0.396819   -1.165700
H     -0.866243    2.720349    0.549534
H     -0.580545    1.792997   -1.020988
H     -1.986404    1.411332    0.106773
