14

O      3.474760    0.241713    1.143943
C      2.145560    0.635257    1.195562
C      1.234117    0.231752    0.374515
C      0.424425   -0.386576   -0.685398
C     -0.893875   -0.768674   -0.059097
C     -1.637411    0.398762    0.504984
H     -0.999501    1.197916    0.903498
H     -2.300951    0.057313    1.343794
H     -2.334968    0.818759   -0.264355
H     -0.662407   -1.497538    0.749051
H     -1.516908   -1.208379   -0.868253
H      0.309470    0.281003   -1.557249
H      0.883330   -1.326360   -1.061002
H      1.874360    1.325052    1.981319
