15

C     -1.250615    0.835883    0.889199
C     -0.307027    0.229378   -0.118828
N     -0.580185    0.894555   -1.395294
H      0.225027    0.677494   -2.047666
H     -1.481364    0.529742   -1.765246
N     -0.513003   -1.170431   -0.312812
C      0.576480   -1.819993   -0.087026
H      0.717119   -2.898771   -0.156744
C      1.618293   -0.871285    0.284883
H      2.664172   -1.107762    0.540109
C      1.097254    0.341699    0.266565
H      1.661628    1.263661    0.508583
H     -0.746142    1.746454    1.317260
H     -1.507696    0.162088    1.714572
H     -2.173941    1.187288    0.362444
