14

C     -2.019260    0.271009    0.359784
C     -0.687534   -0.428958    0.111212
C      0.399932    0.547236    0.498996
H      0.144196    1.305338    1.274818
C      1.765622    0.127932    0.357926
C      2.126903   -1.173053   -0.329414
H      2.999427   -1.606759    0.219188
H      2.597668    0.656508    0.856874
O      1.115482    1.056883   -0.601192
H     -0.665041   -1.361722    0.694240
H     -0.657228   -0.694470   -0.958304
H     -2.833742   -0.490866    0.452204
H     -2.295041    0.904803   -0.514920
H     -1.991384    0.886119    1.279900
