16

C      2.506396    0.254181    0.036249
C      1.407081   -0.656083   -0.471598
C      0.092947    0.093715   -0.398957
O     -0.972099   -0.715936   -0.864222
C     -2.284136   -0.277931   -0.906736
C     -2.909954    0.271641    0.100631
H     -3.935096    0.587213   -0.013020
H     -2.451358    0.435315    1.071109
H     -2.802555   -0.410429   -1.845334
H     -0.118516    0.352239    0.657405
H      0.205673    1.017816   -0.984918
H      1.374901   -1.553139    0.190152
H      1.664671   -0.915325   -1.513200
H      2.424275    1.240700   -0.504038
H      2.312458    0.499750    1.105659
H      3.485312   -0.223728   -0.116304
