13

N     -1.457275    1.784158   -0.445839
C     -1.394381    0.559516   -0.130368
O     -2.303277   -0.363010    0.351427
C     -1.323982   -1.352545    0.369281
H     -1.314807   -2.404479    0.651710
C     -0.408180   -0.517966   -0.090461
N      0.960495   -0.644111   -0.405706
C      1.889442    0.299031    0.184747
H      2.224532   -0.038946    1.198240
H      1.359018    1.278933    0.227706
H      2.763942    0.401473   -0.488055
H      1.340959   -1.379297   -1.040768
H     -2.336487    2.377243   -0.381913
