13

C      1.951867   -0.621726    0.029073
C      1.020596    0.115610   -0.568889
C      0.058153    0.841558    0.264430
H      0.489982    1.545798    0.978558
N     -1.245952    1.193234   -0.229144
H     -1.509360    1.058446   -1.212118
C     -1.174766    0.041197    0.641477
C     -1.414050   -1.273154   -0.034030
H     -2.433113   -1.296521   -0.466863
H     -1.438814    0.106931    1.696748
H      0.992342    0.164198   -1.641631
H      2.685801   -1.176191   -0.571512
H      2.017315   -0.699381    1.113901
