9

C      0.083820   -0.007588    0.029828
C     -1.103294   -0.376094   -0.366636
O     -2.220451    0.131757    0.279745
H     -2.174245    0.967978    0.815262
H     -1.182555   -1.075799   -1.198433
C      1.556753   -0.054439   -0.079568
H      2.081138    0.512667   -0.847406
H      2.117331   -0.856061    0.452132
O      0.841502    0.757579    0.915076
