12

C      2.254038    0.817933    0.105754
O      0.921492    0.509033    0.001025
C      0.446905   -0.628233    0.257705
C     -1.009296   -0.859755    0.112923
H     -1.379666   -1.872767    0.349095
C     -1.890302    0.329818    0.385098
H     -2.877939    0.131883    0.852237
H     -1.415129    1.286654    0.633421
O     -1.698925   -0.192642   -0.890940
H      1.107606   -1.411063    0.577486
H      2.811412    0.550673    0.976413
H      2.729802    1.338467   -0.712446
