10

C      1.283298    0.895931    0.016950
C      1.410938   -0.387055    0.109443
H      2.417894   -0.815240    0.190529
N      0.299064   -1.252527    0.099800
C     -1.054687   -0.767721   -0.012903
H     -1.633100   -1.050708    0.892517
H     -1.482999   -1.227430   -0.949089
N     -1.085976    0.677540   -0.103489
C     -0.044352    1.423005   -0.089170
H     -0.110081    2.504205   -0.154587
