14

C     -1.641552    0.401563   -0.133495
C     -1.376599   -1.031628    0.226098
O     -0.455890   -1.055822    1.297546
C      0.784975   -0.480369    1.094533
O      1.020008    0.028652   -0.027341
C      2.304422    0.612410   -0.205335
H      2.957879   -0.006594   -0.859471
H      2.836567    0.747827    0.754007
H      2.126850    1.615943   -0.663100
H     -2.317295   -1.531117    0.594365
H     -1.022813   -1.645784   -0.629644
H     -1.518991    0.564222   -1.227053
H     -1.000587    1.121628    0.420938
H     -2.696974    0.659070    0.167822
