12

O      2.038432    0.268932    1.983905
C      1.613598    0.202011    0.860304
C      0.255238    0.691543    0.533811
H     -0.334245    1.115722    1.375531
C      0.159522    1.317567   -0.804368
H      0.407307    2.107928   -1.506646
N     -0.514329    0.096494   -0.498809
C     -1.272291   -0.844231   -0.902979
O     -1.649267   -1.905543   -0.078433
H     -1.268265   -1.973703    0.864539
H     -1.656168   -0.859911   -1.903953
H      2.220467   -0.216810    0.077099
