11

O      2.319855    0.676656   -0.123255
C      1.463798   -0.405347    0.077418
C      0.142431   -0.227546    0.001805
C     -1.203561   -0.812064    0.084446
H     -1.503571   -1.469380   -0.769258
H     -1.659834   -1.018064    1.080867
C     -1.029588    0.639303   -0.213125
H     -1.186814    1.395261    0.588190
H     -1.292354    1.010379   -1.211290
H      1.899309   -1.346590    0.286403
H      2.050330    1.557392    0.293629
