12

N     -2.247882    0.367202    0.029072
N     -1.266485   -0.437590   -0.523660
C      0.083569   -0.245019   -0.165216
C      1.033059    0.645488   -0.378443
H      1.073094    1.574561   -0.936840
C      2.009915   -0.112388    0.433885
H      2.352157    0.417707    1.348715
H      2.821521   -0.596304   -0.159894
O      0.944304   -1.003398    0.606340
H     -1.518389   -1.175355   -1.194677
H     -3.213068    0.039586   -0.111758
H     -2.071796    0.525511    1.052478
