8

C     -0.648405   -0.497916   -0.005938
H     -1.287744   -0.632829   -0.919610
H     -1.072413   -0.950355    0.915169
C      0.097995    0.805947    0.081494
H     -0.026274    1.506379   -0.781892
H      0.263270    1.292633    1.058548
C      0.803388   -0.473294   -0.105396
O      1.870184   -1.050565   -0.242374
