12

C     -2.095433   -0.268893    0.096145
N     -0.650447   -0.287327   -0.043858
C      0.106585    0.709700    0.233993
N      1.528304    0.604028    0.065702
C      2.139531   -0.588490   -0.406835
O      1.390356   -1.561322   -0.676972
H      3.198826   -0.705275   -0.545499
H      2.160966    1.405510    0.286847
H     -0.356493    1.616388    0.593107
H     -2.516212   -0.822912   -0.780873
H     -2.423807   -0.848637    0.993091
H     -2.482177    0.747230    0.185151
