12

O     -1.304793   -1.236247    0.005204
C     -1.789007    0.055030    0.032143
H     -2.851597    0.351089    0.059363
C     -0.748000    0.860800    0.019249
O     -0.858173    2.248424    0.039127
N      0.482582    0.143289   -0.016983
C      1.670840    0.639533   -0.037040
H      2.539526    0.007640   -0.064184
H      1.814208    1.704742   -0.026847
C      0.103566   -1.257877   -0.026205
H      0.505272   -1.791483   -0.911133
H      0.435576   -1.724939    0.927305
