15

C      2.332832   -0.121072    0.215088
C      1.081459   -0.009939   -0.627480
N     -0.110350   -0.082513    0.193330
C     -1.316209    0.019427   -0.571162
H     -1.289352    0.676698   -1.459927
O     -2.191882   -1.035831   -0.671182
C     -2.590377   -0.048344    0.216990
H     -2.528296   -0.271240    1.310248
H     -3.352072    0.689722   -0.067432
H     -0.080821    0.580702    0.994492
H      1.119482    0.905896   -1.249256
H      1.043844   -0.867037   -1.340358
H      2.378799    0.784651    0.851339
H      2.311236   -1.061314    0.799037
H      3.191707   -0.159807   -0.509332
