14

C      1.743584    0.237573    0.297655
C      0.601206   -0.573981    0.791169
H      0.901003   -1.616709    1.095538
O     -0.231936   -0.054971    1.768953
C     -1.304350   -0.055501    0.948029
H     -2.284623   -0.467546    1.261076
C     -1.290208    0.720831   -0.365819
H     -0.881389    1.734691   -0.200669
H     -2.206188    0.650544   -0.989528
C     -0.546478   -0.536591   -0.196139
H     -0.765649   -1.364907   -0.847912
H      1.721130    1.241274    0.762078
H      1.794857    0.300903   -0.832712
H      2.749039   -0.215610    0.578168
