17

C     -1.955139    0.362130   -0.601756
C     -0.577065    0.054122   -0.275797
C      0.010476   -1.270632   -0.579692
H     -0.625878   -2.101094   -0.243450
H      0.504685   -1.412632   -1.553040
C      0.902954   -0.819722    0.549776
H      1.391263   -1.544975    1.154574
C      1.656344    0.385462    0.059963
H      1.891121    1.030374    0.925508
H      2.511780    0.162155   -0.563826
C      0.508247    1.030297   -0.740900
H      0.722104    0.923537   -1.809975
H      0.298533    2.042068   -0.396084
O     -0.253628   -0.198410    1.079229
H     -2.643628   -0.109749    0.141757
H     -2.208517    0.015490   -1.621873
H     -2.133653    1.451581   -0.586437
