15

C      1.249025   -0.745202    1.082502
C      0.698628    0.577153    0.475089
H      0.964091    1.434856    1.051274
O      1.077695    0.523143   -0.881328
C     -0.171130    0.230905   -1.349158
H     -0.525811    0.675919   -2.261371
C     -1.009539   -0.840263   -0.722300
H     -0.605351   -1.756054   -0.256593
H     -2.038101   -0.925245   -1.113017
C     -0.713830    0.386570    0.003743
O     -1.678765    1.333484    0.311164
H     -1.556058    2.232036   -0.054019
H      0.684102   -1.066502    1.965688
H      1.339629   -1.550013    0.320509
H      2.285414   -0.510787    1.427816
