18

C     -2.311065    0.884465   -0.389177
C     -1.341586   -0.039642    0.376903
H     -1.517925   -0.205738    1.442503
C     -1.111070   -1.350045   -0.399180
H     -0.907629   -2.251627    0.208752
H     -1.595083   -1.499612   -1.359784
N     -0.124778   -0.225078   -0.309493
C      1.130628   -0.635495    0.145486
C      2.090480    0.493577    0.464465
O      2.353643    1.311207   -0.596249
H      3.300301    1.624154   -0.658376
H      1.717154    1.030580    1.390084
H      3.049667    0.000308    0.780293
H      1.622336   -1.159970   -0.739982
H      1.194025   -1.370936    0.956220
H     -2.810769    0.371824   -1.219187
H     -3.013156    1.296850    0.332478
H     -1.725174    1.725178   -0.825645
