13

N      0.706560    0.145370    1.713693
C     -0.298529   -0.229320    0.767116
C      0.160156   -0.134829   -0.653126
N     -0.941949   -0.538159   -1.508056
H     -0.869806   -1.582669   -1.613249
H     -1.828981   -0.298473   -1.011062
C      0.568481    1.228674   -0.971189
N      0.879212    2.311593   -1.210545
H      1.018028   -0.826078   -0.844498
H     -0.651842   -1.251539    0.980212
H     -1.155350    0.482020    0.894350
H      1.533200   -0.459222    1.655838
H      0.880822    1.152633    1.800515
