10

N      1.836640   -0.143363    0.082940
C      0.407463   -0.225971    0.097963
C     -0.524691    0.686307   -0.277498
H     -0.298708    1.667816   -0.666042
C     -1.759722    0.111930   -0.063946
H     -2.729518    0.551971   -0.251548
N     -1.474592   -1.107618    0.425925
O     -0.219762   -1.289915    0.514351
H      2.395282   -0.886369   -0.390644
H      2.367607    0.635212    0.528498
