16

C     -2.042120    0.010197   -0.107903
C     -0.674266   -0.542439   -0.418708
O     -0.494244   -0.561123   -1.807840
H     -1.220913   -0.045935   -2.267428
C      0.393013    0.379467    0.186860
C      1.756440   -0.231187   -0.160403
O      2.783819    0.530698    0.343781
H      2.900224    1.391401   -0.136567
H      1.873869   -0.316171   -1.255491
H      1.820244   -1.249890    0.266500
H      0.319981    1.387560   -0.236881
H      0.279897    0.404079    1.275989
H     -0.592225   -1.558087   -0.002690
H     -2.059245    1.054187   -0.498836
H     -2.250786   -0.015758    0.968659
H     -2.793685   -0.637000   -0.606163
