18

C      2.075729    0.218347   -0.254963
O      1.095788   -0.143774    0.594124
C     -0.188146   -0.041310    0.243773
C     -1.063199   -0.520029    1.395827
H     -0.511945   -0.290885    2.345367
H     -2.011401    0.049613    1.457121
H     -1.209119   -1.602559    1.367616
C     -0.453089   -0.993977   -0.918657
H     -0.088711   -2.008960   -0.636572
H      0.136582   -0.661360   -1.799556
H     -1.523188   -0.997633   -1.196717
C     -0.699636    1.296848   -0.181142
H     -0.437581    1.559583   -1.235310
H     -1.823261    1.194181   -0.193139
H     -0.499663    2.113228    0.522546
H      2.080206    1.266327   -0.593239
H      3.061069    0.038925    0.225428
H      2.059564   -0.476565   -1.142508
