16

C     -1.730658   -0.073557    0.609900
N     -0.694946   -0.663370   -0.181859
C      0.007175    0.187871   -1.093673
H     -0.341579    0.390818   -2.062153
C      1.164666   -0.805458   -0.920620
H      0.957114   -1.796831   -1.366447
H      2.156700   -0.386591   -1.053281
C      0.604987   -0.745415    0.501078
H      0.786235   -1.544604    1.155335
C      0.886608    0.651845    0.863932
H      1.302567    0.999416    1.796808
C      0.499922    1.323053   -0.233311
H      0.529507    2.380880   -0.449078
H     -1.602160    0.982457    0.842391
H     -2.683895   -0.188331    0.061324
H     -1.842241   -0.712182    1.529656
