12

O     -0.787847   -1.385814   -0.805457
C     -0.295397   -0.764573    0.336014
H     -0.434215   -1.320966    1.284973
C      0.974565    0.026393    0.199792
O      1.585561    0.109802   -1.047789
H      2.464035   -0.337913   -1.013492
H      1.712455    0.006842    1.043552
C     -0.330728    0.704652    0.419841
O     -0.809685    1.482468   -0.647968
H     -1.755295    1.759365   -0.492026
H     -0.551333    1.175719    1.403090
H     -1.772117   -1.455975   -0.680529
