9

O      2.293073   -0.879192   -0.053882
C      1.077382   -0.539817   -0.238974
N      0.589619    0.714665   -0.177351
H      1.187948    1.538109    0.034094
C     -0.723562    0.684594   -0.425485
H     -1.418444    1.497009   -0.456130
C     -1.039964   -0.634591   -0.644687
H     -2.032947   -1.028480   -0.877417
O      0.066895   -1.352297   -0.525826
