15

C     -1.542833   -0.679125    0.270422
C     -0.508645   -0.010953   -0.627045
H     -0.871656    0.101437   -1.623137
C     -0.148695    1.320322    0.031871
H     -0.644620    2.236406   -0.360276
O      0.290774    1.274098    1.310847
C      1.139344    0.955190    0.216584
H      2.129066    1.384108    0.233518
C      0.902972   -0.439126   -0.363209
O      1.161388   -1.482652    0.450978
H      2.139607   -1.675920    0.376344
H      1.483643   -0.490352   -1.331802
H     -1.189380   -0.966987    1.268513
H     -1.951774   -1.571333   -0.239763
H     -2.389193    0.044888    0.386158
