15

C      2.022047   -0.210504   -0.658305
C      0.550054    0.079724   -0.692431
C      0.072610    0.260659    0.732837
C     -1.375534    0.561508    0.795138
O     -1.728531    1.692738    1.226437
C     -2.411847   -0.356269    0.396264
O     -2.095430   -1.493578   -0.062654
H     -3.460265   -0.055785    0.495721
H      0.259299   -0.654775    1.320236
H      0.670549    1.070471    1.248865
H      0.012880   -0.831389   -1.089762
H      0.336429    0.917176   -1.347419
H      2.129536   -1.214659   -0.200466
H      2.440983   -0.265412   -1.680838
H      2.577221    0.500095   -0.030525
