10

O      0.526993    2.060489    0.670126
C      0.242653    0.926477    0.247180
C      0.977349   -0.304380   -0.058689
H      1.426528   -0.827443    0.843253
H      1.738101   -0.169353   -0.868833
N     -0.226347   -0.955456   -0.454340
H     -0.549254   -1.771971    0.076984
C     -0.975004    0.222749   -0.168181
H     -1.643293    0.145412    0.747148
H     -1.517726    0.673474   -1.034649
