10

C     -1.406894   -0.051732   -0.037633
C      0.066792   -0.290870   -0.045555
N      0.756116   -1.417333   -0.169088
O      2.011605   -1.085539   -0.112620
N      2.169542    0.190257    0.040211
C      0.959302    0.752984    0.090004
H      0.771855    1.805935    0.211771
H     -1.959079   -0.782155   -0.627872
H     -1.655269    0.969293   -0.396771
H     -1.713969   -0.090840    1.047552
