18

C     -1.359981    1.026191    0.350615
C     -0.331218   -0.016991   -0.008120
C     -0.985094   -1.339640   -0.341392
H     -1.003417   -1.928460    0.599173
H     -2.022290   -1.133410   -0.669229
H     -0.480664   -1.899018   -1.127250
C      0.670837    0.402445   -1.022225
H      0.575060    1.428450   -1.426616
H      0.804009   -0.350853   -1.842335
C      1.765419    0.216434   -0.004095
H      2.229830    1.210210    0.220759
H      2.542185   -0.527214   -0.277613
C      0.756612   -0.201451    1.002624
H      0.720878    0.499073    1.869163
H      0.846677   -1.233179    1.400225
H     -1.939023    0.685526    1.218644
H     -1.988185    1.203655   -0.528355
H     -0.801635    1.958231    0.586025
