14

C      1.938059   -0.216126    0.272460
C      0.679783   -0.070063   -0.578341
N     -0.341385    0.362939    0.319986
C     -1.591020    0.896479   -0.098190
H     -1.990585    1.666966    0.609464
H     -1.871369    1.055596   -1.140981
C     -1.486180   -0.505074    0.413860
H     -1.756959   -0.748165    1.465669
H     -1.614348   -1.304482   -0.360709
H      0.929129    0.629836   -1.384968
H      0.498840   -1.070753   -1.029818
H      2.844873   -0.265443   -0.343689
H      1.819170   -1.105850    0.911052
H      1.941992    0.674140    0.944204
