8

O     -0.466917   -1.915098   -0.856438
C     -0.648920   -1.336914    0.228629
C     -0.202077   -0.021671    0.623418
O     -0.408855    0.321019    1.816141
C      0.456607    0.910520   -0.242048
C      0.984518    1.625596   -0.907824
H      1.523950    2.390408   -1.609984
H     -1.238306   -1.973862    0.948106
