16

O      2.289540    0.229442   -0.225448
C      1.022264    0.018846    0.216844
H      0.956950   -0.316601    1.291651
C      0.278669   -1.061961   -0.580356
H      0.311326   -0.906780   -1.652116
H      0.664792   -2.032479   -0.226696
C     -1.159581   -0.859276   -0.041964
H     -1.844669   -1.330147   -0.732209
H     -1.140858   -1.284503    0.981566
C     -1.283620    0.650339    0.011899
H     -1.862203    1.060337   -0.829124
H     -1.823343    0.933426    0.950602
C      0.112797    1.217185    0.096506
H      0.342045    1.792627   -0.832562
H      0.241636    1.843986    1.013945
H      2.894254    0.045559    0.557462
