11

C     -1.347717   -0.268090    0.069235
N     -0.308833    0.547538    0.680515
C      0.839562    0.675235   -0.181269
C      1.567773   -0.579366   -0.322981
N      2.164817   -1.597796   -0.418181
H      0.520316    0.987758   -1.222357
H      1.525860    1.518070    0.131532
H     -0.060243    0.118440    1.604359
H     -1.248963   -0.281911   -1.035512
H     -1.293552   -1.305777    0.404729
H     -2.359020    0.185898    0.289930
