14

C      2.172957   -0.224239    0.539303
C      0.958065    0.202910   -0.174816
N      1.046698    0.937822   -1.213303
H      1.952477    1.271264   -1.608939
O     -0.261623   -0.207670    0.303238
C     -1.495745    0.133569   -0.291738
C     -2.619327   -0.468494    0.465394
O     -2.398889   -1.139952    1.440640
H     -3.645370   -0.315977    0.157203
H     -1.612383    1.210456   -0.472751
H     -1.496108   -0.362008   -1.302247
H      2.247493   -1.350020    0.476047
H      2.056320    0.104346    1.596698
H      3.095436    0.207992    0.085273
