13

C     -1.405174   -0.432822   -0.163135
H     -1.947103   -0.905059    0.659969
H     -1.930613   -0.256451   -1.103820
C     -0.568881    0.746346    0.219172
H     -0.887770    1.678194    0.432015
C      0.415496   -0.129808    0.796564
H      0.582490   -0.423172    1.753724
C      1.381811    0.522411   -0.117900
H      1.670473    1.535664    0.154476
H      2.158637   -0.172716   -0.455954
N      0.201134    0.444939   -1.011775
C      0.001197   -0.877396   -0.369197
H      0.328303   -1.730131   -0.794139
