15

O      1.315153   -1.244172    0.980505
C      1.300828   -0.378251   -0.096498
C      0.014336    0.377116   -0.218727
C     -1.227402   -0.518705   -0.267141
O     -1.235677   -1.316172    0.855044
H     -1.904111   -1.016053    1.540250
H     -1.257002   -1.091060   -1.219874
H     -2.118216    0.155366   -0.280661
C     -0.135427    1.787592   -0.115435
H      0.652348    2.406232    0.354803
H     -1.150448    2.208219    0.037160
O      0.100418    1.269400   -1.392953
H      2.189475    0.253552   -0.065322
H      1.376975   -1.028828   -1.017321
H      2.078748   -1.864237    0.906170
