15

O      2.215328   -0.679528    0.612878
C      1.274176    0.328608    0.753761
C      0.200078    0.181302   -0.292961
H      0.604222    0.345705   -1.317389
C     -0.565618   -1.101338   -0.262367
H     -0.252515   -1.786977    0.564367
H     -0.642334   -1.631948   -1.255011
C     -1.807145   -0.350140   -0.015535
O     -3.002723   -0.547782    0.157964
C     -1.061633    0.925041   -0.043432
H     -1.320457    1.594937   -0.899751
H     -1.147203    1.440711    0.939744
H      1.722145    1.344828    0.602931
H      0.883009    0.276393    1.783803
H      2.900670   -0.339812   -0.035595
