12

C     -2.591079   -0.007704   -0.623112
C     -1.257373   -0.141947    0.058994
C     -0.170478   -0.240709    0.629878
C      1.108237   -0.340485    1.314690
C      2.184608    0.178354    0.583048
C      3.179686    0.666414   -0.120196
H      3.959241    1.036658   -0.651223
H      1.232272   -1.394989    1.659030
H      1.038974    0.286441    2.282859
H     -2.719696   -0.842146   -1.356354
H     -3.414125   -0.121688    0.074755
H     -2.550268    0.921802   -1.204597
