15

C     -1.522501    0.284751    0.187728
H     -2.069200   -0.209916    1.016752
H     -2.100567    0.991546   -0.411643
C     -0.752240   -0.762900   -0.632720
H     -1.277902   -1.596985   -0.994270
O     -0.109915    0.097795   -1.555620
C      0.673777    0.821254   -0.623667
H      1.142342    1.708706   -0.934997
C      1.539263   -0.290130   -0.015927
H      2.079562   -0.902010   -0.733642
H      2.151411    0.144574    0.796633
C      0.209974   -0.792423    0.471740
H      0.124003   -1.381691    1.336347
C     -0.148017    0.705001    0.592181
H      0.060010    1.182426    1.501105
