14

C      1.798077    0.063785    0.549760
C      0.675107   -0.326222   -0.360700
C     -0.675459    0.109313    0.111096
C     -0.925929    1.542491    0.298667
N     -1.139935    2.679396    0.460783
C     -1.817460   -0.730385   -0.467592
H     -2.659414   -0.134185   -0.845328
H     -1.582336   -1.611358   -1.068196
O     -1.475002   -0.732548    0.862634
H      0.807859    0.089587   -1.397177
H      0.665608   -1.425571   -0.475396
H      2.693240    0.382744   -0.046354
H      2.111428   -0.823804    1.157684
H      1.524216    0.916759    1.220119
