19

C     -2.868519    0.483567   -0.316525
C     -1.569928   -0.154307    0.187317
O     -0.977211   -0.829516   -0.865898
C      0.176019   -1.447976   -0.442195
C      1.211012   -0.521875    0.093689
O      1.623939    0.430562   -0.853286
C      2.584209    1.214379   -0.205871
H      2.990549    2.007144   -0.850034
H      3.379791    0.567528    0.228352
H      2.061073    1.707257    0.647532
H      2.139012   -1.115819    0.309733
H      0.864576    0.023491    0.977966
H      0.570706   -2.027584   -1.310024
H     -0.056498   -2.158023    0.411397
H     -0.898418    0.719206    0.451427
H     -1.759177   -0.764642    1.072478
H     -2.628967    1.276173   -1.023439
H     -3.471189   -0.339134   -0.779883
H     -3.370979    0.929569    0.563375
