15

O      2.606002   -0.989665    0.705813
C      1.816291    0.124254    0.829105
C      0.602333    0.117550   -0.068747
O     -0.240115   -0.945566    0.164822
C     -1.311948   -0.836338   -0.721029
C     -2.034573    0.424026   -0.513655
C     -2.634465    1.463910   -0.322455
H     -3.148825    2.376648   -0.140145
H     -1.984680   -1.693604   -0.504680
H     -0.988119   -0.850622   -1.775814
H      0.896563    0.121048   -1.129840
H      0.038630    1.063803    0.174335
H      1.558786    0.292541    1.887233
H      2.427180    1.017176    0.517030
H      2.396939   -1.685162    1.351124
