9

C     -0.012969    0.777699    0.218976
H     -0.016119    1.835795    0.521150
C     -1.163953    0.219529   -0.278433
H     -2.064078    0.767679   -0.385363
N     -1.086621   -1.069473   -0.625003
N      0.029970   -1.776629   -0.500147
N      1.132457   -1.248513   -0.025568
C      1.139462    0.030978    0.343010
H      2.041849    0.462936    0.731376
