10

O      1.639642   -0.242884   -0.406670
C      0.482289   -0.194903    0.345608
H      0.653791   -0.235866    1.434590
C     -0.539611    0.784294   -0.202102
H     -0.914645    1.484094    0.560340
H     -0.403320    1.196361   -1.208211
C     -0.812058   -0.678043   -0.140895
H     -0.932602   -1.232531   -1.103773
H     -1.571049   -0.977949    0.604780
H      2.397563    0.097426    0.116332
