10

O     -0.469659    1.049504   -1.064394
C     -0.069182    0.346359    0.045893
C     -1.030003   -0.770447    0.366594
O     -0.842595   -1.505879    1.318711
H     -1.912029   -0.952893   -0.236061
C      1.315052   -0.218653   -0.155574
O      1.839887   -0.874860    0.725324
H      1.874528   -0.066135   -1.061964
H     -0.025871    0.993924    0.946587
H     -0.680127    1.999078   -0.885116
