16

C      1.477441   -0.413329   -0.744081
C      0.348842    0.339425   -0.084504
C      0.681026    1.760257    0.009411
N      0.954703    2.864376    0.095585
C     -0.979441    0.053343   -0.725081
H     -0.893388   -0.686240   -1.553444
H     -1.482144    0.994859   -1.026602
C     -1.456560   -0.542530    0.567860
H     -2.268359    0.057317    1.028600
H     -1.702129   -1.615470    0.435509
C     -0.127595   -0.249550    1.187620
H     -0.212409    0.434844    2.058677
H      0.397775   -1.203708    1.403290
H      1.539036   -1.441963   -0.295889
H      2.414561    0.108700   -0.524296
H      1.308641   -0.460330   -1.832656
