18

C      1.999778    0.169380    0.270389
C      0.938718   -0.273214   -0.726255
C     -0.404465   -0.000184   -0.101784
C     -0.679847    1.425729    0.244237
H      0.206758    2.101696    0.063310
H     -1.094533    1.557711    1.259279
H     -1.452129    1.797038   -0.479444
C     -0.965112   -1.110752    0.710778
H     -0.453320   -2.078829    0.703369
H     -1.487299   -0.849965    1.644274
C     -1.616954   -0.761331   -0.612416
H     -1.389871   -1.381706   -1.496810
H     -2.610901   -0.311240   -0.521915
H      1.106585    0.309120   -1.653504
H      1.068866   -1.360297   -0.883520
H      2.350827   -0.710999    0.857638
H      2.898793    0.577967   -0.246793
H      1.584108    0.899876    0.969167
