14

O      1.911588    0.306650   -0.619268
C      0.798469   -0.016869    0.242445
H      1.125859   -0.179491    1.242633
C     -0.233463    1.034945    0.202985
H     -0.139801    1.733845   -0.712063
H     -0.264565    1.665279    1.075065
C     -1.494284    0.331341   -0.085289
H     -1.850129   -0.065667    1.039891
H     -2.282953    0.818051   -0.518451
O     -1.222212   -0.992869   -0.551415
C      0.182312   -1.175815   -0.461981
H      0.075188   -2.040442    0.429885
H      0.658023   -1.670196   -1.206753
H      2.735968    0.251238   -0.077685
