17

C      2.016595    0.133372   -0.262233
O      1.032828   -0.236996    0.617802
C     -0.245882    0.029333    0.209772
C     -1.183347   -0.454307    1.318866
H     -0.696240   -0.154686    2.279361
H     -1.258028   -1.547950    1.338348
H     -2.176628   -0.028543    1.181694
C     -0.573321   -0.829737   -1.005851
H     -0.456947   -1.893221   -0.701030
H      0.078648   -0.520015   -1.818937
H     -1.638343   -0.627873   -1.256256
C     -0.515663    1.441715   -0.076910
O     -1.609161    1.815750   -0.447597
H      0.239510    2.205767    0.027901
H      1.965404    1.224355   -0.438982
H      2.020833   -0.463434   -1.197791
H      2.999743   -0.093530    0.231844
