14

C      1.282915    0.012571    0.684370
H      1.642244    1.031776    0.966839
H      1.475417   -0.824724    1.384188
C      1.183572   -0.306583   -0.809458
H      1.529510    0.474979   -1.529060
H      1.553839   -1.307353   -1.049274
C      0.012163   -0.027839   -0.046195
C     -1.145118   -0.850602    0.264571
H     -1.085094   -1.589285    1.083949
H     -1.697993   -1.319069   -0.610526
O     -1.839228    0.318769    0.602729
C     -0.928723    1.084499   -0.135219
H     -1.394477    1.278731   -1.147660
H     -0.589027    2.024130    0.340745
