12

C      1.886035    0.125125    0.142135
N      0.486450    0.334606    0.427514
C     -0.491137   -0.282946   -0.396096
O     -0.071403   -0.989912   -1.344290
C     -1.943695   -0.078933   -0.117851
H     -2.497691   -0.485357   -0.990260
H     -2.172536   -0.717393    0.768692
H     -2.167559    0.988063    0.082482
H      0.179895    0.938757    1.237613
H      2.232159   -0.819463    0.640458
H      2.466893    1.002997    0.482197
H      2.092589   -0.015542   -0.932594
