12

C     -1.384848   -0.282466    0.328032
H     -1.719846   -1.280139   -0.026272
H     -2.277707    0.401612    0.435175
O     -0.646743   -0.245647    1.470510
C      0.372725    0.378383    0.838839
H      0.718117    1.345008    1.280109
C      1.369963   -0.419291    0.111764
H      2.344491    0.107976    0.014579
H      1.488715   -1.427383    0.560203
O      0.635772   -0.340821   -1.038009
C     -0.320019    0.391607   -0.428135
H     -0.580620    1.371161   -0.899025
