11

N      2.875834    1.836826   -0.389704
C      1.990920    1.152617   -0.087704
C      0.871329    0.298492    0.309676
O      0.156057   -0.048954   -0.833189
C     -0.927991   -0.861064   -0.552395
C     -1.829095   -0.164899    0.346783
N     -2.547042    0.391038    1.089857
H     -0.612230   -1.852384   -0.154862
H     -1.417502   -1.084386   -1.533527
H      1.204844   -0.579948    0.894979
H      0.234876    0.912662    1.005915
