11

N      1.817916   -0.254480   -0.135033
C      0.425190    0.024657   -0.013673
C     -0.121341    1.243227    0.321486
H      0.400867    2.183995    0.547035
O     -1.417288    1.053963    0.317991
C     -1.716233   -0.184946    0.007293
O     -2.898388   -0.663098   -0.075099
N     -0.566658   -0.836657   -0.202103
H     -0.525442   -1.855978   -0.467826
H      2.312864   -0.496183    0.761484
H      2.288515   -0.214499   -1.061556
