16

C      3.456566    0.206491   -0.360529
C      2.299352    0.182624   -0.423757
C      0.892516    0.159203   -0.522190
C     -0.228973    0.132282   -0.618704
N     -1.253007    0.377194    0.334247
C     -2.359853   -0.601342    0.618705
H     -2.274865   -1.567641    0.101816
H     -2.718028   -0.605960    1.674140
C     -2.652261    0.603890   -0.150060
H     -3.095145    1.503180    0.326469
H     -2.836611    0.501349   -1.223897
H     -0.514171   -1.094146   -0.942171
H     -0.701847    0.522763   -1.649382
H      3.794090   -0.556614   -1.432665
H      3.968143   -0.668850    0.332332
H      4.224095    0.905579   -0.521479
