11

N      3.110959    0.671473   -0.627058
C      2.084062    0.171958   -0.397834
C      0.804586   -0.435203   -0.117043
C     -0.311087    0.574749    0.046032
H     -0.268860    1.426882   -0.634523
C     -1.658684   -0.077675    0.342432
H     -1.706935   -1.156364    0.515961
H     -2.481267    0.345004   -0.254414
O     -0.965057    0.691434    1.250747
H      0.474429   -1.140849   -0.924392
H      0.917853   -1.071409    0.800092
