20

C      1.993446    0.076094    0.558317
C      1.793532   -0.592654   -0.751629
C      0.655232   -0.036492   -1.535184
C     -0.697278   -0.135312   -0.981353
C     -1.023474    0.495170    0.310116
C     -2.528687    0.235599    0.575866
H     -2.757152    0.367361    1.649848
H     -2.775468   -0.806952    0.318178
H     -3.150120    0.895380   -0.056111
H     -0.856339    1.561011    0.419756
H     -0.545283   -0.028073    1.188745
H     -1.431681    0.221299   -1.773751
H     -0.947990   -1.241334   -0.871167
H      0.651227   -0.595912   -2.529380
H      0.947805    0.997403   -1.858701
H      1.633350   -1.709946   -0.643470
H      2.763218   -0.469797   -1.324656
H      3.096179    0.297759    0.753589
H      1.465296    1.035565    0.638055
H      1.714187   -0.566169    1.403863
