8

C     -1.057427   -0.381702   -0.331887
H     -1.928039   -0.902053   -0.700227
N     -0.919419    0.941222   -0.524307
N      0.133966    1.619822   -0.088544
N      1.088655    0.978004    0.560514
C      0.992150   -0.340718    0.774656
H      1.773615   -0.898249    1.312451
N     -0.083502   -1.016326    0.326178
