8

N      2.392020   -0.466919    0.826040
C      1.450455   -0.047260    0.333127
C      0.252402    0.476738   -0.294826
H      0.330145    0.971781   -1.281043
C     -1.035408   -0.290218    0.031844
H     -1.692390   -0.407991   -0.845683
H     -0.943247   -1.192513    0.680523
O     -0.753977    0.956380    0.550018
