13

C      2.170231   -0.074507    0.299512
C      0.675423   -0.111347    0.040643
N     -0.139458   -1.076064    0.286365
C     -1.476662   -0.712787   -0.145867
H     -2.247352   -1.027796    0.572539
H     -1.707720   -1.169016   -1.145686
C     -1.342369    0.755576   -0.324845
H     -1.453431    1.129884    0.831773
H     -2.055417    1.286318   -0.891850
O      0.030321    0.984087   -0.482569
H      2.409890    0.880464    0.896785
H      2.464459   -0.874933    0.990028
H      2.672085    0.010121   -0.642341
