13

O      2.868983   -0.013504    0.016473
C      1.679924    0.224459   -0.070829
C      0.725374   -0.322988    0.889516
N     -0.639789    0.006150    0.710167
C     -1.269375   -0.603799   -0.524057
H     -0.571364   -1.096554   -1.221909
H     -2.136734   -1.214801   -0.201056
C     -1.176043    0.825227   -0.316123
H     -2.133276    1.347022   -0.009967
H     -0.576764    1.434040   -0.987902
H      0.868289   -1.443373    0.944780
H      1.001723    0.004966    1.937676
H      1.359053    0.853157   -0.882281
