15

C     -0.040893    1.216570   -0.841190
C      0.027241    0.095020    0.164843
C      1.250011   -0.747330    0.027549
H      1.334673   -1.163549   -1.013056
H      2.182444   -0.226916    0.334442
H      1.125458   -1.635417    0.686354
C     -1.182329   -0.814752   -0.061131
H     -1.905626   -0.556103    0.722569
H     -0.885523   -1.885454    0.101658
H     -1.571563   -0.649469   -1.086783
C      0.005194    0.654725    1.520652
N      0.002985    1.088764    2.596882
H     -0.571412    0.927915   -1.773318
H      0.932073    1.694226   -1.010772
H     -0.702730    2.001769   -0.368700
