14

C     -2.229070   -0.444290    0.049270
C     -0.820131    0.030246    0.091773
C     -0.391071    1.266584    0.530834
H     -1.079813    2.026246    0.897087
O      0.914629    1.322695    0.420470
C      1.421007    0.222765   -0.060107
N      2.776517   -0.105593   -0.325577
H      3.053254   -1.007754   -0.731895
H      3.504677    0.599742   -0.096417
C      0.339247   -0.619795   -0.279366
H      0.352109   -1.629538   -0.674734
H     -2.301828   -1.442554   -0.387443
H     -2.659137   -0.508750    1.075074
H     -2.880391    0.289996   -0.508970
