11

C     -1.107066    0.707149    0.030934
C     -0.530245   -0.675895   -0.008697
H     -1.172273   -1.454553    0.456244
O      0.188522   -1.121575   -1.091423
C      0.945227   -0.782246    0.027528
C      1.751458    0.404621   -0.112616
N      2.409003    1.364770   -0.230386
H      1.330512   -1.612311    0.684733
H     -0.685982    1.399964   -0.696679
H     -2.220700    0.660005   -0.125788
H     -0.908456    1.110071    1.066151
