13

C     -1.154259    0.798077   -0.397147
H     -2.260072    0.931258   -0.509584
H     -0.575364    1.684429   -0.485643
C     -0.745051   -0.430336    0.358607
H     -1.447499   -0.942206    0.966412
C     -0.667716   -0.453502   -1.062939
H     -1.251313   -1.030543   -1.755695
N      0.811974   -0.665742   -1.052848
C      1.494069    0.408656   -0.358202
H      2.617126    0.345696   -0.435557
H      1.193112    1.435059   -0.302525
C      0.782385   -0.656679    0.372313
H      1.202608   -1.424167    0.990978
