15

C      2.476823   -0.643865    0.008987
N      1.101859   -0.162958   -0.012546
C      0.724137    1.102915   -0.250938
H      1.414965    1.905609   -0.454249
C     -0.651398    1.206931   -0.195178
H     -1.261054    2.100479   -0.344245
C     -1.101305   -0.066000    0.091038
C     -2.539378   -0.469896    0.254462
H     -3.168052    0.327025   -0.151650
H     -2.663951   -1.383759   -0.380971
H     -2.796692   -0.668897    1.299559
N     -0.012434   -0.842984    0.189336
H      2.885856   -0.616179   -1.042047
H      3.110129   -0.061694    0.706962
H      2.480496   -1.726727    0.281479
