17

C     -1.802355    0.707660    0.339376
C     -1.518117   -0.634262   -0.284926
C     -0.061963   -0.968487   -0.005269
N      0.750849    0.052928   -0.589464
C      2.210513   -0.161477   -0.382968
H      2.510501   -0.951402    0.311574
H      2.752530   -0.040092   -1.346147
C      1.461445    0.998684    0.209598
H      1.372165    1.024112    1.303853
H      1.702934    1.980375   -0.280710
H      0.139756   -1.913749   -0.575588
H      0.130869   -1.153140    1.048993
H     -1.714728   -0.650685   -1.375983
H     -2.190183   -1.432688    0.140818
H     -2.739420    0.658619    0.942299
H     -1.011577    1.049161    1.026175
H     -1.993220    1.434445   -0.481632
