15

C      2.228326    0.083444    0.091182
C      0.904237    0.207539   -0.642523
C     -0.199092   -0.064175    0.348511
C     -1.538045    0.037255   -0.290841
O     -1.585529    0.320905   -1.509550
N     -2.693768   -0.190217    0.502717
H     -3.445419    0.528806    0.531842
H     -2.851763   -1.045336    1.074053
H     -0.103928   -1.109205    0.709044
H     -0.113797    0.581386    1.242767
H      0.892375   -0.592684   -1.410351
H      0.865177    1.218905   -1.064701
H      2.256823   -0.946744    0.530053
H      3.077120    0.172186   -0.593089
H      2.307282    0.797937    0.933984
