9

O      2.308099   -0.199209   -0.293869
C      0.916645   -0.116010   -0.169221
N      0.097348   -1.095942    0.185189
N     -1.152047   -0.626027    0.189167
H     -2.028344   -1.136025    0.421261
C     -1.145170    0.672689   -0.166260
H     -1.993034    1.358364   -0.263719
N      0.152510    0.971554   -0.385324
H      2.843992    0.170607    0.482775
