13

C     -1.590891   -0.246716   -0.290685
C     -0.207498   -0.180195   -0.289359
O      0.724191   -1.023248   -0.806103
C      1.563184   -0.228770   -0.040954
H      2.580008   -0.241973   -0.079551
C      0.692714    0.930316   -0.367554
H      0.869608    1.634218   -1.075994
O      0.528634    1.158179    0.984088
C      0.613730   -0.208602    1.011436
H      0.370851   -0.830885    1.771952
H     -2.089213    0.535045   -0.937943
H     -2.006675   -1.230033   -0.607803
H     -2.048644   -0.067334    0.728469
