8

O      2.229341    0.230999   -0.187727
C      1.026225   -0.123406   -0.030363
N     -0.001213    0.687467    0.266838
H      0.059796    1.736231    0.409585
C     -1.087739   -0.092884    0.341642
H     -2.085067    0.254095    0.565781
N     -0.706979   -1.345942    0.092215
O      0.565635   -1.346562   -0.129136
