10

O     -2.199842    0.729346   -0.648935
C     -1.774571   -0.181641    0.303148
C     -0.295493   -0.084723    0.336557
C      0.906657   -0.013430    0.346090
C      2.321018    0.073434    0.381799
C      3.537939    0.146492    0.433735
H      4.588683    0.201399    0.463118
H     -2.167714    0.093633    1.286446
H     -2.095854   -1.231355    0.070287
H     -2.820824    0.266845   -1.246426
