13

C      2.152328    1.123565   -0.078740
C      1.399917   -0.018234    0.391463
C      1.038888   -0.586046    0.616984
N     -0.644735   -0.293861    0.812985
C     -1.513158   -0.639315   -0.126014
H     -1.491551   -1.200052   -1.058121
H     -2.586958   -0.679621    0.334325
C     -0.907673    0.739528   -0.142004
H     -1.575098    1.560294    0.126033
H     -0.236537    0.888827   -1.012391
H      0.613018   -1.494106   -0.386696
H      0.882034   -1.649280    1.347224
H      2.869525    2.248301   -0.540564
