16

C      1.953747   -0.226765    0.183373
C      0.749466    0.672764    0.251660
C     -0.492981    0.025657   -0.284291
C     -0.978109   -1.239201    0.381077
H     -0.182431   -1.996998    0.255551
H     -1.163106   -1.000514    1.442367
H     -1.900939   -1.589835   -0.125119
C     -1.546628    1.030524   -0.751586
H     -2.549069    0.807913   -0.386762
H     -1.260142    2.094176   -0.830100
O     -0.866398    0.178397   -1.600445
H      0.940244    1.597311   -0.359032
H      0.570089    1.014355    1.275442
H      2.855270    0.344219   -0.093623
H      1.765118   -1.031247   -0.557401
H      2.105870   -0.680757    1.198888
