13

O      2.862822    0.310180   -0.113358
C      1.976914   -0.555432    0.083692
N      0.575335   -0.185025    0.037895
C     -0.103791    1.042091   -0.199577
H      0.103436    1.867799    0.522460
H      0.097150    1.373250   -1.268474
C     -1.426353    0.383227   -0.035463
H     -2.073595    0.393878   -0.945226
H     -1.958850    0.731102    0.880978
C     -0.662701   -0.867289    0.204890
H     -0.833843   -1.566175   -0.653966
H     -0.828095   -1.349684    1.198701
H      2.271571   -1.577921    0.287448
