11

C     -1.672770   -0.043774    0.111840
N     -0.245967   -0.245057    0.049772
C      0.707374    0.658966   -0.149368
H      0.551519    1.721927   -0.300622
C      1.938966    0.034066   -0.134448
H      2.903325    0.531858   -0.272627
N      1.677397   -1.266785    0.080031
N      0.367632   -1.407829    0.186472
H     -1.947825    0.548639    1.010357
H     -2.073984    0.478570   -0.774482
H     -2.205667   -1.010580    0.193075
