17

C      2.126562   -0.770545   -0.014316
C      0.818098   -0.366811   -0.038249
C      0.253985    0.850056   -0.720996
H      0.289595    0.801764   -1.819102
H      0.477954    1.813658   -0.247647
C     -0.887171    0.057684   -0.172577
C     -2.235141    0.359619   -0.281851
H     -2.628730    0.956721    0.563600
H     -2.464816    0.971578   -1.200096
H     -2.871863   -0.562512   -0.412851
C     -0.110774   -0.114435    1.093660
H     -0.384804   -0.981283    1.729503
H      0.106143    0.795309    1.668516
O     -0.246712   -1.071094   -0.649259
H      2.860587   -0.052649   -0.485755
H      2.338853   -1.744346   -0.548664
H      2.558232   -0.942713    1.015692
