16

C     -2.178437   -0.125804   -0.199131
C     -0.922754    0.309903   -0.926572
H     -1.153846    0.942969   -1.806010
C      0.073731    0.948226   -0.029473
H     -0.234681    0.920957    1.045903
H      0.440328    1.952623   -0.328674
N      0.989906   -0.123372   -0.288985
C      2.353640   -0.362097    0.211520
H      3.056898    0.398914   -0.227325
H      2.293658   -0.256164    1.306056
H      2.620969   -1.394092   -0.117974
C      0.066571   -0.740305   -1.136914
O      0.078848   -1.796026   -1.821283
H     -3.079471    0.008853   -0.839744
H     -2.086021   -1.197522    0.018135
H     -2.319340    0.512936    0.683346
