19

C     -1.600417   -0.684372   -0.650541
C     -1.225683    0.045104    0.586313
C      0.110541    0.697628    0.619843
C      1.282523   -0.198980    0.453363
C      1.386915   -0.976381   -0.799674
H      2.445946   -1.035525   -1.188336
H      1.155097   -2.055162   -0.562590
H      0.785140   -0.675329   -1.642595
H      2.230494    0.413735    0.539462
H      1.329110   -0.868609    1.350249
C      0.191862    1.904789   -0.257313
O      0.448075    3.021923    0.145914
H      0.012088    1.779115   -1.316237
H      0.202831    1.111476    1.673789
H     -1.276316   -0.654270    1.458355
H     -2.049090    0.787060    0.794897
H     -1.194077   -1.694995   -0.767467
H     -2.719670   -0.863754   -0.574779
H     -1.515369   -0.053454   -1.566541
