10

O      2.111355   -1.138343    0.373427
C      0.957092   -0.620172    0.163774
C      0.651715    0.802814    0.006461
H      0.886769    1.284449    0.996308
H      1.278132    1.279478   -0.796453
O     -0.674843    0.904701   -0.195396
C     -1.219598   -0.334720   -0.176808
H     -1.802166   -0.553134   -1.113157
H     -1.957378   -0.319911    0.697387
O     -0.231079   -1.305161    0.044456
