19

C      2.140663   -0.543948   -0.400706
C      1.046796    0.105413    0.402194
O      1.650027    1.159572    1.120126
H      1.739980    1.956734    0.508083
C     -0.052028    0.682166   -0.455105
H      0.227361    1.676179   -0.896141
C     -0.832871   -0.189089   -1.362882
H     -0.687940   -1.276316   -1.352646
H     -1.222420    0.190953   -2.329267
C     -1.471256    0.486927   -0.157339
C     -1.965363   -0.488438    0.878126
H     -1.253653   -1.287736    1.099330
H     -2.866476   -0.996484    0.425688
H     -2.357201    0.021068    1.785158
H     -2.176046    1.331511   -0.335309
H      0.674857   -0.623920    1.146410
H      3.028622    0.122664   -0.523430
H      1.838326   -0.879285   -1.392369
H      2.538623   -1.447969    0.136189
