13

N      1.348143    1.139037    0.298037
C      1.830753   -0.028758    0.028075
O      0.959089   -0.962005   -0.449251
C     -0.413219   -0.875865   -0.559129
H     -0.885559   -1.805327   -0.991901
C     -1.199291    0.347767   -0.610520
H     -2.224141    0.283816   -1.058928
H     -0.765524    1.364067   -0.766016
C     -1.095901   -0.329024    0.705923
H     -0.495754    0.181268    1.455402
H     -1.910054   -0.947050    1.108731
H      2.882959   -0.255175    0.175181
H      1.968499    1.887247    0.664396
