13

O      1.821915    1.781500   -0.329357
C      0.868322    0.829759   -0.116392
C      1.101267   -0.641607    0.157027
H      1.357703   -0.952158    1.213086
H      1.713170   -1.155362   -0.573761
C     -0.350045   -1.068065   -0.092756
H     -0.608502   -2.057795    0.137893
H     -0.277951   -1.125642   -1.387370
C     -1.288343    0.138639    0.078087
H     -0.968835    0.355096    1.384567
H     -2.237159    0.193264    0.081401
N     -0.376544    1.345071   -0.156371
H     -0.754998    2.357301   -0.396055
