21

C     -2.586130   -0.077607   -0.979727
C     -2.223638   -0.553851    0.419416
C     -0.880731    0.044201    0.754341
C      0.203984   -0.358312   -0.182524
C      1.476575    0.328841    0.299321
C      2.652862   -0.008783   -0.581407
O      3.778415    0.647785   -0.088694
H      3.669742    1.623434   -0.172861
H      2.879629   -1.100880   -0.512171
H      2.510868    0.270828   -1.628772
H      1.313618    1.423902    0.280775
H      1.723727    0.008625    1.332693
H      0.338181   -1.436594   -0.301066
H     -0.024474    0.043346   -1.204446
H     -0.982481    1.146703    0.712327
H     -0.571969   -0.237128    1.787379
H     -2.238107   -1.642761    0.445367
H     -2.985651   -0.117258    1.097670
H     -1.899692   -0.609195   -1.672346
H     -3.651877   -0.417055   -1.136713
H     -2.502849    1.021759   -1.046668
