17

C      1.149110   -0.819191   -1.215954
C      0.770866   -0.407817    0.189742
H      1.535187   -0.749637    0.923473
C      0.456570    1.030359    0.375992
O      0.354104    1.773483   -0.819187
H     -0.491774    2.294755   -0.786954
H      1.102147    1.529444    1.137542
C     -0.912612    0.664480    0.837069
H     -1.749386    1.061216    0.213976
H     -1.080859    0.852214    1.941997
C     -0.584752   -0.773230    0.645766
O     -1.419405   -1.298595   -0.377097
H     -2.340188   -0.982287   -0.109649
H     -0.647667   -1.402118    1.571519
H      0.331579   -0.613408   -1.904007
H      1.432616   -1.888985   -1.169904
H      2.094464   -0.270682   -1.454324
