18

C      1.580018   -0.592593   -0.726291
C      0.918989   -0.491397    0.607617
H      1.600686   -0.778320    1.460814
C      0.111514    0.730975    0.849117
C     -0.260474    1.653358   -0.290039
H     -0.499686    0.981496   -1.163327
H     -1.228922    2.122256   -0.020064
H      0.521822    2.354058   -0.570339
H      0.116985    1.216104    1.836258
C     -0.507368   -0.664415    0.835695
C     -1.508580   -0.899067   -0.253337
H     -2.200373   -1.720242   -0.013967
H     -2.125541    0.040864   -0.356676
H     -1.072335   -1.079256   -1.237565
H     -0.838748   -1.089706    1.828375
H      2.252353   -1.483012   -0.751288
H      2.240873    0.307647   -0.854383
H      0.898786   -0.608749   -1.580490
