15

C      1.772301    0.192067    0.491107
C      0.773398    0.303356   -0.621152
N     -0.590685    0.061983   -0.173295
C     -1.126857   -1.284661   -0.197906
H     -0.570594   -1.951984   -0.876124
H     -2.207979   -1.259607   -0.519463
H     -1.169014   -1.710296    0.843242
C     -1.389550    1.141736    0.284731
O     -2.563334    0.917952    0.667519
H     -1.054360    2.159758    0.328368
H      0.825477    1.354427   -1.006397
H      1.030719   -0.342393   -1.475868
H      2.319556    1.157319    0.675448
H      2.578266   -0.520689    0.154851
H      1.372655   -0.218969    1.424939
