17

C     -1.969510    0.436089    0.714069
C     -1.183967    0.820451   -0.515310
N      0.142484    0.309051   -0.552801
C      0.391016   -1.097016   -0.705276
H     -0.418089   -1.826153   -0.571757
H      1.224414   -1.343968   -1.419563
C      0.792882   -0.316845    0.543922
C      2.292637   -0.023569    0.661506
H      2.846258   -0.437610   -0.223461
H      2.681862   -0.443786    1.602979
H      2.482059    1.075296    0.654834
H      0.312621   -0.528435    1.496349
H     -1.729774    0.354198   -1.381027
H     -1.256529    1.911959   -0.687478
H     -2.871874    1.114353    0.716747
H     -2.365487   -0.593854    0.633884
H     -1.371002    0.589839    1.629121
