12

C     -1.098111   -0.853527    0.296193
C     -0.483469    0.517433    0.378832
H     -1.185163    1.368163    0.395875
N      0.804489    0.715030    0.965190
H      0.994483    1.643200    1.426044
C      0.778464    0.654066   -0.471968
C      1.368721   -0.545325   -1.040751
N      1.847359   -1.492976   -1.494530
H      0.807652    1.574489   -1.080331
H     -1.831345   -0.818193   -0.556915
H     -0.343860   -1.615927   -0.007610
H     -1.659221   -1.146435    1.189971
