13

C      2.952441    0.541621    0.777106
C      1.785530    0.385780    0.482501
C      0.335264    0.176955    0.137184
C     -0.706975    0.851985    0.280809
H     -0.814987    1.833769    0.737185
C     -1.892679    0.133802   -0.329925
H     -2.599938   -0.060649    0.516032
H     -2.343711    0.761021   -1.106208
O     -1.361174   -1.039169   -0.792757
C     -0.025239   -1.095091   -0.521277
H      0.622553   -1.244289   -1.431254
H      0.171282   -1.916203    0.225464
H      3.877632    0.670469    1.025141
