16

C      1.579148    0.630007   -0.336553
C      0.574742   -0.505914   -0.582241
H      0.894811   -1.230342   -1.320559
C      0.180844   -1.069245    0.779182
H      0.831142   -0.798809    1.603152
H      0.060982   -2.194780    0.668436
C     -1.158431   -0.407635    0.666317
H     -2.041561   -0.948431    0.987394
C     -1.299539    1.001357    0.219476
H     -0.574923    1.800649    0.423710
H     -2.325066    1.357222    0.056077
C     -0.837118   -0.025701   -0.716041
H     -1.458080   -0.318227   -1.581305
H      1.893852    0.694597    0.726711
H      1.192776    1.617501   -0.656131
H      2.486423    0.397750   -0.937623
