20

C     -1.972967    0.649153    0.026842
C     -1.710483   -0.782021   -0.368052
C     -0.537458   -0.932643   -1.275913
N      0.714559   -0.518963   -0.825494
C      1.500188   -1.096591    0.189283
H      2.602958   -1.195428   -0.028066
H      1.154968   -1.833666    0.904412
C      0.992756    0.345498    0.255806
C      1.991967    1.452918   -0.055135
H      1.744268    2.386821    0.470408
H      3.037679    1.145628    0.124453
H      1.924988    1.700716   -1.153843
H      0.362568    0.504755    1.133310
H     -0.782056   -0.354734   -2.212838
H     -0.462840   -2.004052   -1.627822
H     -1.688934   -1.467395    0.507303
H     -2.617201   -1.105313   -0.953648
H     -2.038408    0.712956    1.138924
H     -1.246000    1.374293   -0.399753
H     -2.970551    1.018069   -0.359247
