14

O      2.220520   -0.951966    0.184049
C      1.005866   -0.724443   -0.447212
C      0.322543    0.516582    0.047625
H      1.009705    1.384342    0.206860
C     -0.988605    0.871639   -0.550170
H     -1.480296    0.150602   -1.250559
H     -1.284839    1.940453   -0.621693
C     -0.857027    0.363428    0.904422
O     -1.382401   -0.911724    1.148179
H     -1.763160   -1.324810    0.328294
H     -1.014039    1.091921    1.711148
H      0.359585   -1.589807   -0.230775
H      1.117155   -0.699767   -1.561902
H      2.734992   -0.116449    0.131736
