12

N     -1.431563    0.845180    0.154020
C     -1.002414   -0.470952    0.453058
O     -1.862839   -1.276400    0.887813
C      0.427094   -0.838290    0.242923
H      0.727191   -1.877680    0.487736
C      1.146366   -0.132267   -0.873129
H      1.944435   -0.702600   -1.414220
H      0.565945    0.582951   -1.460540
N      1.447216    0.144886    0.504259
H      1.205914    1.059717    0.923545
H     -0.859220    1.649880    0.459830
H     -2.308123    1.015576   -0.365295
