12

N      1.669344    1.762402   -1.470253
C      1.236681    0.725552   -1.174534
C      0.674576   -0.616755   -0.802882
H      0.812915   -1.366112   -1.565249
O      1.117876   -0.880981    0.492178
C     -0.078802   -0.557055    1.057038
H     -0.484923   -1.143299    1.883425
C     -0.750051    0.747769    0.763123
H     -1.758558    0.874756    1.193340
H     -0.174626    1.665955    0.487489
C     -0.689620   -0.351019   -0.243441
H     -1.574812   -0.861213   -0.620233
