17

C      0.675374   -0.336274    1.340333
C      0.030666   -0.046209    0.006344
C      1.059516    0.412267   -1.011722
H      1.903062   -0.267864   -1.117434
H      1.458894    1.385990   -0.617424
H      0.497052    0.593226   -1.956788
C     -0.725948   -1.258545   -0.435767
H     -1.810484   -1.173425   -0.258313
H     -0.560300   -1.380979   -1.533571
H     -0.381093   -2.201196    0.037545
C     -0.974131    1.105234    0.111220
H     -1.310320    1.244669    1.161177
H     -1.833973    0.923703   -0.543663
H     -0.500324    2.074004   -0.185700
H      0.398306    0.510080    2.015003
H      0.308578   -1.275065    1.800083
H      1.765126   -0.309616    1.188677
