16

C      2.512076    0.746831    0.205852
C      1.391816   -0.223414   -0.113192
O      0.136634    0.330095    0.214477
C     -0.806346   -0.640364   -0.118250
C     -2.211155   -0.204718    0.171745
O     -2.490722    0.953777   -0.575676
H     -3.456102    1.145126   -0.491598
H     -2.891880   -0.986084   -0.209913
H     -2.390961   -0.022542    1.245661
H     -0.588756   -1.559397    0.470345
H     -0.715040   -0.799920   -1.213594
H      1.590125   -1.152110    0.462352
H      1.418442   -0.511804   -1.203340
H      3.261711    0.738605   -0.627663
H      3.082476    0.410919    1.114575
H      2.157682    1.775001    0.346682
