13

C     -0.899157   -1.090621    0.039886
C     -0.612871    0.216623   -0.664503
O     -1.813146    0.912806   -0.773694
H     -2.067231    1.168033    0.170049
C      0.357778    1.009961    0.123152
O      0.026733    2.117224    0.564574
C      1.669700    0.425445    0.333930
C      2.753342   -0.076322    0.521316
H      3.695161   -0.520511    0.669607
H     -0.238294    0.002692   -1.684888
H     -1.051683   -1.925078   -0.697933
H     -1.786541   -0.944885    0.689325
H     -0.033791   -1.295368    0.709180
