11

N      0.260108   -2.479185    1.263335
C      0.113069   -1.601412    0.549317
C     -0.078089   -0.459015   -0.347159
H     -0.409426   -0.745516   -1.373102
C     -0.946102    0.623889    0.174985
H     -1.308237    0.477404    1.236661
H     -1.824394    0.882834   -0.482333
O      0.083455    1.506439    0.161379
C      0.954839    0.584836   -0.316268
H      1.400461    0.815244   -1.320880
H      1.754317    0.394481    0.454064
