13

C      1.751124    1.285352    0.618471
C      0.669934    0.372556    0.141116
C      0.829898   -0.646656   -0.775188
H      1.773830   -0.878059   -1.237678
N     -0.375258   -1.244253   -0.948296
C     -1.240714   -0.589228   -0.145606
N     -2.622483   -0.960507   -0.075702
H     -3.146322   -0.804673    0.814244
H     -3.132827   -1.382734   -0.879955
O     -0.596462    0.342476    0.470420
H      1.470008    1.772583    1.575969
H      2.632623    0.654262    0.843808
H      1.986646    2.078881   -0.117115
