14

C      1.877192    0.038042    0.018384
C      0.464297    0.227270   -0.068518
C     -0.577861    0.293070    0.947407
H     -0.508156    0.495250    1.989105
C     -1.381170   -0.617864    0.184945
H     -2.165222   -1.283104    0.445130
C     -1.425203    0.813389   -0.081509
H     -2.248810    1.477855   -0.089504
N     -0.360672    0.771457   -1.062218
C     -0.417758   -0.641056   -0.897023
H     -0.110823   -1.393105   -1.570414
H      2.232275   -0.704638   -0.742266
H      2.139937   -0.428363    1.002190
H      2.481974    0.951795   -0.075708
