12

N      0.202701   -1.163440    0.868791
H     -0.521405   -1.235645    1.641619
C      0.566717    0.207593    0.687160
H      0.915535    0.849775    1.383006
C      0.798107   -0.018861   -0.700319
H      1.603838   -0.287141   -1.252329
N     -0.140512    1.026717   -1.028559
H      0.171717    1.999778   -0.754508
C     -0.821952    0.383848    0.048253
H     -1.613050    0.715561    0.575782
C     -0.387417   -0.896890   -0.416862
H     -0.774279   -1.581295   -1.052035
