8

O      0.370133   -1.771331   -0.183038
C      0.197479   -0.244255    0.107417
C      1.347227    0.303350    0.183806
C      1.971755    0.613145    0.230431
H      3.683210    1.430131    0.352289
C     -1.028051   -0.192822    0.161527
C     -2.729826   -0.103145    0.220264
H     -3.811927   -0.035073    0.256139
