12

O     -1.812632   -1.806316   -0.235529
C     -1.020952   -0.903351    0.060657
C      0.294212   -0.931981    0.703249
H      0.323123   -1.347758    1.736819
H      1.047312   -1.436438    0.021026
C      0.398519    0.545248    0.608595
C      1.516722    0.986456   -0.235025
N      2.386349    1.344154   -0.913170
H      0.393724    1.049845    1.611771
C     -0.934704    0.554468   -0.040976
H     -1.734533    1.129792    0.473084
H     -0.857140    0.815880   -1.142731
