16

C     -0.783731    1.202260    0.505782
C     -0.449273   -0.259759    0.302592
C     -1.535449   -1.005702   -0.431557
H     -2.284674   -1.434214    0.295560
H     -2.037055   -0.348994   -1.180329
H     -1.082829   -1.895238   -0.935828
C      0.814574   -0.371217   -0.449120
O      0.820908   -0.938408   -1.518922
C      2.109975    0.179214    0.030902
H      2.127051    0.319032    1.129205
H      2.905571   -0.536211   -0.258542
H      2.300850    1.119134   -0.529452
H     -0.343444   -0.771454    1.298432
H     -1.791120    1.460188    0.105206
H     -0.001394    1.839909    0.045151
H     -0.769960    1.441460    1.590920
