9

C     -1.175400   -1.239070   -0.683899
C     -0.266849   -0.239134   -0.145646
C      0.497999    0.614231    0.315918
C      1.395414    1.597698    0.831283
O      2.565482    1.239718    1.119147
H      1.143024    2.633445    0.993669
H     -1.067898   -2.131622   -0.020132
H     -0.868550   -1.536879   -1.727783
H     -2.223222   -0.938388   -0.682558
