11

O     -0.948098    1.304510   -0.740352
C     -0.538701    0.349175    0.195695
H     -0.952785    0.519131    1.220851
C     -0.786897   -1.065257   -0.229148
H     -1.274853   -1.098559   -1.223265
H     -1.376597   -1.677326    0.480072
O      0.597865   -1.263528   -0.209160
C      0.894098    0.035949    0.184985
N      2.020796    0.622185    0.418448
H      2.941742    0.103547    0.319376
H     -0.576572    2.170173   -0.417502
