14

C     -1.692196    0.657190    0.668879
C     -1.055343   -0.213128   -0.361743
C      0.320382   -0.692288    0.031452
O      1.190569    0.424520    0.238122
C      2.510187    0.264425    0.606418
O      2.947729   -0.890982    0.761166
H      3.103418    1.162141    0.743285
H      0.304609   -1.339021    0.929146
H      0.727667   -1.284406   -0.813562
H     -1.706112   -1.092917   -0.539921
H     -0.961233    0.322645   -1.328215
H     -2.510943    0.111273    1.224451
H     -2.220419    1.480391    0.140688
H     -0.958316    1.090155    1.401148
