12

O     -2.372318    0.522617    0.659427
C     -1.713744   -0.227740   -0.343847
C     -0.229837   -0.167880   -0.147456
N      0.540173   -0.986456    0.567368
N      1.812503   -0.624272    0.511507
H      2.649357   -1.058998    0.960242
C      1.870375    0.474977   -0.272128
H      2.773925    1.027880   -0.525105
N      0.604618    0.750278   -0.675080
H     -2.073493   -1.277789   -0.320844
H     -2.015137    0.240772   -1.306067
H     -1.846423    1.326611    0.891983
