16

C     -0.705255    1.447702    0.095381
C     -0.054720    0.109557    0.298202
C     -0.904543   -0.981828   -0.325699
O     -2.133628   -0.967356    0.326915
H     -2.783997   -1.509681   -0.189760
H     -0.378929   -1.945139   -0.214512
H     -1.083508   -0.741934   -1.390417
N      1.231703    0.065463   -0.413072
C      2.400464   -0.257999    0.337543
O      2.292985   -0.492160    1.569289
H      3.353217   -0.298115   -0.152473
H      1.254251    0.269454   -1.434863
H      0.077262   -0.124209    1.356043
H     -0.055950    2.095518   -0.549702
H     -1.710593    1.337374   -0.371162
H     -0.798757    1.993353    1.058288
