19

C     -2.685977    0.367658    0.425483
C     -1.251603   -0.049713    0.670505
C     -0.895215   -1.083309   -0.353156
C      0.526904   -1.575318   -0.201564
C      1.416342   -0.423142   -0.359390
C      2.162868    0.531409   -0.503169
C      3.063358    1.669835   -0.699309
H      3.648309    1.819097    0.210186
H      3.682895    1.472629   -1.596472
H      2.493210    2.611433   -0.899811
H      0.755649   -2.395983   -0.900587
H      0.598197   -2.010494    0.824978
H     -1.031230   -0.627931   -1.361294
H     -1.605076   -1.921146   -0.289467
H     -0.544518    0.793959    0.558238
H     -1.217467   -0.491046    1.686059
H     -3.308871   -0.547383    0.384588
H     -2.725844    0.874242   -0.556681
H     -3.081930    0.985202    1.256975
