18

C      1.925445    0.375755    0.497235
C      0.913103   -0.633169    0.041108
C     -0.421965    0.001445   -0.287894
C     -1.368431   -1.092701   -0.735297
H     -0.820097   -2.056910   -0.907795
H     -1.948006   -0.786924   -1.639666
H     -2.135869   -1.283757    0.070248
C     -1.013830    0.693669    0.936081
H     -0.378941    0.562257    1.832630
H     -2.038749    0.279501    1.165716
H     -1.187004    1.772913    0.733047
C     -0.199556    0.987460   -1.347106
N     -0.018200    1.764165   -2.211310
H      0.825606   -1.407415    0.822526
H      1.264129   -1.123718   -0.890666
H      2.910373    0.258325   -0.016304
H      2.127005    0.268716    1.585684
H      1.564986    1.420386    0.351763
