16

C      1.447145   -0.588265    0.685275
C      0.819242   -0.094260   -0.590479
H      1.499732   -0.220598   -1.477984
C     -0.624983   -0.281018   -0.803746
C     -1.548345   -0.690475    0.296134
H     -2.551167   -0.922720   -0.108600
H     -1.211332   -1.578284    0.864486
H     -1.697905    0.121007    1.066790
H     -0.933025   -0.617244   -1.814574
C     -0.031207    1.105174   -0.632578
O     -0.321860    1.811155    0.530988
H      0.309232    2.570419    0.592420
H     -0.075800    1.704804   -1.565091
H      2.282151    0.055427    1.037679
H      0.721862   -0.790581    1.481830
H      1.916261   -1.584540    0.437449
