12

O     -0.549512   -2.091653    0.985611
C     -0.407721   -1.017838    0.485974
C     -0.272508   -0.455198   -0.859976
H     -0.604951   -0.948279   -1.720775
N     -1.055918    0.672102   -0.331686
H     -2.049109    0.399799   -0.157427
C     -0.281766    0.385359    0.888907
H     -0.621029    0.752862    1.804896
C      1.082032    0.750816    0.382564
H      1.814499    1.354219    0.894549
C      1.095504    0.141213   -0.803190
H      1.850479    0.056596   -1.569447
