11

O     -1.001181    1.345194   -0.728436
C     -0.894881    0.303764    0.175214
H     -1.730951    0.298129    0.934408
C     -0.483401   -1.038149   -0.279532
H     -0.874540   -1.946451    0.218239
H     -0.144112   -1.105873   -1.332744
C      0.439401   -0.201074    0.604912
C      1.653844    0.324937    0.015464
N      2.618311    0.734241   -0.451182
H      0.527493   -0.461030    1.671936
H     -0.109982    1.746312   -0.828279
