12

O     -2.044002    0.137216    0.080158
C     -0.845096   -0.509816    0.293721
C      0.311699    0.321070   -0.231274
O      0.298175    1.521708    0.446030
H      0.410241    2.259744   -0.204933
C      1.584541   -0.410244    0.041549
O      2.419688    0.098102    0.784060
H      1.769830   -1.377200   -0.409434
H      0.186225    0.411833   -1.321799
H     -0.737510   -0.673231    1.395503
H     -0.863965   -1.501932   -0.175202
H     -2.489827   -0.277250   -0.698380
