14

C      1.403803    0.289620    0.393237
H      2.466841    0.165888    0.094464
H      1.290053    0.907811    1.307595
C      0.534913   -0.854687    0.103449
H      0.961614   -1.759794   -0.349192
C     -0.874766   -0.972928    0.589240
H     -1.455181   -1.504278   -0.189925
H     -0.962994   -1.537539    1.526083
O     -1.406100    0.302754    0.686322
C     -0.892566    1.034580   -0.367251
H     -1.577189    1.036357   -1.232151
H     -0.692385    2.093846   -0.068227
C      0.449061    0.428668   -0.720830
H      0.754896    0.369702   -1.772813
