15

C      1.829261   -0.100298    0.031462
C      0.395047   -0.001911   -0.085671
C     -0.413943    1.213711   -0.414890
H     -0.440182    1.410765   -1.475868
H     -0.304510    2.073537    0.278868
C     -1.597446    0.351128    0.035110
H     -2.443327    0.825923    0.460117
O     -1.783567   -0.770807   -0.789109
C     -0.515243   -1.204043   -0.382834
H     -0.146124   -2.192255   -0.561714
C     -0.642992   -0.456511    0.797765
H     -0.632910   -0.669910    1.842685
H      2.198620   -1.032535   -0.469041
H      2.130992   -0.229233    1.102699
H      2.366323    0.782441   -0.369579
