15

N      2.796652    0.123257   -0.193001
C      1.565285   -0.460235    0.213655
O      1.593307   -1.631803    0.651400
C      0.348150    0.356723    0.089827
N     -0.832720   -0.316714    0.522769
C     -2.049703    0.480799    0.406176
H     -2.008940    1.428965   -0.170397
H     -2.666025    0.468573    1.312371
C     -1.824769   -0.787734   -0.382048
H     -2.460533   -1.638916   -0.055094
H     -1.710476   -0.709986   -1.466955
H      0.475939    1.256884    0.760222
H      0.270772    0.790847   -0.937097
H      3.173986   -0.167680   -1.120204
H      3.329075    0.807020    0.368376
