11

C     -1.863203   -0.000553    0.158355
C     -0.386271   -0.037640    0.070117
N      0.484611   -0.773487    0.808325
C      1.729541   -0.449122    0.340320
H      2.636932   -0.874494    0.731681
C      1.573227    0.466293   -0.659185
H      2.347524    0.925836   -1.235602
O      0.293916    0.686613   -0.791037
H     -2.203505   -0.328035    1.169609
H     -2.349398   -0.658345   -0.593935
H     -2.263373    1.042934    0.001351
