9

C      1.984249   -0.386145   -1.332713
C      1.007577   -0.364030   -0.624906
C     -0.189595   -0.360819    0.241327
H     -0.061933   -0.552971    1.320092
C     -1.300787    0.600775   -0.192675
H     -1.757133    1.159577    0.620158
H     -1.153073    1.091340   -1.173705
O     -1.390383   -0.779484   -0.277539
H      2.861078   -0.408242   -1.945697
