15

C     -0.284957    1.449662   -0.186861
C     -0.065135   -0.032884   -0.214038
O      1.152429   -0.581148   -0.610440
C      2.337403   -0.293982    0.061150
O      2.236747    0.487873    1.042772
H      3.291862   -0.727267   -0.254079
C     -0.915971   -0.822858    0.771127
H     -1.621929   -0.278120    1.426267
H     -0.464138   -1.702144    1.263369
C     -1.280383   -0.865257   -0.663332
H     -1.110302   -1.794664   -1.203786
H     -2.162450   -0.290059   -1.022433
H      0.195074    1.839250    0.739308
H     -1.369552    1.633791   -0.079696
H      0.061302    1.977806   -1.069328
