15

C     -0.608224   -0.732310   -1.336226
C     -0.237449    0.622511   -0.760668
H     -0.044344    1.414409   -1.522578
C     -0.849900    1.035198    0.564756
H     -1.143041    2.088663    0.628247
H     -1.621750    0.331632    0.932390
C      0.568971    0.637341    0.507822
C      1.054477   -0.674105    1.064545
H      1.904236   -1.003326    0.409882
H      0.271685   -1.425565    1.173260
H      1.513173   -0.495296    2.062028
H      1.332486    1.457271    0.598429
H      0.263949   -1.215531   -1.837942
H     -0.910106   -1.387821   -0.489757
H     -1.494164   -0.653070   -1.994189
