15

C      0.455949   -1.404569   -0.628694
C     -0.292101   -0.085234   -0.613024
H     -0.789712    0.113219   -1.571635
C     -1.276485    0.021849    0.524742
H     -2.306802    0.294119    0.213694
H     -1.275526   -0.901914    1.155679
N     -0.557815    1.115663    1.112672
H     -1.101368    1.985275    1.172467
C      0.425696    1.057844    0.035409
C      1.713032    0.669117    0.572939
N      2.747900    0.374752    0.997637
H      0.420775    1.997877   -0.561477
H      1.023059   -1.565896    0.295597
H      1.094470   -1.440042   -1.537532
H     -0.281072   -2.232060   -0.715377
