10

N      1.764748   -0.434754   -0.018607
C      0.348377   -0.178282   -0.028245
C     -0.207931    1.041493    0.244536
H      0.230840    1.995652    0.502968
N     -1.538772    0.874418    0.134630
C     -1.772930   -0.412670   -0.195541
H     -2.781562   -0.793706   -0.341716
O     -0.620130   -1.024537   -0.287327
H      2.215907   -0.872661    0.809960
H      2.361454   -0.194954   -0.820658
