11

C      0.393918    0.892881   -0.106500
H      0.762567    1.866804   -0.277274
C     -0.803097    0.215416   -0.565395
H     -1.531373    0.518086   -1.274483
C     -0.605106    0.403180    0.822848
H     -1.099375    0.981569    1.576895
N      0.133647   -0.796524    1.022176
C      1.069753   -0.401656   -0.026098
H      2.122666   -0.596978    0.041216
C     -0.061905   -1.051423   -0.468923
H     -0.381697   -2.031354   -0.744463
