12

C     -2.168058   -0.162666    0.002365
O     -0.844319   -0.630310    0.206993
C      0.282174    0.105177   -0.116193
O      0.099930    1.238371   -0.613370
C      1.658292   -0.383930    0.097886
O      2.577104    0.562991   -0.317973
H      2.350766    1.445628    0.111474
H      1.860391   -1.337238   -0.454789
H      1.823538   -0.609405    1.181951
H     -2.844265   -0.973901    0.369177
H     -2.405224    0.730327    0.606620
H     -2.390330    0.014957   -1.074139
