11

C      2.735001    0.288681    0.760429
C      1.571250    0.110276    0.429793
C      0.206191   -0.088363    0.024295
C     -0.831457    0.818004    0.098786
H     -0.743100    1.818822    0.482645
C     -1.985838    0.227106   -0.397224
H     -2.969336    0.675671   -0.475218
N     -1.625101   -1.017694   -0.759649
N     -0.346524   -1.208211   -0.516140
H      0.239138   -2.058447   -0.680767
H      3.749777    0.434156    1.033049
