17

C     -2.491135    0.597687   -0.596119
O     -1.414854    0.204075   -1.343805
C     -0.429453   -0.471269   -0.680060
C      0.211569    0.296211    0.437203
H     -0.418540    0.941838    1.052728
C      1.327939   -0.409421    1.221023
H      1.538206   -1.464853    0.890763
H      1.328729   -0.292540    2.328380
C      1.638464    0.728765    0.326480
O      2.294051    0.403371   -0.861364
H      3.255401    0.256306   -0.709243
H      1.972984    1.677611    0.769358
H     -0.794271   -1.438597   -0.231748
H      0.369910   -0.722186   -1.408488
H     -3.211690    1.127967   -1.268796
H     -2.165358    1.368687    0.132953
H     -3.011953   -0.206910   -0.059264
