10

C     -1.412029   -0.060961   -0.029763
C      0.062150   -0.277624   -0.046052
C      0.966536    0.741984    0.125685
H      0.756842    1.779350    0.286692
O      2.153690    0.210884    0.056354
N      2.040635   -1.078753   -0.148359
N      0.752549   -1.420511   -0.217879
H     -1.716200   -0.015575    1.057634
H     -1.639230    0.934989   -0.490261
H     -1.964943   -0.813783   -0.594049
