15

C     -0.262470   -1.168892    0.838928
C     -0.352116    0.272062    0.405084
C      0.493597    0.496170   -0.843280
C      1.880148    0.163650   -0.525881
C      3.044265   -0.094522   -0.254173
H      4.064636   -0.318424   -0.033334
H      0.108831   -0.212617   -1.619281
H      0.427501    1.552183   -1.162976
C     -1.737470    0.655738    0.105217
C     -2.897411    0.977992   -0.124089
H     -3.897343    1.258451   -0.340005
H     -0.026227    0.921039    1.236823
H     -1.028941   -1.327491    1.628987
H     -0.573177   -1.785709   -0.029665
H      0.756175   -1.389631    1.170743
