13

C     -1.819476   -0.166189    0.636169
N     -0.499002    0.354663    0.360442
C     -0.164393    0.781613   -0.970555
H     -0.835999    0.563636   -1.818582
H      0.458134    1.697436   -1.041918
C      0.455741   -0.461907   -0.325144
C      1.839533   -0.296587    0.180693
C      2.959500   -0.143786    0.600833
H      3.948601   -0.021601    0.985860
H      0.184496   -1.437705   -0.749909
H     -2.198883   -0.832852   -0.168645
H     -2.539456    0.675331    0.701607
H     -1.788794   -0.712053    1.609150
