16

O      2.453794   -0.282003   -0.517643
C      1.450318   -0.522017    0.450483
C      0.320582    0.417815    0.101622
H      0.646206    1.478039   -0.049487
C     -0.875886    0.376164    0.965482
H     -1.187659    1.360465    1.383399
H     -0.866629   -0.392877    1.781274
C     -1.684786   -0.123981   -0.181988
H     -2.093957   -1.149261   -0.089244
H     -2.425009    0.647982   -0.479541
C     -0.473774   -0.081813   -1.055354
H     -0.140428   -1.086192   -1.401249
H     -0.518602    0.650207   -1.897127
H      1.135144   -1.571250    0.280957
H      1.821260   -0.418246    1.468440
H      2.439428    0.696969   -0.760026
