15

N      1.564278   -0.580545    0.000018
C      0.824693    0.570609    0.478451
C      1.109139    1.711452   -0.394830
N      1.346928    2.600404   -1.072791
C     -0.665782    0.258532    0.521043
H     -1.236917    0.939176    1.165201
C     -1.342673   -0.117777   -0.757431
H     -0.678301   -0.208331   -1.649708
H     -2.375750    0.195747   -0.975352
C     -1.163040   -1.110651    0.365996
H     -0.507124   -1.963985    0.105257
H     -2.097202   -1.396758    0.916617
H      1.184519    0.812633    1.493261
H      1.566763   -1.364807    0.674772
H      2.470469   -0.345700   -0.417403
