21

C      2.618117   -0.423855   -0.765017
C      1.658200   -0.512575    0.374689
C      1.052966    0.825792    0.748515
O      0.347887    1.402781   -0.298834
C     -0.694879    0.634710   -0.743224
C     -1.743990    0.332604    0.292453
C     -2.811019   -0.521699   -0.381996
H     -3.178331   -0.022789   -1.297403
H     -3.707695   -0.613741    0.289035
H     -2.436138   -1.509494   -0.673775
H     -2.254215    1.237058    0.645411
H     -1.321638   -0.289028    1.119380
H     -0.387773   -0.336247   -1.185401
H     -1.206496    1.184439   -1.572816
H      1.886933    1.459905    1.098644
H      0.412860    0.644090    1.636853
H      0.858102   -1.228116    0.159849
H      2.161959   -0.883480    1.308276
H      2.221238   -0.923143   -1.685966
H      3.521327   -1.042242   -0.487694
H      3.002586    0.585029   -0.959083
