11

O      0.767991   -0.954475    1.132605
C      0.738065   -0.584462   -0.226698
C     -0.482058    0.308897   -0.398995
O     -1.647931   -0.395451   -0.047334
H     -1.848642   -1.090919   -0.703425
C     -0.358943    1.523725    0.386590
N     -0.260187    2.490582    0.991998
H     -0.583928    0.538635   -1.481291
H      1.625812    0.010802   -0.454725
H      0.678526   -1.483898   -0.840858
H      1.371296   -0.363436    1.642133
