14

C     -2.024327    0.424103    0.221529
C     -0.592866    0.077232    0.050905
C      0.417474    0.930750    0.056509
H      0.372147    2.018716    0.185495
C      1.685825    0.226533   -0.140202
N      2.886237    0.733671   -0.191707
H      3.708424    0.078385   -0.342033
O      1.373521   -1.104923   -0.264442
C     -0.020719   -1.254414   -0.154184
H     -0.409569   -1.763033   -1.061750
H     -0.199005   -1.939461    0.710783
H     -2.651051    0.111897   -0.630306
H     -2.379507   -0.053055    1.179634
H     -2.166585    1.513598    0.379769
