9

C     -0.057183    1.330871    0.423287
H     -0.037452    2.424760    0.543327
N      1.107708    0.677546    0.438437
C      1.198587   -0.656918    0.300479
H      2.136926   -1.180863    0.312941
N      0.034250   -1.306469    0.144131
C     -1.143855   -0.675455    0.125585
H     -2.056594   -1.256140   -0.004741
N     -1.182386    0.642669    0.265634
