16

C      1.486972   -0.582465    0.646873
C      0.797615   -0.341101   -0.673483
H      1.395691   -0.689684   -1.547928
C     -0.675154   -0.349363   -0.762570
C     -1.552898   -0.509508    0.430713
H     -2.620822   -0.508339    0.080789
H     -1.342065   -1.413154    1.035612
H     -1.472986    0.366063    1.113824
H     -1.082637   -0.838568   -1.693432
C      0.083115    0.943699   -0.894227
C     -0.003617    1.910640    0.190625
N     -0.073076    2.672045    1.050018
H      0.004201    1.396675   -1.907662
H      2.293466    0.158705    0.843176
H      0.770992   -0.637100    1.481950
H      1.991205   -1.578544    0.605720
