12

O      1.777621   -0.522119    0.562696
C      0.789551    0.060592   -0.195200
H      1.219220    0.633349   -1.058105
C     -0.346203   -0.851978   -0.556620
H     -0.292761   -1.881116   -0.165206
H     -0.531857   -0.877791   -1.660394
C     -1.263580    0.063607    0.180153
H     -1.993690    0.624421   -0.460311
H     -1.765243   -0.323173    1.075438
C     -0.140577    0.970587    0.540442
O     -0.006962    1.998787    1.156162
H      2.554481    0.104835    0.580946
