11

O      2.611352   -0.854785   -0.041754
C      1.379080   -0.514307   -0.025767
C      0.986881    0.797071    0.050352
H      1.732192    1.564199    0.098144
C     -0.351672    1.095410    0.063504
H     -0.705092    2.135507    0.123709
N     -1.277633    0.091221    0.001134
H     -2.305471    0.345505    0.012739
C     -0.891822   -1.187218   -0.073064
H     -1.591759   -1.998292   -0.123330
N      0.413945   -1.474312   -0.085667
