14

C     -2.369012    0.146665    0.147790
C     -0.956948    0.299811   -0.386970
O     -0.055382   -0.130828    0.604507
C      1.228490    0.024351    0.078151
C      2.234258   -0.404651    1.053946
C      3.071915   -0.739566    1.855078
H      3.809679   -1.031302    2.584415
H      1.386363    1.117259   -0.157712
H      1.314487   -0.556644   -0.879618
H     -0.818425   -0.392944   -1.243323
H     -0.735204    1.311556   -0.741557
H     -2.588293   -0.936888    0.185689
H     -3.043477    0.689111   -0.547337
H     -2.478451    0.604071    1.148256
