20

C      2.168507    0.676009   -0.390353
C      0.831119    0.521699    0.342764
H      0.960177    0.748543    1.440181
N     -0.345067    0.896812   -0.344812
C     -1.459099    1.532352    0.262455
H     -2.041120    0.888338    0.960788
H     -1.223308    2.513815    0.733201
H     -2.191259    1.785107   -0.559732
C     -0.102511   -0.502800   -0.016759
C      0.005596   -1.366724   -1.255665
H      0.172562   -0.774081   -2.177669
H      0.787365   -2.124498   -1.198608
H     -0.976346   -1.864781   -1.378699
C     -0.924402   -1.136473    1.089558
H     -1.905653   -1.473184    0.763344
H     -0.338381   -2.041979    1.414622
H     -0.944567   -0.483031    1.998809
H      2.676318    1.618476   -0.066962
H      1.985048    0.728644   -1.468288
H      2.865022   -0.142245   -0.148174
