11

C      1.514239    0.235180   -0.054460
C      0.278416   -0.241636    0.590982
O      0.206574   -0.395383    1.802570
C     -0.945805   -0.561689   -0.198149
C     -1.856680    0.577922   -0.177222
N     -2.570136    1.490654   -0.158757
H     -0.607120   -0.817987   -1.229128
H     -1.465210   -1.467969    0.220169
H      1.236068    0.815779   -0.983205
H      2.139687   -0.598582   -0.407889
H      2.069966    0.963711    0.595091
