12

C     -1.738763   -0.247263   -0.170586
C     -0.258413   -0.294548   -0.087313
C      0.639299    0.743848   -0.036443
O      0.389130    2.096057   -0.050043
H      0.905575    2.780631    0.504447
N      1.849098    0.174687    0.031426
C      1.715059   -1.161498    0.023412
H      2.499723   -1.908240    0.067288
O      0.431076   -1.405464   -0.048907
H     -2.089805   -0.664905   -1.140394
H     -2.211512   -0.895671    0.612371
H     -2.130469    0.782365   -0.118847
