11

C      1.260712    0.054524   -0.215233
H      1.360715    0.902815   -0.937225
H      2.173296   -0.257616    0.308393
C      0.049813    0.082326    0.651195
H      0.075244   -0.187038    1.714196
C     -1.202532    0.598115    0.002401
H     -1.082817    1.620918   -0.434339
H     -2.075785    0.444076    0.642917
O     -1.027182   -0.396240   -0.976544
C      0.147758   -0.896069   -0.443836
H      0.320777   -1.965812   -0.311923
