16

C     -1.605175   -0.360836   -0.713506
C     -0.575038   -0.516214    0.338679
H     -0.893574   -0.942238    1.306625
N      0.683658   -1.160446   -0.110433
C      0.920494    0.123902   -0.813977
H      0.300162    0.275326   -1.691314
H      2.016066    0.221189   -0.947009
C      0.388251    0.606345    0.494662
O      0.163938    1.792176    0.848595
H     -0.085687    2.411454    0.116412
C      1.260931   -0.423229    1.046570
H      0.894751   -0.864065    1.988816
H      2.333612   -0.249671    0.956329
H     -1.826485    0.737523   -0.829384
H     -1.402613   -0.856216   -1.662669
H     -2.573293   -0.795001   -0.328395
