12

C      1.083335   -0.033640   -0.419427
H      1.474459    0.455523   -1.307880
H      1.807513   -0.590347    0.200773
C      0.190389    0.802504    0.458373
H      0.432690    1.642388    0.944180
C     -0.922163    0.507781   -0.455278
H     -1.319556    1.087246   -1.183228
O     -1.635426    0.022447    0.650708
C     -0.381608   -0.461208    0.928225
H     -0.100141   -1.049845    1.702719
C     -0.217371   -0.760412   -0.522822
H     -0.412120   -1.622437   -0.996343
