12

O      2.517570    0.214608    1.129187
C      2.231795   -0.573554    0.206488
O      0.965134   -0.555980   -0.307502
C     -0.049307    0.287738    0.125806
H      0.220599    0.986307    0.950621
C     -1.411911   -0.391714    0.242801
H     -2.023714   -0.216036    1.133820
H     -1.533594   -1.395840   -0.210346
C     -1.161964    0.725562   -0.741305
H     -1.666661    1.682962   -0.533657
H     -1.052905    0.489404   -1.817832
H      2.964959   -1.253458   -0.178082
