13

N      3.035653   -0.123766   -0.190455
C      1.899231   -0.248831   -0.378262
C      0.459033   -0.393540   -0.620192
H      0.292257   -0.967552   -1.558486
C     -0.303102   -0.883501    0.567311
H      0.377347   -1.023981    1.433887
H     -0.910859   -1.803508    0.408430
C     -1.052679    0.397622    0.610704
H     -2.158007    0.309931    0.483244
H     -0.832878    0.969899    1.557959
C     -0.305883    0.897351   -0.565221
H     -0.897737    1.134790   -1.475549
H      0.397624    1.735087   -0.273371
