12

C     -1.712484   -0.906837    0.680110
C     -0.416742   -0.506937    0.099910
O      0.083618   -1.213541   -0.747667
C      0.280779    0.727572    0.526639
C      1.569233    0.810191   -0.210059
C      2.598927    0.866952   -0.814294
H      3.530260    0.937131   -1.363746
H      0.483449    0.725916    1.629569
H     -0.307340    1.653888    0.349476
H     -1.765337   -2.032290    0.622059
H     -1.785358   -0.626384    1.768712
H     -2.559006   -0.435660    0.107063
