13

C      2.421816   -0.526561   -0.689003
C      1.349533   -0.272921   -0.324206
C      0.094074    0.018955    0.078700
C     -0.823296   -1.138947    0.464590
H     -0.518634   -2.135699   -0.030589
H     -1.214422   -1.210889    1.472297
C     -1.229380   -0.080990   -0.423516
H     -1.441943   -0.204506   -1.502163
O     -1.661031    1.118898    0.179713
C     -0.365257    1.387133    0.499824
H      0.032326    2.159379   -0.223141
H     -0.101405    1.670702    1.537954
H      3.457620   -0.784555   -1.040459
