14

O      2.890718   -0.694460   -0.450846
C      1.812406   -0.644751   -1.338493
C      0.611852   -0.485284   -0.482625
C     -0.361170   -0.348413    0.216210
C     -1.552369   -0.192438    1.060173
H     -2.220124   -1.082208    1.181620
C     -1.514580    0.772524    2.111280
H     -0.699733    1.476124    2.325934
H     -2.240907    0.685344    2.950745
N     -2.267539    1.072362    0.840053
H     -1.831198    1.769559    0.213609
H      1.959766    0.273051   -1.967903
H      1.749738   -1.566089   -1.953447
H      3.663139   -1.035322   -1.004999
