10

N      2.060595   -0.070592    0.015925
C      0.626503   -0.013043   -0.002667
N     -0.198157   -1.038579    0.272839
C     -1.469558   -0.618077    0.156467
H     -2.387916   -1.165930    0.302637
C     -1.401528    0.707689   -0.201808
H     -2.284311    1.336107   -0.373563
O     -0.141825    1.009878   -0.280838
H      2.563999    0.361545    0.822718
H      2.632198   -0.508997   -0.711710
