9

C     -1.335453   -0.022692    0.001710
C      0.161152    0.005310    0.023094
N      0.951879   -0.580666   -0.875056
O      2.177446   -0.360900   -0.559565
N      2.182293    0.350606    0.517460
N      0.954604    0.605763    0.920932
H     -1.749236   -0.143943    1.010253
H     -1.660502    0.974689   -0.362321
H     -1.682183   -0.828166   -0.676507
