15

C      2.662860    0.062455   -0.453745
O      1.346658   -0.471061   -0.557171
C      0.395117    0.008491    0.346167
O      0.735826    0.879197    1.201131
C     -1.010725   -0.451829    0.359454
C     -1.995600    0.668416    0.169544
H     -1.446647    1.650422    0.136835
H     -2.551647    0.575503   -0.791912
H     -2.698310    0.766773    1.043515
O     -1.190753   -1.392010   -0.635022
H     -1.962812   -1.981172   -0.490021
H     -1.204485   -0.970409    1.332820
H      2.691207    1.089644   -0.893340
H      3.372153   -0.629249   -0.944411
H      2.857159    0.194831    0.629253
