13

C      1.185854   -0.846885   -0.007182
C      0.483011    0.439147    0.388591
O      1.245412    1.550328    0.037705
H      0.653675    2.355184   -0.105437
C     -0.838014    0.499900   -0.300417
O     -1.121583    1.453435   -1.062616
N     -1.794742   -0.531272   -0.097133
H     -1.470903   -1.514617   -0.230172
H     -2.778983   -0.280404    0.175206
H      0.323784    0.387607    1.486847
H      0.519810   -1.694565    0.177227
H      2.095278   -0.989656    0.606965
H      1.497402   -0.828202   -1.069585
