8

O      0.017638    1.892567   -0.194924
C      0.004296    0.638658    0.044384
N     -1.080424   -0.123832    0.260887
H     -2.061109    0.261272    0.252286
N     -0.678818   -1.361405    0.469739
N      0.640551   -1.356674    0.381850
N      1.081390   -0.143533    0.122105
H      2.076477    0.192947   -0.007492
