10

O      2.034717   -0.182427    0.121184
C      0.682298    0.034692    0.078929
C     -0.370433   -0.860222   -0.002507
H     -0.271440   -1.932995   -0.047639
N     -1.542111   -0.198476   -0.017501
H     -2.519836   -0.603816   -0.073714
N     -1.241286    1.087781    0.052795
C      0.076861    1.282195    0.112503
H      0.601056    2.226954    0.175827
H      2.550174   -0.853686   -0.399876
