10

C      1.061165    0.231113    0.009802
C     -0.257772   -0.395814   -0.386838
O     -0.570632   -1.430432    0.503253
H     -0.793170   -1.002437    1.364075
C     -1.276016    0.657101   -0.258280
N     -2.079814    1.485587   -0.157825
H     -0.200376   -0.762334   -1.432877
H      1.324139    0.994224   -0.736380
H      0.909075    0.706131    1.009069
H      1.883401   -0.483138    0.086001
