21

C      2.851663    0.083200    0.072329
O      1.577170    0.300849   -0.498910
C      0.659287   -0.155832    0.445075
C     -0.762733    0.018048   -0.040010
C     -0.981822    1.484643   -0.284869
H     -0.545926    2.079982    0.544452
H     -0.415580    1.753337   -1.199913
H     -2.049452    1.749128   -0.405060
C     -0.973632   -0.771763   -1.320079
H     -0.213558   -1.579792   -1.326029
H     -1.960087   -1.277219   -1.342136
H     -0.878781   -0.146540   -2.216725
C     -1.679416   -0.540485    1.026304
H     -1.101095   -1.182476    1.753761
H     -2.185534    0.226806    1.618661
H     -2.412741   -1.266081    0.566105
H      0.790395    0.421840    1.365135
H      0.827303   -1.224652    0.637878
H      2.934163    0.652315    1.025198
H      3.580670    0.390289   -0.685452
H      2.939708   -1.015594    0.264284
