8

O      1.148953   -1.291418   -0.606480
C      1.197592   -0.133769   -0.113516
N      0.040559    0.523751    0.385705
C     -1.220789   -0.089230    0.353322
O     -1.342015   -1.236601   -0.121755
H     -2.102281    0.395656    0.726693
H      0.105427    1.495967    0.795262
H      2.172556    0.335644   -0.090397
