12

C     -1.704118   -0.200843   -0.015730
C     -0.237453    0.072615    0.007566
C      0.753925   -0.885576    0.000311
H      0.547509   -1.949463   -0.023594
C      1.946088   -0.213475    0.028285
H      2.922879   -0.642287    0.031505
N      1.676058    1.098577    0.051404
N      0.359549    1.291670    0.039324
H     -0.116541    2.230132    0.052422
H     -1.877688   -0.914262   -0.863231
H     -2.216840    0.748124   -0.257304
H     -2.053369   -0.635211    0.949042
