14

C      1.374688    0.350052    0.825736
H      1.649472    1.389036    1.092083
H      1.809200   -0.379347    1.561321
N      1.744571   -0.052992   -0.595624
H      2.117618    0.751283   -1.167499
C      0.434010   -0.049497   -0.097493
C     -0.742298    0.563557   -0.711811
H     -0.899302    1.467194   -1.111229
C     -1.566087   -0.124562    0.342828
H     -1.386959    0.308955    1.332194
H     -2.592021   -0.352664    0.046515
C     -0.550205   -1.126776   -0.159234
H     -0.506399   -2.097535    0.084907
O     -0.886286   -0.646704   -1.442694
