13

O      2.386025    0.799014    0.460873
C      1.484708    0.925992   -0.328912
C      0.773687   -0.269981   -0.827887
C     -0.193273   -0.689203    0.270887
H      0.254110   -1.288616    1.080960
C     -1.211467    0.388735    0.618401
H     -1.433700    0.492996    1.687454
H     -1.293936    1.263500   -0.029257
N     -1.577861   -0.863236   -0.048744
H     -2.082771   -1.524439    0.567295
H      0.208433   -0.036158   -1.755632
H      1.500335   -1.091771   -1.015966
H      1.185711    1.893166   -0.679471
