11

C     -1.422462   -0.007657    0.016442
N      0.036627   -0.005954    0.000301
C      0.825926   -1.075712   -0.081507
H      0.505932   -2.096725   -0.147648
N      2.074972   -0.631984   -0.065125
N      2.088281    0.679425    0.024246
C      0.814820    1.080840    0.065822
H      0.456630    2.126525    0.141176
H     -1.770348   -0.748343   -0.745045
H     -1.798837   -0.329267    1.019310
H     -1.811543    1.008854   -0.227973
