11

C     -1.552451    0.365867    0.433979
O     -0.650821    1.066421   -0.441536
C      0.671287    0.911194   -0.385190
C      1.301293   -0.307700   -0.708993
C      1.943921   -1.527873   -1.011006
H      2.405473   -2.410938   -1.228329
H      1.210652    1.220304    0.669733
H      0.278586   -0.009841    0.844124
H     -1.409948   -0.714944    0.418876
H     -2.577917    0.550869   -0.026932
H     -1.620075    0.856641    1.435276
