8

N     -1.082362   -0.071442    0.081898
H     -2.089550    0.265258    0.164190
C      0.002895    0.709393    0.010452
H      0.058492    1.776363    0.022252
C      1.074856   -0.139749   -0.084508
H      2.113035    0.189907   -0.159128
N      0.616649   -1.397772   -0.068311
N     -0.694015   -1.331958    0.033156
