8

O     -3.361926    0.644934    0.784264
C     -1.927543    0.683385    0.734803
C     -1.212912    0.523583    0.592181
C     -0.182155    0.273516    0.381618
C      1.912729   -0.223928   -0.081300
C      3.115463   -0.503309   -0.368851
H      4.189515   -0.764077   -0.636393
H     -2.533169   -0.634104   -0.077488
