16

C      1.834630    0.495700   -0.543426
C      0.570831   -0.342081   -0.635689
O      0.659071   -1.283576    0.408590
H      1.106545   -2.114148    0.096580
C     -0.660168    0.488062   -0.348476
C     -1.835019   -0.473918   -0.271720
H     -1.456264   -1.454115    0.141012
H     -2.583938   -0.049718    0.402230
H     -2.190147   -0.627045   -1.311839
O     -0.457626    1.095131    0.901338
H     -1.122303    1.824176    1.004835
H     -0.819948    1.285766   -1.093834
H      0.537681   -0.848644   -1.611702
H      1.705756    1.432751   -1.091750
H      2.079492    0.660751    0.538459
H      2.631405   -0.089092   -1.041731
