16

C     -0.843916    1.265771    0.603765
C     -0.136728    0.095468   -0.056525
C     -1.114034   -0.736529   -0.870072
H     -1.945725   -0.998508   -0.187231
H     -1.434024   -0.142392   -1.740507
H     -0.571731   -1.632459   -1.206273
C      0.669097   -0.758829    0.822519
H      0.798118   -0.370998    1.876376
H      0.479477   -1.855158    0.792538
N      1.828810   -0.398161    0.084531
H      2.868640   -0.614862    0.103167
C      1.092284    0.408761   -0.751785
O      1.440854    1.128666   -1.743894
H     -0.668805    2.162372   -0.009969
H     -1.934984    1.063416    0.621071
H     -0.527331    1.383443    1.662288
