14

C     -1.444157    1.074324    0.014133
C     -0.334619    0.056999   -0.108864
C      1.022224    0.458171    0.311881
O      1.174442    1.456654    1.060636
N      2.200819   -0.228090   -0.086843
H      2.712734    0.160861   -0.910662
H      2.493865   -1.068381    0.448846
C     -0.678779   -1.381313    0.129984
H      0.036567   -2.039564    0.632725
H     -1.756676   -1.647446    0.297097
O     -0.426468   -0.864421   -1.130266
H     -2.109024    1.015538   -0.846880
H     -1.920700    0.929093    0.992737
H     -0.970227    2.077575    0.005349
