17

O      2.336150    0.021878   -0.683339
C      1.780086   -0.661828    0.383011
C      0.280438   -0.521270    0.420659
H     -0.099238   -1.051154    1.319469
C     -0.181213    0.911670    0.413602
H      0.530051    1.565397   -0.126880
H     -0.336525    1.244547    1.466673
C     -1.499147    0.832652   -0.338388
H     -2.348002    1.093028    0.308801
H     -1.447994    1.481648   -1.254635
C     -1.603715   -0.628568   -0.716004
H     -2.051039   -0.795645   -1.703979
H     -2.114099   -1.189326    0.102192
O     -0.257461   -1.018120   -0.755388
H      1.993030   -1.748992    0.237212
H      2.212775   -0.385385    1.361745
H      2.805903    0.849467   -0.434749
