12

C     -1.681409   -0.189959   -0.001234
C     -0.234433    0.081950    0.005929
C      0.763737   -0.896920   -0.056028
H      0.554261   -1.958684   -0.115708
N      1.927414   -0.235386   -0.024869
H      2.860974   -0.677010   -0.055634
N      1.715922    1.062352    0.050789
C      0.390593    1.311809    0.072819
H     -0.113227    2.273635    0.130918
H     -1.921249   -0.923960   -0.806197
H     -2.243240    0.753699   -0.193966
H     -2.019342   -0.601527    0.993180
