16

O      2.581706   -1.040690    0.052610
C      1.189245   -0.914944    0.027380
C      0.878442    0.520609   -0.287152
C     -0.609408    0.789197   -0.343594
H     -0.847414    1.704979   -0.953493
C     -1.477630    0.559891    0.809888
H     -2.348798    1.208953    0.965953
H     -1.175325   -0.007809    1.710558
C     -1.585474   -0.311866   -0.460119
H     -2.477830   -0.169380   -1.099466
H     -1.297509   -1.378044   -0.361700
H      1.368030    0.789270   -1.241723
H      1.303356    1.198151    0.481389
H      0.807108   -1.537531   -0.808669
H      0.734151   -1.184298    1.000986
H      2.957351   -0.226488    0.507153
