15

O      2.367626    0.302865    0.989813
C      1.527283    0.468484   -0.100309
C      0.569018   -0.682156   -0.248392
H      0.940444   -1.463357   -0.923896
O     -0.088535   -1.179240    0.841166
C     -1.318688   -0.840564    0.373419
H     -2.158207   -1.578985    0.275407
C     -1.618552    0.621244    0.169850
H     -2.635613    0.888219   -0.192757
H     -1.219189    1.296621    0.939773
C     -0.762293   -0.128760   -0.805320
H     -0.931688   -0.232203   -1.826681
H      1.150265    1.450240   -0.213610
H      2.263964    0.370361   -1.029121
H      1.914166    0.707231    1.750659
