15

C     -1.005433   -1.354508   -0.396017
C     -0.185830   -0.205411    0.091030
C     -0.658596    0.693243    1.181911
H     -1.658315    0.596521    1.570915
H      0.170495    0.758953    1.960634
O     -0.458229    1.785384    0.328785
C      0.052803    1.008296   -0.686054
H     -0.322941    1.128452   -1.702578
C      1.181869    0.068455   -0.444799
O      2.115835    0.237235    0.564509
H      2.808556    0.902561    0.370894
H      1.513090   -0.506137   -1.320890
H     -1.538405   -1.208182   -1.342773
H     -0.306798   -2.214794   -0.561928
H     -1.708102   -1.690069    0.386362
