16

C     -1.266783    1.293094    0.174452
C     -0.308494    0.130641    0.464132
C     -1.002795   -1.134271   -0.032794
H     -1.671787   -1.555629    0.740781
H     -1.569493   -0.924565   -0.981376
H     -0.230324   -1.875114   -0.304833
C      0.955234    0.414915   -0.278526
H      1.240931    1.474239   -0.457424
C      2.115142   -0.552441   -0.200068
H      2.041698   -1.262289    0.630443
H      3.127546   -0.151661   -0.400807
O      1.255231   -0.541162   -1.255759
H     -0.170910   -0.011740    1.555362
H     -1.889030    1.077242   -0.702952
H     -0.694090    2.232649    0.004976
H     -1.932076    1.386093    1.044393
