15

O      2.360582   -0.446467   -0.771160
C      1.779115    0.577318    0.001008
C      0.302599    0.592923   -0.154299
C     -0.368738   -0.653199    0.255154
O      0.199119   -1.641271    0.691115
C     -1.851699   -0.748011    0.141457
O     -2.392847    0.436755   -0.367116
H     -2.769905    1.014346    0.343685
H     -2.303129   -0.888975    1.158414
H     -2.165457   -1.552509   -0.553669
H      0.063267    0.861462   -1.202171
H     -0.105722    1.411649    0.474903
H      2.124468    0.529268    1.055058
H      2.180991    1.524847   -0.413683
H      2.947356   -1.018136   -0.205600
