12

O      2.278344   -0.744648   -0.722511
C      1.955853    0.206428   -0.039464
C      0.550505    0.480837    0.273852
C     -0.409313   -0.496977   -0.314008
H     -0.069705   -1.540092   -0.399543
C     -1.863963   -0.222127    0.003979
H     -2.432429   -1.120987    0.276968
H     -2.123558    0.722942    0.479083
O     -1.329283   -0.098505   -1.274632
H      0.443195    0.441867    1.387915
H      0.266236    1.520942   -0.006334
H      2.734119    0.850320    0.334695
