10

O      2.704824   -0.292190   -0.041648
C      1.400494   -0.214699   -0.008431
O      0.877169    0.936510   -0.376272
C     -0.556806    0.742515   -0.242238
H     -0.524937    1.400341    0.824447
H     -1.189416    1.216703   -0.891321
C     -0.724490   -0.687980    0.094398
H     -1.281996   -1.086597   -0.750654
H     -1.280967   -0.901796    1.061498
O      0.576126   -1.112806    0.330221
