20

C      1.239393   -1.249141   -0.108766
C      0.769028    0.133697   -0.353228
C      1.480472    1.161435    0.510315
H      1.386636    0.944011    1.582459
H      2.552798    1.242976    0.225654
H      0.991910    2.149461    0.287270
C     -0.699670    0.369937   -0.215959
C     -1.504758   -0.489655   -1.194040
H     -1.501071    0.002937   -2.199579
H     -1.044736   -1.477582   -1.328990
H     -2.557167   -0.537025   -0.859382
C     -1.238508    0.222458    1.161353
H     -2.352786    0.154006    1.089673
H     -0.917553   -0.690444    1.691475
H     -1.030066    1.116355    1.795171
H     -0.895450    1.417811   -0.535211
H      1.042342    0.399379   -1.408951
H      1.135676   -1.909143   -0.998944
H      2.341602   -1.205085    0.093735
H      0.801907   -1.756387    0.765945
