17

C      1.593509    0.082654   -0.915993
C      0.835550    0.004516    0.383514
H      1.518140   -0.239074    1.250550
C      0.015035    1.215370    0.722998
H      0.274885    1.696148    1.688974
H     -0.054002    1.982329   -0.076441
C     -1.193905    0.358218    0.770799
H     -1.701814    0.267709    1.757936
O     -1.984128    0.259781   -0.333497
C     -1.283948   -0.872463   -0.724810
H     -1.976653   -1.753839   -0.702316
H     -0.831534   -0.825644   -1.732596
C     -0.363154   -0.841607    0.426649
H     -0.398360   -1.678697    1.142135
H      1.183547    0.812989   -1.626736
H      2.628800    0.451041   -0.654490
H      1.738033   -0.919431   -1.376675
