8

O     -0.360119    1.122703   -0.997338
C     -0.844958    0.275234   -0.008590
C      0.308783   -0.483684    0.499898
C      1.247019   -1.119659    0.920123
H      2.076981   -1.689034    1.278282
H     -1.357064    0.811619    0.814287
H     -1.578961   -0.422845   -0.466461
H      0.508318    1.505665   -0.711365
