15

C      1.876768    1.698650    0.861709
C      0.866186    1.350489    0.007940
C      0.926106    0.767760   -1.346046
H      1.280944   -0.268431   -1.390925
H      1.263359    1.436119   -2.145404
N     -0.543583    0.885993   -1.159068
C     -0.200062    2.208947   -0.576636
H      0.132588    2.942198   -1.311256
H     -0.906600    2.538436    0.200244
C     -0.242518    0.387981    0.208384
H      0.085180   -0.674401    0.211522
H     -0.986145    0.664098    0.954852
H      1.965157    2.799266    1.070694
H      1.800534    1.237306    1.890936
H      2.905602    1.383962    0.513432
