11

C      1.638975   -0.279488   -0.097640
C      0.175835   -0.073087   -0.029743
C     -0.488076    1.038192    0.426381
H     -0.070727    1.960497    0.817095
N     -1.799442    0.773339    0.299224
C     -1.948419   -0.455760   -0.216349
H     -2.838847   -1.009260   -0.458864
O     -0.743704   -0.924116   -0.396973
H      2.069469    0.359251   -0.892428
H      2.148366   -0.044589    0.859481
H      1.856568   -1.344980   -0.310184
