16

C      0.797690    1.112431   -0.682929
C      0.033044    0.006601    0.007833
C      0.989422   -0.968843    0.645173
H      1.662785   -1.328539   -0.184573
H      1.655601   -0.488728    1.380638
H      0.500011   -1.835275    1.106761
C     -1.024551   -0.644917   -0.805402
H     -0.946377   -1.767694   -0.741418
H     -1.093713   -0.280229   -1.863899
O     -2.011203   -0.163494    0.032361
C     -1.095751    0.474775    0.845439
H     -1.133686    0.106906    1.890169
H     -1.237708    1.593545    0.829290
H      0.065358    1.953703   -0.841462
H      1.598364    1.431629    0.015041
H      1.240713    0.798129   -1.633022
