17

C      1.718618    0.316290   -0.502266
H      1.758122   -0.387492   -1.382509
H      1.654474    1.432972   -0.680798
C      1.641231   -0.215937    0.973860
H      2.206249    0.577300    1.606663
H      2.371000   -1.158798    0.885884
C      0.482020   -0.163085    0.230217
C     -0.393175   -1.163497   -0.366661
H      0.186662   -1.689109   -1.313651
H     -0.562888   -2.019636    0.225092
C     -1.372476   -0.092769   -0.697543
H     -1.776196    0.208496   -1.698237
C     -1.974588    0.485087    0.589783
H     -2.175901   -0.072635    1.486619
H     -2.788014    1.205825    0.416454
C     -0.587850    0.826171    0.207722
H     -0.387289    1.910818    0.019371
