14

C     -1.419535   -0.473303   -0.286050
C     -0.393611    0.189520    0.615814
C      0.985288   -0.365197    0.457289
C      1.553648   -0.237060   -0.894282
O      1.101344   -0.895891   -1.808836
H      2.376004    0.434841   -1.110822
H      1.675089    0.149242    1.158547
H      0.985328   -1.438470    0.789758
C     -0.464610    1.625332    0.482388
N     -0.515095    2.790994    0.393348
H     -0.709131   -0.034745    1.679406
H     -1.125938   -0.425751   -1.343058
H     -2.343618    0.156999   -0.211811
H     -1.705164   -1.476512    0.078309
