14

C      0.985972    0.657773   -0.001403
H      1.428012    1.015076    0.955539
H      1.553530    1.060722   -0.874068
C      0.913093   -0.839125   -0.092069
H      1.444631   -1.188355   -0.993624
H      1.404626   -1.263330    0.816911
C     -0.529053   -1.237796   -0.038038
H     -0.801491   -2.170752    0.476311
O     -1.439241   -0.792749   -0.973299
C     -1.272600   -0.027385    0.175910
H     -2.042380   -0.017468    0.962478
C     -0.418749    1.187953   -0.055871
H     -0.621249    1.632396   -1.047972
H     -0.605101    1.983041    0.689195
