14

C      1.257017    0.571701    0.829793
C      0.707016   -0.276106   -0.287173
H      1.512934   -0.679266   -0.957740
C     -0.502220   -1.084613   -0.152461
O     -1.306907   -1.080057    0.970234
H     -2.265992   -1.256221    0.775481
H     -0.581034   -2.016225   -0.764818
C     -0.494378    0.210551   -0.998850
O     -1.285487    1.229054   -0.502397
H     -0.765468    1.919330   -0.005687
H     -0.591909    0.080182   -2.103103
H      1.821756    1.409142    0.339869
H      0.494159    1.001875    1.477386
H      2.000512   -0.029348    1.379465
