14

C     -1.259579    0.037105    0.820544
C     -0.547492   -0.329537   -0.441899
O     -1.237867    0.256039   -1.521464
H     -0.886252    1.186663   -1.656651
C      0.871151    0.168250   -0.536696
C      1.736957   -0.333589    0.537518
O      2.109697    0.438607    1.445125
H      2.055486   -1.362326    0.554987
H      0.918350    1.276750   -0.573450
H      1.284179   -0.196771   -1.506099
H     -0.563253   -1.415360   -0.564405
H     -2.336611   -0.222185    0.670929
H     -0.935570   -0.601443    1.680376
H     -1.209197    1.097795    1.091185
