11

C      1.737347   -0.052216    0.042412
N      0.374208   -0.308605   -0.298047
C     -0.743971    0.349137    0.308603
O     -0.476915    1.195923    1.188251
C     -2.113818    0.051879   -0.073944
O     -2.405579   -0.787521   -0.947491
H     -2.906438    0.584050    0.423384
H      0.113409   -1.019366   -1.038516
H      1.905375    0.166913    1.117963
H      2.179467    0.794311   -0.538902
H      2.336915   -0.974506   -0.183713
