14

C     -1.722806    0.348762    0.310213
C     -0.883883   -0.461593   -0.667994
N      0.431091   -0.715055   -0.184266
C      1.283421    0.419165   -0.079982
C      2.588337   -0.048947    0.438556
N      3.597751   -0.431923    0.845329
H      0.906439    1.148993    0.673124
H      1.451294    0.940152   -1.041469
H      0.519628   -1.410976    0.555415
H     -1.399666   -1.454725   -0.832505
H     -0.909158    0.023121   -1.666360
H     -2.598059   -0.257840    0.653105
H     -2.143675    1.251327   -0.210593
H     -1.120713    0.649539    1.207428
