8

C     -0.738154   -0.167960   -0.590425
C      0.094956    0.396942    0.503890
O     -0.425711    1.295911    1.215284
C      1.430017   -0.093212    0.702412
N      2.509327   -0.488962    0.852035
H     -0.118749   -0.818548   -1.252013
H     -1.588439   -0.774334   -0.189086
H     -1.163247    0.650164   -1.242098
