11

C     -1.319064   -0.410072    0.487682
O     -0.256148    0.248091    1.056903
C      0.602960    0.743919    0.113945
C      1.290775   -0.293156   -0.656235
O      1.170546   -1.465539   -0.387984
H      1.945253   -0.016458   -1.513849
H      0.083764    1.410934   -0.620702
H      1.328418    1.433786    0.641459
H     -0.977836   -1.254135   -0.110185
H     -2.086191   -0.715144    1.239531
H     -1.782479    0.317774   -0.250564
