9

O      1.333591   -0.232762    1.173621
C      1.534722   -0.328286   -0.065493
O      0.419257   -0.347369   -0.885933
C     -0.879804   -0.261436   -0.325416
C     -1.055953    0.996147    0.433201
N     -1.192968    1.974410    1.042208
H     -1.583702   -0.289739   -1.207767
H     -1.092282   -1.116266    0.344698
H      2.517138   -0.394699   -0.509120
