11

C     -1.855365   -0.000434    0.124176
N     -0.412545   -0.039342    0.047103
N      0.427305   -0.890471    0.643183
C      1.697776   -0.540367    0.278002
H      2.587085   -1.043596    0.601238
C      1.605109    0.546491   -0.555930
H      2.404625    1.077427   -1.026041
N      0.302344    0.825451   -0.675006
H     -2.169937   -0.369330    1.141267
H     -2.344805   -0.617250   -0.646162
H     -2.241592    1.051422    0.068170
