15

O     -2.023453    1.235370    0.391120
C     -1.780520    0.129805   -0.379128
C     -0.487307   -0.566301   -0.040754
C      0.718026    0.308163   -0.212760
O      0.690019    1.439054    0.581967
H      1.586400    1.852429    0.562693
C      1.896293   -0.490027    0.135559
C      2.871620   -1.168510    0.426559
H      3.713527   -1.737167    0.687502
H      0.835547    0.592640   -1.287979
H     -0.349457   -1.461845   -0.677145
H     -0.495063   -0.930932    1.006512
H     -2.585786   -0.651099   -0.276899
H     -1.780362    0.426926   -1.446200
H     -2.809484    1.021494    0.982051
