14

C     -1.515537   -0.237444    0.470655
C     -0.615073    0.168063   -0.658772
C      0.824031    0.302613   -0.238064
O      0.989083    1.258777    0.757482
H      1.063759    2.163982    0.386132
C      1.456518   -0.985198    0.110559
O      2.031693   -1.086111    1.176935
H      1.394566   -1.800504   -0.582772
H      1.375953    0.691052   -1.141991
H     -0.941278    1.172740   -1.012857
H     -0.684460   -0.583432   -1.452869
H     -2.541691   -0.345887    0.044505
H     -1.252407   -1.234477    0.875081
H     -1.585157    0.515826    1.265976
