17

C      2.079779   -0.500482   -0.413556
C      0.884913    0.206947    0.149892
H      1.107572    0.724177    1.114270
O      0.312549    1.125565   -0.708152
C     -0.822083    1.521292    0.014123
H     -0.557977    2.190822    0.854664
H     -1.577315    2.013830   -0.634329
C     -1.419508    0.204806    0.494774
H     -2.074832    0.195455    1.374502
C     -1.377163   -0.891085   -0.499679
H     -1.270960   -0.597712   -1.567305
H     -2.050189   -1.755256   -0.312094
C     -0.238943   -0.757226    0.427494
H     -0.125780   -1.513857    1.234549
H      1.756561   -1.518900   -0.744715
H      2.781778   -0.691231    0.438473
H      2.591597    0.042855   -1.222912
