12

C     -1.207072    0.870093   -0.004423
C     -0.985892   -0.486720    0.639050
H     -1.651073   -0.758728    1.463991
O     -0.536136   -1.458699   -0.245120
C      0.385966   -1.048221    0.693122
C      1.504685   -0.246525    0.169011
C      2.416216    0.421693   -0.279951
H      3.203776    1.003623   -0.688381
H      0.618491   -1.774506    1.490165
H     -2.048624    0.745724   -0.712826
H     -0.303181    1.097210   -0.633240
H     -1.397155    1.635057    0.756372
