19

C     -2.036883    0.602126   -0.227147
C     -1.134978   -0.530817    0.203160
H     -1.671404   -1.312137    0.777822
C     -0.512916   -1.198292   -1.018173
H     -1.250038   -1.369911   -1.808658
H     -0.006624   -2.111629   -0.655233
O      0.449288   -0.232725   -1.361373
C      1.171236   -0.186319   -0.157882
C      2.171437    0.923922   -0.118910
H      3.181775    0.455227   -0.223635
H      1.996191    1.724872   -0.855562
H      2.145245    1.355047    0.912010
H      1.651939   -1.192909   -0.065556
C      0.108347   -0.034605    0.915150
H      0.386651   -0.700860    1.764205
H      0.032494    1.028752    1.215354
H     -2.898069    0.711681    0.453484
H     -2.329776    0.517864   -1.297843
H     -1.453913    1.550715   -0.155104
