19

C      1.629534   -0.660304   -0.154644
C      0.621732    0.435579   -0.402576
O      1.264097    1.451530   -1.098000
H      1.029931    2.306858   -0.708032
C     -0.028401    0.901235    0.879915
H     -0.646850    1.799280    0.612980
H      0.643231    1.078376    1.699809
C     -0.994994   -0.224409    1.180777
H     -1.929040    0.156255    1.634966
H     -0.572069   -0.976542    1.861370
C     -1.310345   -0.886106   -0.136344
H     -0.985452   -1.952724   -0.166599
H     -2.409161   -0.860685   -0.324318
C     -0.586046   -0.082737   -1.193495
H     -0.311453   -0.632087   -2.075421
H     -1.220195    0.788043   -1.420617
H      2.587540   -0.128312    0.126831
H      1.367228   -1.268307    0.731084
H      1.850711   -1.244943   -1.047685
