14

C      0.506751   -1.026179   -0.392842
H      0.206835   -1.359076   -1.391734
H      1.070292   -1.706729    0.241043
C     -0.658615   -0.417489    0.400884
H     -1.269977   -1.047446    0.967132
C      0.434361    0.398015    1.095520
H      0.121190    1.368446    1.477777
H      1.112474   -0.205544    1.729219
C      0.991999    0.432012   -0.337020
H      2.029283    0.606080   -0.452535
O      0.049105    1.154610   -1.014632
C     -1.169501    0.555868   -0.597495
H     -1.535767   -0.037218   -1.485836
H     -1.888430    1.284649   -0.239481
