14

C      2.056803    0.711571    0.457458
O      0.721931    0.588914    0.866219
C      0.205128   -0.451950    0.124016
C     -1.237433   -0.740940    0.423882
C     -2.109375    0.414120    0.155432
O     -3.298579    0.335131    0.348914
H     -1.675430    1.321166   -0.212238
H     -1.397435   -1.131476    1.436644
H     -1.551250   -1.559255   -0.276694
H      0.786706   -1.364776    0.383948
H      0.322192   -0.238811   -0.951316
H      2.534789   -0.265994    0.687026
H      2.072230    0.816033   -0.656815
H      2.569723    1.566267    0.914835
