15

C      0.640297   -0.491058   -1.315726
C     -0.020257   -0.049091   -0.040719
C     -0.685500   -1.213354    0.673255
H     -1.361097   -0.803623    1.463197
H     -1.256833   -1.801442   -0.047195
H      0.132357   -1.779681    1.163956
C     -1.026423    0.964431   -0.362997
C     -1.865093    1.795336   -0.610396
H     -2.601429    2.539233   -0.814854
C      1.008271    0.476749    0.838911
C      1.865416    0.908948    1.595829
H      2.613205    1.283926    2.245580
H     -0.021002   -0.452515   -2.190043
H      1.041653   -1.522867   -1.119814
H      1.536434    0.145010   -1.478983
