12

C      2.012702   -0.167442    0.097546
O      0.719765   -0.750478    0.197287
C     -0.400621    0.034340   -0.108154
C     -1.778876   -0.388843    0.286041
H     -2.104899   -1.122088   -0.475777
H     -1.778978   -0.862841    1.280457
H     -2.434228    0.485032    0.277563
N     -0.217191    1.143040   -0.744111
H     -1.087876    1.702112   -0.953288
H      2.771357   -0.919851    0.371978
H      2.138504    0.717225    0.729104
H      2.160340    0.129792   -0.958647
