16

C      0.641290    1.085626    0.679407
C     -0.322226    0.009705    1.032111
C     -1.159506   -0.523781   -0.084622
C     -0.367177   -1.153306   -1.185336
C      0.551759   -0.255638   -1.855506
C      1.314119    0.518914   -2.423093
H      1.979903    1.185402   -2.899647
H      0.218820   -2.024343   -0.764977
H     -1.026080   -1.582008   -1.978844
H     -1.949504   -1.232136    0.294210
H     -1.742693    0.356417   -0.479594
H     -1.029009    0.387066    1.815231
H      0.283471   -0.834317    1.486514
H      1.605016    0.656108    0.400361
H      0.803596    1.691855    1.606443
H      0.198221    1.714435   -0.099782
