12

O      1.983114    1.073002   -1.144181
C      1.067304    0.567505   -0.443860
N     -0.052016    1.231099    0.004141
H     -0.150300    2.294078    0.400677
C     -1.199302    0.296511   -0.071984
H     -1.380300    0.187647   -1.173110
H     -2.046386    0.533667    0.513274
C     -0.428680   -0.970058    0.363218
H     -0.666163   -1.382345    1.398700
O      0.107205   -1.746655   -0.601780
C      1.008810   -0.833064    0.069702
H      1.756714   -1.251387    0.685204
