14

C      2.003893   -0.238036   -0.342392
O      0.752879    0.026154   -0.879128
C     -0.169246    0.028041    0.167617
H      0.338780   -0.179715    1.137210
C     -1.374800   -0.795931   -0.014745
H     -1.485755   -1.316278   -0.996894
H     -1.625869   -1.507093    0.805332
O     -2.193218    0.292691    0.021451
C     -1.138049    1.138321    0.193180
H     -1.159727    1.754043    1.127582
H     -1.041150    1.782592   -0.734846
H      2.306874    0.522879    0.404175
H      2.804023   -0.288744   -1.096504
H      1.981365   -1.218923    0.207961
