19

C     -1.541612   -1.169618   -0.561146
C     -0.751989   -0.073005    0.068324
C     -1.697607    1.125706    0.235029
H     -1.514436    1.640957    1.183491
H     -2.761325    0.797292    0.184928
H     -1.563820    1.839920   -0.616689
C      0.375147    0.390239   -0.796425
H      0.066542    0.706195   -1.813468
O      1.087964    1.478859   -0.070288
C      1.760315    0.281380   -0.483623
C      2.313302   -0.563218    0.634973
H      1.575042   -1.205911    1.120119
H      3.140370   -1.201878    0.242066
H      2.810213    0.126446    1.367289
H      2.501924    0.513001   -1.269938
H     -0.418679   -0.329548    1.099508
H     -2.649178   -0.994075   -0.464619
H     -1.364201   -1.194272   -1.668380
H     -1.367971   -2.168470   -0.095037
