9

N     -1.274460   -0.912834   -0.184407
C     -0.940202    0.311350    0.037683
N      0.441093    0.718672    0.134868
C      1.480617   -0.242030   -0.015540
O      1.133726   -1.432249   -0.231858
H      2.516596   -0.019664    0.042679
H      0.675287    1.711318    0.314267
H     -1.749669    1.044129    0.152103
H     -2.282987   -1.178690   -0.249796
