10

C     -1.172307    0.632130    0.301248
H     -2.115705    1.148507    0.540108
C     -0.928083   -0.639756    0.774074
H     -1.682726   -1.127287    1.388150
N      0.237034   -1.235789    0.459537
C      1.163496   -0.636208   -0.294846
H      2.111626   -1.110202   -0.555972
C      0.930840    0.623412   -0.767821
H      1.689075    1.118830   -1.387424
N     -0.233250    1.226365   -0.457054
