11

N      1.791987   -0.281791   -0.068090
C      0.396391   -0.019301   -0.007603
C     -0.660462   -0.876673   -0.083513
H     -0.533365   -1.954472   -0.210500
C     -1.797536   -0.128286    0.027392
H     -2.813653   -0.495722    0.007062
N     -1.385278    1.138726    0.164495
N     -0.084178    1.224808    0.146212
H      0.471591    2.117383    0.237061
H      2.252759   -0.997802    0.521177
H      2.361745    0.273132   -0.733695
