17

O      2.470625    0.593213    0.064808
C      1.194203    0.417309   -0.255511
H      0.951150    0.123967   -1.305619
C      0.573837   -0.819350    0.532907
H      1.388532   -1.657065    0.413275
H      0.482822   -0.455501    1.514757
C     -0.665227   -1.292513   -0.172239
H     -0.458877   -1.763082   -1.156730
H     -1.131940   -2.086203    0.551930
C     -1.648073   -0.133541   -0.211297
H     -2.568202   -0.307276    0.308512
H     -1.840981    0.032529   -1.367514
C     -1.079314    1.235030    0.264746
H     -1.696160    1.928587    0.675359
C      0.240293    1.437175    0.201355
H      0.627909    2.353076    0.587759
H      3.159402    0.393646   -0.646497
