11

C     -1.643037   -0.321707   -0.055168
C     -0.179533   -0.096554    0.005329
N      0.789111   -1.023401    0.104320
N      1.970293   -0.478382    0.133231
H      2.870102   -0.984783    0.205756
N      1.780586    0.824819    0.052377
C      0.471982    1.116109   -0.028703
H      0.046898    2.113076   -0.104489
H     -1.875688   -1.183633   -0.744785
H     -2.080232   -0.536126    0.948268
H     -2.150481    0.570582   -0.516136
