14

C      1.582201    0.045712    0.549283
C      0.546976   -0.313122   -0.453196
H      0.960257   -0.358108   -1.482241
O     -0.111203   -1.482255   -0.130227
C     -1.373999   -0.919091   -0.061898
H     -2.091429   -1.290170   -0.831656
H     -1.800799   -0.935707    0.941821
C     -0.748796    0.420448   -0.413512
O     -0.915519    1.345781    0.603789
H     -0.638660    2.237392    0.333971
H     -1.076921    0.809343   -1.382755
H      2.286675    0.767324    0.075870
H      1.185434    0.528519    1.450288
H      2.195783   -0.856066    0.800464
