12

O      2.140171    1.427710    0.036387
C      1.049389    0.774901    0.023332
C      0.887322   -0.684248   -0.094144
H      1.322733   -1.191695    0.814657
H      1.376296   -1.076142   -1.018827
C     -0.579495   -0.933078   -0.058400
H     -0.885092   -1.606950    0.779590
H     -0.931989   -1.365079   -1.040606
C     -1.216003    0.379905    0.077681
H     -2.317086    0.578115    0.137182
C     -0.292322    1.313551    0.121085
H     -0.553923    2.383010    0.222062
