16

C     -0.539835    1.133846    0.909222
C     -0.457499    0.227092   -0.302431
C      0.905058    0.097637   -0.973466
C      1.841360   -0.438366    0.019681
C      2.618795   -0.881744    0.849616
H      3.290754   -1.272178    1.567654
H      1.237487    1.113749   -1.267977
H      0.822541   -0.575683   -1.830799
C     -1.234052   -1.036925   -0.244912
H     -2.007388   -1.200216    0.546232
H     -0.832330   -1.953590   -0.723347
N     -1.591914    0.068399   -1.160918
H     -2.452553    0.604005   -0.965992
H     -1.570237    1.533777    1.030315
H      0.154686    1.994226    0.734354
H     -0.184873    0.585972    1.812767
