9

O     -2.013299   -0.208848   -0.575143
C     -0.964753    0.594866   -1.032509
C      0.273217    0.019527   -0.484445
C      1.301787   -0.435251   -0.032158
C      2.502100   -0.978776    0.481576
N      3.490726   -1.448948    0.909041
H     -0.885898    0.609901   -2.129297
H     -1.151333    1.609615   -0.625648
H     -2.552548    0.237916    0.122926
