13

O      2.444272   -0.578193   -1.210980
C      2.272185    0.118606   -0.153542
N      0.973201    0.313508    0.385088
C     -0.179722   -0.278916   -0.261715
H      0.044916   -0.865882   -1.167858
C     -1.442672    0.546170   -0.376696
H     -2.081336    0.435519   -1.282527
H     -1.446006    1.553689    0.074312
C     -1.375384   -0.642952    0.536628
H     -1.338445   -0.493114    1.643553
H     -1.896708   -1.571332    0.218822
H      0.899412    0.892013    1.249614
H      3.126288    0.570884    0.345301
