14

C      0.124485    1.468091    0.236733
C      0.119356   -0.031421    0.084219
C      1.540442   -0.560216   -0.112226
O      1.998201   -1.436672    0.500645
H      2.150440   -0.055921   -0.897285
C     -0.809589   -0.872040    0.561733
H     -0.595284   -1.963666    0.818563
H     -1.585627   -0.483421    1.294939
C     -0.805162   -0.654844   -0.861162
H     -1.806090   -0.966707   -1.081500
H     -0.597931    0.007542   -1.682431
H      0.088203    2.055106   -0.665153
H     -0.799373    1.762351    0.866706
H      0.977929    1.731818    0.936220
