13

C      1.071465   -0.662715   -0.061282
C     -0.183657    0.116574    0.253329
O     -0.367717    0.326219    1.596382
H      0.456148    0.352524    2.125013
C     -1.329062   -0.682513   -0.248075
O     -1.413874   -1.014797   -1.435378
H     -2.091583   -0.965310    0.467495
C     -0.149205    1.404207   -0.522269
O      0.006570    1.394821   -1.725674
H     -0.268831    2.314295    0.045231
H      0.862027   -1.654898   -0.506221
H      1.711079   -0.810169    0.822322
H      1.696640   -0.118239   -0.810874
