11

C     -0.319572    1.249392    0.122658
N      0.070854   -0.126412   -0.033851
C      1.378420   -0.444656   -0.460052
O      1.694177   -1.660689   -0.588995
H      2.071788    0.346107   -0.664141
C     -0.887470   -1.130419    0.250252
O     -2.033854   -0.799794    0.625087
H     -0.607272   -2.186254    0.136367
H     -0.856632    1.317682    1.108971
H      0.527559    1.947562    0.180101
H     -1.037999    1.487480   -0.676398
