15

O     -1.303623    0.135782    1.773824
C     -0.883447   -0.778238    0.715252
H     -1.395131   -1.699549    0.821893
C     -1.035713   -0.054678   -0.600883
H     -1.399413   -0.841608   -1.380698
H     -1.595725    0.847256   -0.697345
C      0.492978    0.062941   -0.711457
O      1.116843   -0.138108   -1.863181
H      1.085849    0.798011   -2.314853
C      1.243535    0.614482    0.449809
H      2.310987    0.659904    0.353205
H      0.823551    1.559977    0.958732
C      0.606645   -0.648169    0.571169
H      1.199299   -1.595835    0.647830
H     -1.266635    1.077832    1.276705
