12

O      2.074227    1.134131   -1.401996
C      1.384720    0.702335   -0.495034
C      0.070126    0.136883   -0.795693
H     -0.221615    0.138135   -1.860730
C     -0.188278   -1.202829   -0.091971
H     -0.692331   -2.003635   -0.686718
H      0.489264   -1.507953    0.719466
C     -1.010593    0.049168    0.199508
C     -0.883876    0.648926    1.524810
N     -0.789641    1.099140    2.566559
H     -2.053526    0.028721   -0.174655
H      1.821522    0.776978    0.496454
