9

O     -1.964563   -0.506086   -0.310553
C     -0.628280   -0.167530   -0.162936
N      0.402615   -1.062846   -0.121685
C      1.543472   -0.376524    0.029299
H      2.543671   -0.773376    0.098934
N      1.205798    0.942330    0.080196
N     -0.101960    1.056716   -0.036281
H     -0.632841    1.942905   -0.030813
H     -2.367914   -1.055590    0.453839
