13

O     -1.908115   -0.234229    0.333647
C     -1.000319    0.357323   -0.519431
H     -1.402899    0.920636   -1.369709
C      0.100787    1.069712    0.207499
H      0.018218    1.921106    0.740303
O      0.888776    0.853173   -0.906992
C      0.272723   -0.378324   -0.773445
H      0.408035   -1.192650   -1.348770
C      0.551665   -0.266628    0.698236
O      1.874228   -0.357416    1.074752
H      2.464373   -0.730334    0.362612
H     -0.177250   -0.784076    1.346415
H     -2.090221   -1.178293    0.154882
