14

C      2.381584   -0.065008    0.353944
N      1.240111   -0.942187    0.257308
C      0.057067   -0.403249    0.250616
C     -1.245282   -1.063997    0.162306
H     -1.388748   -1.838399    0.962945
H     -1.288670   -1.550209   -0.847324
O     -2.191704   -0.095889    0.191625
C     -1.579898    1.115978    0.291289
H     -1.897156    1.699947   -0.625974
H     -1.960950    1.642569    1.199004
O     -0.187751    0.949579    0.329358
H      2.219489    0.890343   -0.222822
H      2.531301    0.157145    1.444693
H      3.310607   -0.496622   -0.045656
