12

O      2.560118    0.726058   -0.040623
C      1.333825    0.364874   -0.014401
N      0.232140    1.231492   -0.248383
H      0.353120    2.281304   -0.451079
C     -0.987450    0.485824   -0.178101
H     -1.463952    0.400668   -1.207508
H     -1.752588    0.890596    0.494779
C     -0.592516   -0.907586    0.205834
H     -0.993398   -1.698863   -0.454284
H     -0.957957   -1.044247    1.242330
N      0.852901   -0.924689    0.229737
H      1.415758   -1.805430    0.421699
