15

C     -0.792657    1.385203    0.094550
C     -0.091144    0.049276    0.196681
C     -1.124671   -1.060009    0.247743
H     -1.866493   -0.807276   -0.564916
H     -1.600890   -0.999285    1.245282
H     -0.627761   -2.001141    0.030029
C      0.988801   -0.209948   -0.788559
H      1.173256    0.541105   -1.568391
H      0.918560   -1.246628   -1.228842
C      1.951789   -0.249996    0.333594
O      3.202069   -0.430097    0.449252
O      0.897497   -0.006468    1.195712
H     -1.220532    1.576690    1.122614
H     -0.131587    2.198118   -0.206005
H     -1.676237    1.260455   -0.558743
