14

C     -0.666044    1.155444   -0.267086
C      0.036266   -0.074729    0.243023
C      1.416913   -0.224654   -0.357687
H      1.392781   -0.354690   -1.449994
H      2.047171    0.636060   -0.086983
H      1.874579   -1.126561    0.124304
O      0.180305    0.043340    1.605584
H     -0.678250    0.299993    2.064525
C     -0.772417   -1.269333   -0.112223
O     -1.028894   -1.573103   -1.254610
H     -1.153790   -1.902368    0.675483
H     -1.478303    1.404094    0.445919
H     -1.166548    0.956112   -1.252801
H     -0.003770    2.030396   -0.377455
