10

N      1.900903    0.197383    0.087593
C      0.596009   -0.342332   -0.030507
O      0.391466   -1.587145   -0.229138
N     -0.582284    0.457376    0.062663
C     -1.880684   -0.124064   -0.061731
O     -2.016246   -1.359067   -0.257031
H     -2.764509    0.494450    0.011071
H     -0.458720    1.490373    0.226279
H      2.255465    0.753737    0.889912
H      2.558601    0.019288   -0.699111
