12

C     -0.768904   -1.245411    0.311258
C     -0.097975    0.104045    0.386444
C      1.352826    0.112223    0.213984
C      2.563163    0.129778    0.082109
H      3.619788    0.144470   -0.046050
C     -0.839265    1.254647   -0.049577
H     -0.451543    2.251308   -0.260938
H     -1.932135    1.138387   -0.233542
O     -0.589354    0.935395    1.379218
H     -0.722767   -1.795405    1.289212
H     -1.834485   -1.112556    0.003914
H     -0.299349   -1.916881   -0.428261
