15

C      0.802156    1.711490    0.316611
C      1.006724    0.332305   -0.269974
C     -0.124406   -0.587061    0.135763
C     -1.463135   -0.170317   -0.286790
C     -2.574420    0.179526   -0.659860
H     -3.531499    0.500045   -0.985630
C      0.149075   -2.072156    0.262010
H      1.159136   -2.362310   -0.079096
H     -0.712346   -2.740376    0.052012
O     -0.024229   -1.254173    1.350775
H      1.962335   -0.137375    0.091521
H      1.087698    0.411269   -1.370930
H     -0.198735    1.765556    0.782391
H      1.577752    1.907251    1.096501
H      0.883895    2.516328   -0.435304
