14

O      2.236789   -1.091802   -0.789463
C      1.712226   -0.153541   -0.165677
C      0.373558   -0.033208   -0.055676
C     -0.707030   -0.869671   -0.575269
H     -0.801105   -1.831957   -0.015523
H     -0.913683   -0.911491   -1.646385
N     -1.501096    0.164844    0.140577
C     -0.458574   -0.022337    1.183844
H     -0.519672   -1.015877    1.650882
H     -0.307316    0.841208    1.823608
C     -0.498715    1.093855   -0.447525
H     -0.419912    2.032051    0.146269
H     -0.643755    1.266514   -1.512960
H      2.448284    0.531412    0.263298
