15

C     -1.188416    1.294798   -0.637856
C     -0.310863    0.165207   -0.143849
C      1.017595    0.550321    0.381182
O      1.185363    1.752541    0.709756
N      2.042125   -0.425619    0.495338
H      1.943163   -1.264240    1.078600
H      2.923514   -0.287917   -0.029835
C     -0.984102   -1.021017    0.497357
H     -0.461318   -1.487730    1.329044
H     -2.073014   -1.124217    0.462590
N     -0.387419   -1.083914   -0.839367
H      0.459981   -1.705410   -0.917021
H     -1.333245    1.105139   -1.741333
H     -0.664821    2.252131   -0.543907
H     -2.168543    1.279926   -0.100698
