17

C      1.277306    0.752221    0.822233
H      2.317653    1.157668    1.042964
H      0.476511    1.029984    1.478837
C      1.347326   -0.484120   -0.027143
H      2.283431   -0.956893   -0.270418
C      0.955222    0.832893   -0.669008
H      1.596850    1.351472   -1.360988
C     -0.379707    0.273989   -0.970154
H     -0.615561    0.180001   -2.042443
C     -1.491354    0.431140    0.003808
H     -1.555948    1.334863    0.599062
H     -2.497567    0.189933   -0.533167
C     -1.085961   -0.859387    0.697206
H     -1.836084   -1.670184    0.705827
H     -0.722757   -0.581479    1.733414
C     -0.008810   -1.060781   -0.276656
H     -0.060549   -1.921320   -0.933372
