8

N      1.460780    0.038550    0.059054
C      0.043457    0.024673    0.005803
N     -0.708186   -1.073592   -0.065235
O     -1.942943   -0.720884   -0.097315
N     -1.998646    0.571985   -0.048668
N     -0.778737    1.071356    0.016289
H      1.951373    0.008512    0.969579
H      1.972904    0.079399   -0.839508
