13

C     -1.575062   -0.707602    0.037910
C     -0.936805    0.630045   -0.038340
O     -1.635422    1.620780   -0.045217
C      0.532016    0.812253   -0.107244
H      0.903049    1.841561   -0.160773
C      1.435132   -0.206041    0.525178
H      2.442503    0.145414    0.825969
H      0.921582   -0.913758    1.195562
N      1.191283   -0.226957   -0.885739
H      1.934244    0.090421   -1.532953
H     -0.947992   -1.447634   -0.511323
H     -2.577048   -0.632635   -0.407609
H     -1.687481   -1.005846    1.104579
