16

N      2.792645   -0.262484   -0.679984
C      1.725826   -0.399919    0.230435
O      1.858124   -0.933281    1.369124
C      0.411551    0.123320   -0.222780
C     -0.666880   -0.068147    0.815748
C     -1.953071    0.512127    0.216763
O     -2.221852   -0.196234   -0.948645
H     -3.175535   -0.518612   -0.885458
H     -2.781691    0.426839    0.954204
H     -1.810267    1.577241   -0.008298
H     -0.776951   -1.132756    1.039137
H     -0.448662    0.468453    1.754949
H      0.547854    1.208979   -0.449086
H      0.149528   -0.374117   -1.172199
H      3.075098   -1.070645   -1.246173
H      3.274284    0.639236   -0.767736
