16

C      1.891160    0.519614    0.486395
O      0.636830    0.278916    1.035739
C     -0.270897   -0.203194    0.118074
C     -0.504026    0.734521   -1.024599
H      0.391483    0.847298   -1.684826
H     -1.377721    0.400040   -1.610533
H     -0.754053    1.745762   -0.587748
C     -1.603396   -0.436357    0.799080
H     -2.407169   -0.305870    0.051576
H     -1.645929   -1.515961    1.106503
H     -1.750343    0.243875    1.673157
C      0.168365   -1.492450   -0.458913
N      0.531399   -2.501996   -0.903906
H      2.577608    0.903614    1.263449
H      2.242827   -0.462342    0.077436
H      1.873861    1.244529   -0.340884
