12

O     -2.384206   -0.419185   -0.228286
C     -1.260760    0.261994    0.224514
C     -0.022032   -0.540207    0.030689
O     -0.100888   -1.643508   -0.472091
C      1.262680    0.074964    0.475425
O      2.346104   -0.758414    0.247154
H      3.160413   -0.248630    0.034588
H      1.353477    1.036073   -0.093106
H      1.234512    0.302219    1.562088
H     -1.320737    0.464104    1.329611
H     -1.129282    1.253102   -0.251022
H     -3.139281    0.217486   -0.211794
