17

C     -1.947969    0.001766   -0.153358
C     -0.592429    0.061966   -0.079762
C      0.357685   -1.128112    0.110572
H      0.264317   -1.643098    1.067872
H      0.450013   -1.751283   -0.785557
C      1.265259    0.088884    0.108262
O      2.510443    0.105224    0.215207
H      2.965287   -0.792127    0.293204
C      0.239744    0.722302    1.012342
H      0.165103    0.267846    2.003344
H      0.207522    1.821846    0.958044
C      0.417439    0.585877   -1.035365
H      0.481386    1.666131   -1.187067
H      0.521408    0.051258   -1.990211
H     -2.504650    0.476991    0.710213
H     -2.389607   -1.039344   -0.192192
H     -2.410949    0.503874   -1.055547
