12

C     -0.110619   -0.936086   -0.557780
H     -0.216625   -1.864522   -1.074611
C     -0.835523    0.305152   -0.679726
H     -1.580282    0.633087   -1.350406
C     -0.867744   -0.416220    0.565830
H     -1.671087   -0.861543    1.106059
C      0.274889    0.355542    1.027768
H      0.814825    0.351294    1.935232
C      1.075130   -0.194474   -0.182002
H      2.093416   -0.456169   -0.097650
C      0.364568    1.048858   -0.210934
H      0.659051    2.035081   -0.481780
