13

O      2.281288    0.624666    0.172415
C      0.991166    0.321600    0.578918
C      0.144885   -0.201973   -0.578423
C     -1.224110   -0.492070   -0.009307
O     -1.758301    0.690344    0.513860
H     -2.240347    1.205850   -0.181372
H     -1.174284   -1.206521    0.835804
H     -1.866533   -0.918252   -0.818691
H      0.106089    0.532793   -1.404638
H      0.604625   -1.116784   -0.969718
H      0.977553   -0.465793    1.358712
H      0.469393    1.195962    1.009097
H      2.688577   -0.169822   -0.222169
