10

N     -1.780917   -0.340463    0.029994
C     -0.380089   -0.108577    0.006098
N      0.563239   -1.060054    0.065677
N      1.767105   -0.528379    0.022452
H      2.664149   -1.063622    0.053846
N      1.589078    0.777182   -0.065704
C      0.284862    1.095448   -0.079959
H     -0.151275    2.083028   -0.144903
H     -2.193985   -0.637952    0.939746
H     -2.362166   -0.216611   -0.827247
