12

C      1.491242   -0.352603   -0.058318
C      0.270440    0.524272    0.183917
H      0.470114    1.603206   -0.051398
C     -0.922499    0.070448   -0.567053
H     -0.746747   -0.898916   -1.141373
H     -1.381991    0.850192   -1.224495
C     -1.505814   -0.099265    0.745064
O     -2.638451   -0.494686    1.170688
O     -0.399324    0.319097    1.361912
H      1.163730   -1.350604   -0.343774
H      2.045103    0.134362   -0.895635
H      2.154196   -0.305503    0.820465
