10

O     -2.476262    0.379686    0.789751
C     -1.644522   -0.513345    0.489963
N     -0.302305   -0.182990    0.086084
C      0.174319    1.070903   -0.006063
H     -0.365150    1.979795    0.203289
N      1.448922    0.971958   -0.408251
C      1.774110   -0.342628   -0.569036
H      2.701921   -0.777955   -0.878172
N      0.648208   -1.043012   -0.249313
H     -1.959241   -1.542413    0.541747
