15

C     -1.888925    0.192859    0.225610
C     -0.464557   -0.323359    0.269247
C     -0.094277   -0.865341   -1.088605
H      0.893956   -0.492359   -1.434820
H     -0.834604   -0.533223   -1.827978
H     -0.027707   -1.957414   -1.014870
C      0.438858    0.786199    0.688465
O     -0.020912    1.930368    0.940358
C      1.856567    0.601997    0.822149
C      3.048345    0.457620    0.945799
H      4.107763    0.329556    1.074391
H     -0.362254   -1.122731    1.056066
H     -2.029553    0.652662   -0.774134
H     -2.016502    0.971448    0.994619
H     -2.606200   -0.628284    0.417110
