15

C     -1.746877    0.208579   -0.079004
C     -0.383997    0.040462    0.568565
H     -0.418573    0.044611    1.680717
C      0.669651    0.977550    0.070022
H      0.330662    1.590721   -0.812981
H      1.167586    1.587950    0.853244
C      1.467190   -0.182982   -0.431628
H      2.410556   -0.294861    0.166550
H      1.647998   -0.207293   -1.529687
C      0.414289   -1.120664    0.066395
H     -0.084897   -1.630876   -0.789774
H      0.780439   -1.815895    0.853354
H     -2.315952    0.927072    0.544255
H     -1.619723    0.617906   -1.101064
H     -2.318353   -0.742279   -0.058964
