16

C      1.400993   -0.818477   -0.016181
H      1.429732   -1.489219   -0.889548
H      1.598776   -1.289777    0.946856
C      1.651540    0.661968   -0.204855
H      2.232951    1.123569    0.604608
H      2.034366    0.886601   -1.229403
C      0.326542    0.195919   -0.040048
C     -0.792792    0.119245   -1.003559
H     -1.151451    1.170380   -1.296526
H     -0.718875   -0.577722   -1.828729
C     -1.672149   -0.275428    0.161038
H     -1.580289   -1.405512    0.259070
H     -2.689213    0.109815    0.193472
C     -0.634139    0.335053    1.072885
H     -0.451361   -0.160144    2.023231
H     -0.984631    1.413729    1.247689
