18

C      1.132567    1.049171    1.462775
C      0.455710   -0.271739    1.522028
C     -0.583672   -0.494057    0.465086
C     -0.061246   -0.435805   -0.943174
C     -1.212236   -0.698989   -1.917528
H     -2.162023   -0.693221   -1.365409
H     -1.174104    0.010086   -2.765576
H     -1.058230   -1.708584   -2.373102
C      0.453160    0.906782   -1.307428
N      0.840776    1.967361   -1.582883
H      0.712770   -1.214960   -1.061243
H     -1.115367   -1.470635    0.601860
H     -1.339561    0.333480    0.606195
H      1.251867   -1.048445    1.334147
H      0.019739   -0.400699    2.530693
H      1.458985    1.332874    2.492659
H      0.415728    1.816525    1.144173
H      1.965136    1.020854    0.756838
