11

O      2.259986   -1.361264   -0.331828
C      1.788332   -0.183669   -0.207765
C      0.369882    0.061686   -0.036849
C     -0.205156    1.301890    0.102369
H      0.293529    2.283779    0.107768
N     -1.533872    1.069038    0.234089
C     -1.732027   -0.256541    0.174588
H     -2.712383   -0.714743    0.254201
N     -0.562100   -0.903892    0.006351
H     -0.448503   -1.942376   -0.069804
H      2.482313    0.646090   -0.233120
