16

C     -2.002964   -0.614360    0.182984
C     -0.574557   -0.381276    0.627862
C      0.228840    0.267217   -0.504469
O     -0.385292    1.475773   -0.805547
H      0.247885    2.226689   -0.887888
C      1.629038    0.454598    0.015998
O      2.181449   -0.776561    0.294829
H      2.402829   -1.294583   -0.498879
H      2.258426    1.073589   -0.670959
H      1.536413    1.009944    0.983862
H      0.204993   -0.362713   -1.401289
H     -0.094022   -1.356572    0.858398
H     -0.552825    0.275870    1.514539
H     -2.100451   -0.359453   -0.889898
H     -2.285686   -1.665832    0.390245
H     -2.694078    0.027669    0.790212
