15

C      1.407111   -0.409125   -0.887685
H      1.823284    0.121352   -1.787870
H      1.049761   -1.428662   -1.058781
C      1.953590   -0.053301    0.448786
H      2.753265    0.707560    0.548882
H      1.959210   -0.826544    1.248667
C      0.560824    0.443936   -0.009102
N     -0.554065   -0.079232    0.705795
C     -1.668103   -0.690031    0.064474
H     -2.156019   -1.504322    0.679073
H     -1.680305   -0.923791   -1.003098
C     -1.802419    0.661198    0.515699
H     -2.369823    0.963218    1.425846
H     -1.806634    1.477280   -0.251808
H      0.530322    1.540464   -0.185780
