15

C     -0.894015    1.351197    0.760202
C     -0.141638    0.113958    0.259752
C     -1.028833   -0.971828   -0.242958
H     -1.990998   -0.925171    0.307962
H     -1.187479   -0.942584   -1.339341
H     -0.552236   -1.967286   -0.031906
N      1.025593   -0.293366    1.055580
H      1.246941   -1.305704    1.061277
C      1.203622    0.348286   -0.231976
C      1.731329   -0.455764   -1.334120
N      2.128381   -1.093474   -2.208007
H      1.657906    1.354864   -0.170276
H     -0.174194    2.008494    1.248046
H     -1.352578    1.815069   -0.133466
H     -1.671801    0.963310    1.452329
