11

O      2.202965    0.403235   -0.311862
C      0.825284    0.158320   -0.164578
C     -0.162275    1.096804   -0.004023
H     -0.019807    2.187632    0.033321
C     -1.369477    0.457229    0.104060
H     -2.362340    0.911056    0.241315
C     -1.088802   -0.885848    0.005310
H     -1.843315   -1.687419    0.053028
N      0.230938   -1.042191   -0.155072
H      0.738474   -1.967069   -0.259430
H      2.848356    0.368251    0.457931
