14

C      0.802671   -0.989597   -0.157603
H      1.667872   -1.512901   -0.658171
H      0.784432   -1.486164    0.848167
C      1.237208    0.391738    0.079617
H      1.887063    0.777427   -0.677626
H      1.752464    0.618440    1.001315
C      0.080037    1.296479    0.070708
H      0.210828    2.315149    0.051127
C     -1.106611    0.731511    0.120285
H     -1.796402    1.565340    0.071004
C     -1.391926   -0.657154   -0.008239
H     -1.497736   -1.116496    0.871355
H     -2.246572   -0.688882   -0.788135
O     -0.383328   -1.244892   -0.823803
