17

C      1.827436   -0.021170   -0.444092
C      0.455360   -0.014468   -0.263725
C     -0.139948   -1.155577    0.738711
H     -0.171293   -0.750378    1.775890
H      0.302814   -2.110267    0.544709
C     -1.465725   -0.881929    0.012995
H     -2.310586   -1.407505   -0.030564
C     -1.445943    0.747664    0.028822
H     -2.363262    1.280094   -0.080820
C     -0.120690    1.215963    0.518950
H     -0.031009    1.059554    1.611126
H      0.320070    2.079964    0.082146
C     -0.760183   -0.060814   -0.872764
H     -0.908991   -0.057674   -2.022339
H      2.399604    0.575091    0.317897
H      2.354658   -1.013249   -0.491196
H      2.057689    0.514701   -1.425746
