18

C     -1.308578    0.352982   -0.519845
H     -0.964342    0.682689   -1.547001
H     -2.394200    0.554223   -0.441895
C     -0.569098    1.243447    0.451075
H     -0.841601    0.918553    1.470551
H     -0.812098    2.315685    0.351321
C      0.929505    1.078351    0.262738
H      1.430539    1.700557    1.006179
H      1.211438    1.417164   -0.732379
C      1.298446   -0.365076    0.509605
H      2.364910   -0.510024    0.318126
H      1.068432   -0.695302    1.523072
C      0.539487   -1.245792   -0.465950
H      0.880259   -2.286675   -0.300562
H      0.761598   -0.991978   -1.522890
C     -0.944581   -1.069110   -0.274252
H     -1.519991   -1.782526   -0.907153
H     -1.130126   -1.317167    0.819258
