14

C     -1.157448   -0.597625   -0.274925
H     -2.058848   -1.025809    0.158972
H     -1.090069   -0.567804   -1.375992
C     -0.786330    0.695956    0.381905
H     -1.526366    1.431706    0.579908
C      0.493769    1.094129   -0.311072
H      1.032208    1.905558    0.172068
H      0.316356    1.215472   -1.389543
C      1.230721   -0.252336   -0.144532
H      1.554359   -0.657121   -1.101236
H      2.037808   -0.129606    0.592771
C      0.067507   -1.009918    0.473478
H      0.212919   -2.019425    0.770371
O     -0.326586   -0.083178    1.467828
