17

C      1.319897   -0.651198    0.617912
H      1.357419   -0.241782    1.682077
H      1.326111   -1.763042    0.498452
C      1.754545    0.220725   -0.560892
H      2.410455    1.090730   -0.269178
H      2.249156   -0.344569   -1.350764
C      0.397533    0.110830   -0.262843
C     -0.663260   -0.674798   -1.021090
H     -0.293389   -1.675791   -1.305590
H     -0.983417   -0.065790   -1.920624
C     -1.662195   -0.686729    0.066163
H     -2.443514   -1.369381    0.372453
C     -1.510130    0.424815    0.827602
H     -2.103796    0.632233    1.738689
C     -0.428294    1.258051    0.250510
H     -0.763347    1.915603   -0.495334
H      0.036226    1.820096    1.132456
