16

C     -0.989807    1.158592    0.491603
C     -0.186632   -0.008730    0.011602
C     -1.120928   -1.076634   -0.553639
H     -1.730488   -0.688702   -1.382663
H     -1.809537   -1.345833    0.276066
H     -0.554829   -2.000205   -0.810244
N      0.724024   -0.609811    0.919001
H      0.740126   -0.291238    1.898862
C      1.816996   -0.235193    0.078436
H      2.289143   -1.117104   -0.377781
H      2.515389    0.469797    0.592044
C      0.895691    0.404986   -0.896007
O      1.029750    0.994050   -1.955256
H     -0.412950    1.881795    1.094724
H     -1.870442    0.752090    1.039969
H     -1.335506    1.712141   -0.426718
