9

O      0.013728   -1.351380   -0.412300
C      1.076479   -0.594058   -0.344853
H      2.118073   -0.910783   -0.309252
C      0.681009    0.718805   -0.324016
H      1.306036    1.586273   -0.272190
C     -0.684079    0.680285   -0.383740
H     -1.353327    1.525262   -0.388134
C     -1.067173   -0.631165   -0.437966
H     -2.090746   -1.023239   -0.493209
