13

C      1.359451   -0.357306    0.384395
C      0.090380   -0.240134   -0.416350
H      0.181067   -0.709406   -1.419013
C     -1.174633   -0.613149    0.248535
H     -1.882723   -1.232333   -0.377893
H     -1.114394   -1.063133    1.259744
O     -1.616531    0.698968    0.225612
C     -0.480217    1.133863   -0.389267
H      0.126126    1.837058    0.250980
H     -0.595682    1.524740   -1.420952
H      1.185730   -0.523740    1.459849
H      2.035229   -1.092388   -0.083308
H      1.886197    0.636961    0.277666
