10

N      1.876689   -0.116265    0.189575
C      0.592087    0.082350   -0.394136
O      0.469661    0.413877   -1.607980
C     -0.607596   -0.095925    0.408514
O     -0.481027   -0.426013    1.616359
N     -1.878036    0.106335   -0.190197
H     -2.514099   -0.690362   -0.453852
H     -2.178027    1.090001   -0.369191
H      2.041210   -0.823306    0.931000
H      2.679137    0.459308   -0.130092
