14

O      2.624827   -0.505511    0.876037
N      1.528972   -1.261224    0.574741
C      0.431967   -0.728458    0.158461
C     -0.923894   -1.158504   -0.259246
H     -0.975468   -1.765669   -1.174525
H     -1.540485   -1.590043    0.547229
C     -1.279877    0.294428   -0.508209
H     -1.537304    0.539179   -1.543917
H     -2.085644    0.680275    0.166489
C      0.087093    0.705686   -0.085027
O      0.087726    1.433821    1.100104
H     -0.323383    2.313730    0.891079
H      0.753386    1.090861   -0.884692
H      3.152086   -0.048572    0.141477
