16

C     -0.927066   -1.311436    0.530621
C     -0.632975    0.167365    0.721852
C      0.209844    0.660328   -0.419669
C      1.503311   -0.099603   -0.466897
O      2.272256    0.368575   -1.529119
H      1.955556    1.271354   -1.774852
H      1.380319   -1.183988   -0.518756
H      2.068171    0.171722    0.463863
H      0.439251    1.727029   -0.289502
H     -0.378891    0.554455   -1.352585
C     -1.869887    0.918943    0.734707
N     -2.885508    1.513933    0.737247
H     -0.096702    0.295970    1.690773
H     -2.023422   -1.471283    0.658576
H     -0.407057   -1.943183    1.279243
H     -0.607199   -1.640180   -0.465500
