17

C      1.867597   -0.152107   -0.783799
N      0.877610    0.595740   -0.122802
C      0.537297    0.453250    1.246715
H      0.969148   -0.371250    1.830683
H      0.222052    1.312233    1.871827
C     -0.438578    0.134615    0.141035
C     -0.844300   -1.292165    0.071140
H     -1.677515   -1.421850   -0.661922
H     -1.280188   -1.652780    1.049418
H     -0.068071   -2.002579   -0.195044
C     -1.495878    1.158221   -0.227026
H     -1.157152    1.687179   -1.166117
H     -2.432945    0.644538   -0.514264
H     -1.620618    1.943703    0.526080
H      2.066883    0.330757   -1.783913
H      1.619039   -1.198477   -1.012571
H      2.855621   -0.169028   -0.269437
