14

C      2.294904   -0.419731   -0.097677
N      0.961286   -0.991687   -0.179236
C     -0.082987   -0.251532   -0.041998
N      0.119120    1.123650    0.188477
H      0.928090    1.681647   -0.145810
H     -0.603212    1.633774    0.743229
C     -1.441074   -0.781177   -0.116093
O     -1.629254   -2.003425   -0.320795
N     -2.553406    0.075750    0.041664
H     -2.949965    0.648728   -0.723539
H     -3.001095    0.138060    0.972988
H      3.010037   -1.264563   -0.187558
H      2.510944    0.244405   -0.970644
H      2.436611    0.166101    0.836990
