10

C     -1.678477    0.077151    0.364679
C     -0.202075   -0.090627    0.140573
N      0.430999   -1.102978   -0.479750
O      1.712798   -0.874366   -0.465679
C      1.977364    0.251557    0.138558
H      2.986781    0.617402    0.253210
N      0.786838    0.741307    0.516863
H     -1.875826   -0.018631    1.459245
H     -1.960931    1.105618    0.005335
H     -2.177472   -0.706433   -0.207215
