9

O      2.358670   -0.077397   -0.349805
C      1.270441    0.425280   -0.185370
C      0.064089   -0.429004   -0.319158
H      0.212500   -1.491347   -0.564149
C     -1.174388   -0.045226    0.430709
H     -1.096410    0.913672    1.002674
H     -1.753498   -0.882886    0.864895
O     -1.069459    0.112007   -0.933381
H      1.188056    1.474903    0.053585
