11

N     -0.958855    1.825548   -0.314236
C     -0.531194    0.667632    0.494516
O     -0.933789    0.556672    1.593905
C      0.408885   -0.244204   -0.291028
C      0.665530   -1.403594    0.100396
C      0.921013   -2.599730    0.526146
H      1.137089   -3.652977    0.917082
H      1.409384    0.472296   -0.395768
H      0.089563   -0.065605   -1.407758
H     -1.046912    1.755339   -1.332957
H     -1.160715    2.688623    0.205531
