13

O     -0.017124   -0.249823    1.712721
C      0.102564   -0.133021    0.330902
C      1.520660   -0.195533   -0.149469
O      1.759251   -0.105482   -1.335029
H      2.304209   -0.321409    0.588425
C     -0.593702    1.002606   -0.300324
H      0.058655    1.691013   -0.903135
H     -1.226480    1.564898    0.438242
O     -1.404527    0.178600   -1.014105
C     -0.828786   -0.932194   -0.490135
H     -1.528335   -1.507597    0.180814
H     -0.306374   -1.598858   -1.224923
H      0.159988    0.606801    2.166014
