12

O      1.500512   -0.357876   -1.156241
C      0.760431    0.154695   -0.136997
H      1.335416    0.773556    0.609255
C     -0.517019    0.878240   -0.495796
H     -0.746515    0.652409   -1.585284
H     -0.601594    1.937849   -0.229790
C     -1.257256   -0.092915    0.384244
H     -1.913894    0.291400    1.186870
O     -1.153560   -1.423403    0.026449
C     -0.102725   -0.793066    0.684390
H      0.311633   -1.379907    1.488472
H      2.384571   -0.640982   -0.775572
