10

O     -0.688648   -0.985982    0.975277
C     -1.594845   -0.504311   -0.087591
O     -1.160288    0.692689   -0.348218
C      0.075395    1.210581    0.442948
C      0.986336    0.134537    0.131726
C      1.861821   -0.904523   -0.192988
H      2.491033   -1.648085   -0.410201
H     -0.159312    1.223556    1.489112
H      0.399153    2.111863   -0.086963
H     -2.210645   -1.330325   -0.187283
