12

N     -1.241810   -0.856992   -0.112959
C     -0.541365    0.337342    0.152090
C      0.883422    0.072685    0.569634
O      1.597462   -0.605918   -0.415689
H      2.443351   -0.899314   -0.015888
H      0.833463   -0.576273    1.474485
H      1.384412    1.029897    0.787214
C     -0.610495    1.212779   -1.020468
N     -0.653632    1.893120   -1.958894
H     -1.028322    0.877797    0.989587
H     -1.829270   -1.254622    0.596737
H     -1.237214   -1.230501   -1.045849
