13

C      2.448683    0.219567    0.128461
O      1.221238   -0.033575   -0.475339
C     -0.008182   -0.014684    0.136921
O     -0.044586    0.255362    1.358931
C     -1.276848   -0.293851   -0.565466
N     -2.355911   -0.186363    0.378538
H     -3.177526   -0.759283    0.169502
H     -2.544406    0.780192    0.685889
H     -1.410113    0.406556   -1.440188
H     -1.317301   -1.315232   -0.993265
H      2.357100    0.695419    1.140025
H      3.064456   -0.700854    0.245129
H      3.043397    0.946746   -0.484652
