11

N      2.381904    0.582152    0.152091
C      1.076158    0.000138    0.091351
N      0.825973   -1.318709    0.151612
N     -0.484614   -1.498730    0.066578
C     -1.065825   -0.267122   -0.049233
N     -2.449481    0.022403   -0.167567
H     -2.887558   -0.078899   -1.103382
H     -3.048080    0.328401    0.622639
O     -0.081526    0.603853   -0.029185
H      3.217499    0.061657   -0.154010
H      2.515551    1.564855    0.514936
