21

C      1.067039    0.731010    1.285458
C      0.489463   -0.160612    0.222305
C      0.948558    0.385444   -1.129875
H      2.069605    0.440777   -1.057246
H      0.608476    1.422461   -1.260578
H      0.701678   -0.293842   -1.947538
C      1.066324   -1.578845    0.299979
H      0.613124   -2.161918    1.108398
H      2.176988   -1.541310    0.348667
H      0.750923   -2.075521   -0.656269
C     -0.997813   -0.291071    0.303922
H     -1.371046   -1.094889    0.969832
C     -1.889413    0.890827    0.184332
H     -1.485018    1.913520    0.117523
H     -2.881133    0.863936    0.702236
C     -1.758702   -0.058815   -0.978892
H     -2.629701   -0.725733   -1.194628
H     -1.221205    0.388579   -1.846386
H      2.123664    0.411635    1.464869
H      0.465883    0.770179    2.206355
H      1.152305    1.764189    0.857537
