13

O     -0.349494    2.434700   -0.187057
C     -0.221157    1.237866   -0.151210
C     -1.053845    0.179103   -0.562263
H     -0.850677    0.070425   -1.770980
H     -2.139361    0.313715   -0.438861
C     -0.487139   -1.130285   -0.031581
H     -1.205928   -1.480103    0.699296
H     -0.322076   -1.956517   -0.772344
C      0.830611   -0.769248    0.520320
O      1.673253   -1.627329    0.964830
C      1.022421    0.614319    0.474064
H      1.887262    0.952046   -0.214318
H      1.216128    1.161309    1.470104
