12

O     -1.669413    1.045504   -0.443808
C     -1.340666   -0.309042   -0.447373
C     -0.034764   -0.459824    0.321871
O      0.916822    0.327877   -0.380067
C      2.227782    0.454311    0.001474
O      2.599735   -0.165183    1.031595
H      2.976048    1.045071   -0.510224
H     -0.232240   -0.044905    1.339286
H      0.231982   -1.523564    0.353529
H     -2.151317   -0.902813    0.005920
H     -1.146391   -0.637635   -1.509210
H     -2.377578    1.170203    0.237007
