15

C     -2.895957   -0.138861   -0.349353
O     -1.674610    0.495494   -0.494542
C     -0.704420   -0.294225    0.063023
C      0.659270    0.299222   -0.039346
O      0.864925    1.417374   -0.589838
O      1.778145   -0.349721    0.467476
C      3.059510    0.213729    0.368254
H      3.762642   -0.445485   -0.214873
H      3.526686    0.275448    1.391029
H      3.054298    1.240766   -0.054037
H     -0.754860   -1.291401   -0.412621
H     -0.901669   -0.423443    1.149919
H     -2.909486   -1.136127   -0.854923
H     -3.742882    0.501609   -0.703053
H     -3.121593   -0.364380    0.725982
