16

C      2.087904    0.052450   -0.402513
C      0.610257    0.172887   -0.588070
H      0.369202    0.359873   -1.644405
C     -0.159866   -0.996606    0.000363
H     -0.051946   -1.920786   -0.580300
H      0.147927   -1.116739    1.045538
C     -1.573950   -0.431482   -0.036108
H     -2.093093   -0.596631    0.922245
H     -2.120940   -0.840818   -0.902211
C     -1.299454    1.035283   -0.226691
H     -1.993083    1.700937    0.294865
H     -1.323689    1.252925   -1.324603
O      0.043048    1.229658    0.142247
H      2.559755    0.942445   -0.841123
H      2.386245   -0.002884    0.655073
H      2.411684   -0.840512   -0.971429
