17

C      2.462035   -0.143634   -0.025810
C      1.096815    0.394626   -0.181716
C     -0.074477   -0.529921   -0.233191
H      0.223124   -1.400993   -1.034340
O     -0.481558   -1.290650    0.843305
C     -1.811223   -0.677927    0.647579
H     -2.695002   -1.323160    0.617757
C     -1.907309    0.789674    0.665641
H     -2.867768    1.294127    0.516389
H     -1.226630    1.301497    1.383867
C     -1.322808    0.085294   -0.504977
H     -1.761019    0.117296   -1.503760
H      0.861243    0.864897    0.941911
H      0.953902    1.171781   -0.852220
H      3.094878    0.539817    0.524211
H      2.595945   -1.151548    0.242268
H      2.859851   -0.041177   -1.170448
