13

O      1.023021    0.297988   -2.465367
C      1.224806    0.240946   -1.191973
C      0.666022   -0.765128   -0.322836
H      0.900175   -1.843941   -0.622897
O      1.038227   -0.508446    1.007746
C     -0.291313   -0.119459    1.349559
H     -0.769624   -0.467922    2.262188
C     -0.986961    0.927569    0.491579
H     -2.006786    1.160585    0.764767
H     -0.354398    1.687343   -0.054183
C     -0.753532   -0.498928   -0.051530
H     -1.586725   -1.158505   -0.253134
H      1.897087    1.047897   -0.913920
