12

N      2.259839   -0.536035   -0.003721
C      0.883701   -0.210217    0.046521
C      0.285027    0.977328   -0.389134
H      0.835627    1.785256   -0.819767
N     -1.018277    0.889237   -0.167962
H     -1.689024    1.670471   -0.415768
C     -1.288962   -0.292363    0.386912
O     -2.588615   -0.679272    0.738294
H     -3.093461   -1.350936    0.152372
N     -0.145582   -0.950552    0.514645
H      2.590042   -1.503043   -0.190183
H      2.969685    0.200126    0.147791
