14

C     -1.282302   -0.116817   -0.797984
H     -2.387587   -0.260012   -0.832726
H     -0.824250   -0.200758   -1.753324
C     -0.584489   -0.747550    0.354897
H     -1.105361   -1.356362    1.101601
C      0.870945   -0.955276    0.167023
H      1.102031   -1.602893   -0.689900
H      1.264320   -1.338611    1.132010
C      1.456755    0.406605   -0.007755
H      2.536329    0.545770   -0.156276
C      0.541445    1.310386    0.114065
H      0.687569    2.408108    0.044220
C     -0.779267    0.730243    0.264901
H     -1.496137    1.177167    1.059249
