13

C     -1.702298   -0.159159    0.493133
O     -0.908517    0.902564    0.192659
C      0.248539    0.687147   -0.481954
C      1.131647   -0.224996    0.326354
O      2.310539   -0.418180   -0.397323
H      2.023398   -0.449482   -1.361574
H      1.350362    0.193762    1.326490
H      0.638104   -1.218069    0.447446
H      0.126060    0.262217   -1.495261
H      0.749033    1.685529   -0.602714
H     -1.217183   -0.904832    1.127998
H     -2.556896    0.246264    1.111529
H     -2.192790   -0.602763   -0.402296
