9

O      2.311676   -0.726863    0.000811
C      1.080424   -0.474042   -0.015706
C      0.191486    0.705087    0.089924
H      0.188797    1.184125    1.109902
H      0.344325    1.419102   -0.747245
C     -0.962422   -0.245763   -0.065682
H     -1.624551   -0.355745    0.789859
H     -1.517662   -0.194235   -1.006235
O     -0.012074   -1.311667   -0.155628
