17

C      1.436000    0.183118    0.869812
H      0.847757    1.001193    1.334798
H      2.029111   -0.383618    1.614016
C      2.004908    0.531927   -0.468255
H      1.766268    1.513909   -0.933485
H      3.066560    0.237936   -0.612790
C      0.992814   -0.535696   -0.332925
C     -0.429393   -0.356845   -0.759569
H     -0.656788   -0.859499   -1.746446
C     -1.475064   -0.777065    0.237891
H     -1.090858   -1.077522    1.236391
H     -2.230908   -1.483037   -0.099332
C     -1.935506    0.660000    0.129937
H     -2.970821    0.779099   -0.292682
H     -1.803949    1.218021    1.078204
O     -0.921611    0.923820   -0.788854
H      1.371479   -1.575741   -0.466710
