11

O     -2.791625    0.465699    0.554134
C     -1.802611   -0.218817    0.450537
C     -0.493067    0.467568    0.329925
N      0.588653   -0.493988    0.214448
C      1.919299   -0.054347    0.089224
O      2.153769    1.187441    0.079206
H      2.780449   -0.706874   -0.001512
H      0.407022   -1.521556    0.221501
H     -0.531054    1.074400   -0.615654
H     -0.315097    1.104081    1.218793
H     -1.915739   -1.303607    0.450287
