17

C      1.984436   -0.699678    0.899945
O      0.991689   -0.491823   -0.044562
C      0.219061    0.640722    0.244902
H      0.538190    1.166797    1.174099
C     -0.126354    1.494365   -0.914145
H      0.432439    1.273978   -1.862511
H     -0.026035    2.581974   -0.633670
O     -1.424577    1.118660   -0.876697
C     -1.222306    0.306832    0.185444
C     -1.507369   -1.170378   -0.029831
H     -2.543733   -1.365016    0.344827
H     -0.825943   -1.761569    0.613432
H     -1.398321   -1.473638   -1.073096
H     -1.753936    0.721737    1.083189
H      2.689072    0.155008    0.968708
H      2.492886   -1.646962    0.625909
H      1.480800   -0.851009    1.890797
