9

N      3.184571    0.108832    0.077178
C      2.026222   -0.071615    0.037140
C      0.622916   -0.301966    0.008192
C     -0.342021    0.669804   -0.003737
H     -0.186936    1.734029    0.006794
N     -1.536938    0.057394   -0.031318
H     -2.467875    0.528640   -0.046115
N     -1.301217   -1.244402   -0.035911
N      0.001278   -1.480715   -0.012222
