12

C      0.294821   -1.001069   -0.065752
H      0.368634   -1.655108   -0.969118
H      0.542744   -1.558800    0.881550
C      0.999335    0.299762   -0.138229
H      1.746336    0.467778    0.680689
H      1.460367    0.410330   -1.157588
C     -0.290983    1.000369    0.055462
H     -0.628727    1.658197   -0.783911
H     -0.258264    1.573635    1.025177
C     -0.996268   -0.301093    0.127811
H     -1.710981   -0.384251   -0.749877
H     -1.527014   -0.509751    1.093785
