12

N      1.538594    0.536085    0.098166
C      0.620566   -0.425947   -0.378367
C     -0.779755    0.175176   -0.346283
O     -1.683377   -0.777804   -0.817359
H     -1.592418   -1.571021   -0.225279
C     -1.125472    0.564816    1.005341
N     -1.411485    0.896521    2.087726
H     -0.846545    1.046434   -1.013689
H      0.883099   -0.703353   -1.417127
H      0.686765   -1.339881    0.226546
H      1.192018    1.317768    0.624854
H      2.518010    0.281205    0.155470
