14

C     -1.705573   -0.924773    1.233716
O     -0.417220   -0.539772    0.942150
C     -0.131280   -0.486212   -0.402113
C      1.327998   -0.040873   -0.534948
C      1.423265    1.266058    0.098552
C      1.498803    2.344844    0.644592
H      1.547586    3.302890    1.133866
H      2.013267   -0.741610   -0.018495
H      1.653040    0.004332   -1.590964
H     -0.225815   -1.454006   -0.915679
H     -0.761754    0.247271   -0.955712
H     -1.977655   -1.918459    0.865338
H     -2.417986   -0.144126    0.861418
H     -1.826678   -0.915565    2.339592
