13

C     -1.643853   -0.334249    0.246388
C     -0.244771   -0.263890   -0.173499
H     -0.199136   -0.587580   -1.339524
C      0.434471    1.057440   -0.174322
H      0.176384    1.676770   -1.027518
H      0.162553    1.601769    0.781520
N      1.834372    0.666570   -0.167144
C      1.907853   -0.566169    0.190908
H      2.904300   -1.054334    0.310651
O      0.682936   -1.171850    0.355572
H     -2.118588    0.649008   -0.005772
H     -2.149932   -1.168241   -0.319929
H     -1.746587   -0.505243    1.322669
