15

C      2.074370    0.202415    0.279162
C      1.122445   -0.170491   -0.802825
O     -0.170491    0.165252   -0.659539
C     -0.903001   -0.276794    0.362264
C     -2.316213    0.278056    0.239381
H     -3.079080   -0.458591    0.543394
H     -2.414153    1.212320    0.827049
H     -2.546186    0.551809   -0.820545
H     -0.567902   -0.081832    1.379094
H     -1.014631   -1.398684    0.281032
H      1.507868    0.277539   -1.745023
H      1.203382   -1.280035   -0.953990
H      1.939617   -0.307181    1.229871
H      3.101825   -0.039340   -0.071715
H      2.062151    1.325556    0.365487
