21

C      1.077845    1.218278   -0.884954
H      1.563108    2.169763   -0.743019
H      0.897212    0.968749   -1.904733
C     -0.345165    1.411243   -0.144147
H     -0.696685    2.420352   -0.665998
H      0.131949    1.903581    0.845878
C     -1.322001    0.574310    0.085272
H     -1.805569    0.202886   -0.957022
H     -2.328385    1.092207    0.489461
C     -1.432356   -0.819971    0.875161
H     -1.078453   -0.671575    1.888011
H     -2.466975   -1.114083    0.722476
C     -0.433569   -1.478803    0.022259
H     -0.514455   -2.601438    0.296539
H     -0.891637   -1.504580   -1.033060
C      0.955998   -1.137236    0.040412
H      1.411927   -1.686474    0.970548
H      1.448247   -1.775971   -0.806021
C      1.561383    0.167342    0.034965
H      2.672809    0.040439   -0.200472
H      1.594771    0.620980    1.068444
