16

C     -0.467990    0.915973   -1.149718
C     -0.041387   -0.040017   -0.036106
C     -0.998519    0.115365    1.129981
H     -2.019641   -0.070346    0.750663
H     -0.932633    1.159090    1.499908
H     -0.705040   -0.622878    1.910183
C     -0.040775   -1.466220   -0.531013
H      0.597559   -2.049073    0.174021
H     -1.087523   -1.863023   -0.463030
H      0.321782   -1.545897   -1.576967
C      1.282378    0.355694    0.448894
C      2.392189    0.697945    0.836585
H      3.346994    1.009656    1.172196
H     -0.876214    1.814724   -0.641718
H     -1.228626    0.424150   -1.804449
H      0.457445    1.164855   -1.719428
