10

O      2.213107   -0.600532    0.274894
C      0.852423   -0.353073    0.160988
C      0.172297    0.829390    0.006966
H      0.618505    1.796861   -0.051874
N     -1.154320    0.619816   -0.062769
H     -1.937242    1.312480   -0.178789
C     -1.300822   -0.716716    0.049961
H     -2.270965   -1.194650    0.028715
N     -0.092880   -1.310169    0.185366
H      2.899896   -0.383406   -0.413458
