8

N      1.287758   -0.024119   -0.058776
H      2.315705   -0.029619   -0.240687
N      0.506940    1.045288   -0.104973
C     -0.759401    0.697055    0.180551
H     -1.650251    1.330724    0.229300
C     -0.710684   -0.663852    0.407421
H     -1.554214   -1.289217    0.665698
N      0.564146   -1.066260    0.250302
