10

O      1.527911   -0.343746   -0.346998
C      0.338767   -0.149471    0.333257
H      0.505110    0.020192    1.420086
C     -0.559494    0.923974   -0.268982
H     -0.939262    1.669233    0.437377
H     -0.176789    1.312767   -1.231057
O     -1.470250   -0.147932   -0.527095
C     -0.694764   -1.165198    0.007611
O     -0.733703   -2.404368    0.191309
H      2.202475    0.284550   -0.015506
