15

C     -1.776223    0.559294    0.148345
C     -0.935258   -0.256426   -0.773054
C      0.372797   -0.688612   -0.170751
C      1.250249    0.444702    0.247416
C      2.481560   -0.154856    0.812815
N      3.435024   -0.630115    1.265981
H      0.830403    1.064141    1.052120
H      1.596161    1.072269   -0.598914
H      0.245953   -1.394656    0.663613
H      0.921297   -1.249954   -0.973126
H     -0.812129    0.208020   -1.770522
H     -1.506581   -1.211169   -0.971591
H     -2.742214    0.761146   -0.367938
H     -2.013101   -0.062635    1.035331
H     -1.347937    1.538850    0.400276
