14

C     -1.048010   -1.016155    0.455299
C     -0.419542    0.138462   -0.277235
O     -1.125927    0.694960   -1.336860
H     -1.851175    1.293661   -1.021604
C      0.396103    1.151198    0.501140
H      0.252664    1.077301    1.590595
H      0.438165    2.197730    0.140036
C      1.081926    0.122889   -0.300986
O      1.745098   -0.892198    0.394460
H      2.569856   -1.183865   -0.028475
H      1.570448    0.463273   -1.243444
H     -0.465933   -1.970683    0.318492
H     -1.088766   -0.852763    1.544603
H     -2.054907   -1.223810    0.073850
