14

C     -0.942411   -0.682709   -1.050748
C     -0.216708    0.567735   -0.625693
H     -0.217590    1.367207   -1.395255
C     -0.398958    1.086360    0.782235
H     -0.476023    2.185943    0.944036
H     -1.131518    0.515658    1.375841
C      0.889411    0.470576    0.372341
C      1.240644   -0.874594    0.864493
O      2.405144   -1.190924    1.028964
H      0.510175   -1.641839    1.103274
H      1.741024    1.132008    0.176440
H     -1.022157   -1.387022   -0.219113
H     -0.406898   -1.096725   -1.936975
H     -1.974135   -0.451676   -1.419840
