16

C     -1.723706   -0.366532    0.283808
C     -0.493844    0.301427   -0.180803
O     -0.903772    1.273979   -1.208296
H     -0.815763    0.933848   -2.042960
C      0.366489    1.047187    0.708043
H      0.312604    0.734960    1.793833
H      0.362128    2.132869    0.689905
N      1.542844    0.486055    0.121218
C      1.684429   -1.014349    0.184585
H      1.499100   -1.387628    1.224905
H      2.631944   -1.310002   -0.242726
C      0.698229   -0.414841   -0.703475
H      0.806596   -0.573628   -1.794748
H     -2.446227   -0.435970   -0.524378
H     -2.157401    0.028420    1.158796
H     -1.363650   -1.435793    0.532293
