11

C      2.064319    2.463199    2.067479
C      1.349935    1.819479    1.428815
C      0.473115    1.000742    0.615292
C     -0.298504    0.300887   -0.072129
C     -1.214310   -0.502893   -0.856985
H     -1.730354   -0.006449   -1.693886
C     -0.783263   -1.961311   -1.110840
H     -1.010046   -2.375619   -2.101936
H      0.218574   -2.184127   -0.697535
O     -1.807136   -1.620306   -0.246870
H      2.737672    3.066397    2.668594
