11

C      1.537239   -0.576350   -0.634258
C      0.377713   -0.385728    0.255951
O      0.292917   -0.988387    1.346138
C     -0.675822    0.512215   -0.140080
O     -0.600041    1.122040   -1.232912
C     -1.844747    0.716225    0.737814
O     -1.947174    0.118497    1.838367
H     -2.641782    1.379417    0.464938
H      1.192546   -0.934485   -1.645662
H      2.075300    0.373499   -0.818444
H      2.233850   -1.336942   -0.171854
