13

N     -2.193715    0.448218   -0.456378
C     -1.095455   -0.094003    0.255849
O     -1.334691   -0.728852    1.312554
C      0.258677    0.115002   -0.278357
C      1.323830   -0.518289    0.584496
O      2.559921   -0.250341   -0.027387
H      2.498040    0.633396   -0.505405
H      1.336547    0.039416    1.543650
H      1.183947   -1.583235    0.739625
H      0.272465   -0.296100   -1.321754
H      0.424469    1.203840   -0.389038
H     -2.905083    1.042016    0.013778
H     -2.328951    0.273419   -1.471634
