15

C      2.402615    0.005208   -0.135066
N      1.181011   -0.412462    0.419877
C     -0.044676    0.083611   -0.077933
N      0.004005    1.109001   -0.875789
H      0.930800    1.519936   -1.114318
C     -1.325378   -0.507400    0.269816
O     -1.362045   -1.495044    1.039239
C     -2.591949    0.036645   -0.269197
H     -3.130689    0.507034    0.579304
H     -2.349275    0.769923   -1.079263
H     -3.204385   -0.755902   -0.773309
H      1.183905   -1.097019    1.208581
H      2.782950    0.991408    0.109843
H      2.308339   -0.027313   -1.260147
H      3.214773   -0.727626    0.092838
