13

C     -1.903351   -0.600918    0.416862
O     -0.512056   -0.473637    0.443874
C     -0.101207    0.482700   -0.448094
C      1.365581    0.626979   -0.429584
O      1.935318    1.473454   -1.196615
N      2.123720   -0.188833    0.452089
H      2.980470    0.208320    0.891044
H      1.885795   -1.172330    0.699159
H     -0.404850    0.131800   -1.476611
H     -0.636369    1.437729   -0.296177
H     -2.168258   -1.386753    1.157639
H     -2.320257    0.387323    0.666866
H     -2.244538   -0.925834   -0.595966
