14

O      1.452073   -0.454276   -1.360901
C      1.090932   -0.223703   -0.191755
H      1.922743   -0.445624    0.664337
C      0.495760    1.120857    0.307260
H      0.946682    1.969633    0.613930
C     -1.102974    0.965319    0.122678
H     -1.769476    1.706947    0.308217
C     -1.312154   -0.454770   -0.469168
H     -1.328370   -0.689618   -1.399625
H     -2.258819   -0.762266    0.234531
C     -0.166424   -0.858167    0.672181
H     -0.102722   -1.824878    0.890571
N     -0.339378    0.373472    1.062120
H      2.472126   -0.422927   -1.454375
