15

O      2.308772   -0.268892    0.071443
C      0.997120   -0.089490   -0.024516
C      0.219241   -0.153243   -1.340171
H      0.559475    0.627287   -2.068457
H      0.101771   -1.151308   -1.688717
C     -0.942308    0.388631   -0.531164
H     -1.643149    1.067026   -0.941018
C     -1.370443   -0.631548    0.518398
H     -2.188500   -0.230066    1.158569
H     -1.489176   -1.618536    0.137175
C      0.019103   -0.401847    1.115870
H      0.332011   -0.754143    2.066265
C      0.075450    0.835676    0.468167
H      0.151942    1.854624    0.811586
H      2.868690    0.525830    0.246570
