10

N      1.544802   -1.052434    0.459290
C      1.427212   -0.010292   -0.307261
O      0.245436    0.720523   -0.278673
C     -0.940494    0.048388    0.095870
C     -2.054615    0.993599    0.059818
N     -2.940990    1.735865    0.050061
H     -1.076938   -0.797469   -0.610566
H     -0.905160   -0.371291    1.107685
H      2.228257    0.298654   -0.964994
H      2.472490   -1.565543    0.388770
