16

C      0.328568    1.549072   -0.025195
C     -0.114829    0.142573   -0.317038
C      0.960525   -0.863425   -0.025466
O      2.057204   -0.589717   -0.801907
H      2.908078   -0.876403   -0.382676
H      0.575429   -1.866001   -0.317558
H      1.194809   -0.932659    1.062984
C     -1.354573   -0.130506    0.533289
O     -1.793640   -1.439796    0.282361
H     -2.368090   -1.400248   -0.542501
H     -1.104531   -0.035179    1.612521
H     -2.166352    0.545734    0.216764
H     -0.403909    0.026164   -1.381421
H      1.363850    1.626083    0.326968
H     -0.334233    2.063337    0.716422
H      0.251694    2.180971   -0.957547
