18

C     -2.544456   -0.689676   -0.812937
O     -1.158746   -0.592734   -0.894513
C     -0.684152    0.031137    0.259527
H     -1.492174    0.311051    0.980124
C      0.227869    1.186024    0.042091
H     -0.098234    2.124355    0.583160
H      0.465615    1.404619   -1.039109
N      1.304919    0.487100    0.647293
C      2.500732    0.296248   -0.121848
H      2.794618    1.239696   -0.629864
H      2.487033   -0.575732   -0.785679
H      3.329021    0.097915    0.621166
C      0.483042   -0.649481    0.883109
H      0.742827   -1.566640    0.291199
H      0.365091   -0.921379    1.960955
H     -2.849805   -1.293023    0.085676
H     -2.894383   -1.221758   -1.698704
H     -2.978816    0.332278   -0.771534
