8

C     -1.364764   -0.016026    0.043368
H     -2.450023    0.000492    0.077485
N     -0.667823    1.134227    0.006570
N      0.649271    1.157882   -0.035389
C      1.357072    0.019553   -0.043171
H      2.436700   -0.011059   -0.076922
N      0.678009   -1.136878   -0.006861
N     -0.638442   -1.148191    0.034920
