19

C      2.425291   -0.024269   -0.301303
C      1.097962   -0.419283   -0.875937
C      0.054951   -0.694670    0.161041
H      0.187765   -1.676429    0.703071
C     -0.298652    0.428892    1.089011
H      0.062813    1.440608    0.910326
H     -0.486450    0.213499    2.173904
C     -1.308269   -0.186293    0.104265
C     -1.804403    0.787181   -0.911544
H     -1.955275    1.769005   -0.378562
H     -2.839935    0.514121   -1.269035
H     -1.193378    0.890882   -1.805413
O     -2.339516   -0.933548    0.713089
H     -2.039060   -1.335349    1.567576
H      0.759543    0.349365   -1.574083
H      1.265117   -1.358818   -1.476031
H      3.240777   -0.408983   -0.949058
H      2.563400    1.092592   -0.296690
H      2.607318   -0.448501    0.711484
