9

C     -1.000645    0.264727   -0.008807
C      0.302389   -0.522110   -0.170013
C      1.458574    0.263399    0.241189
N      2.382659    0.885294    0.562788
H      0.469047   -0.834519   -1.212541
H      0.236904   -1.451967    0.455565
H     -1.348667    0.669934   -0.981692
H     -1.755894   -0.396152    0.447000
H     -0.744367    1.121394    0.666511
