10

N      1.533012    0.181189    0.147924
C      0.130270    0.039057    0.001984
C     -0.542040   -1.153471    0.060945
H     -0.095463   -2.143048    0.226042
N     -1.837197   -0.848013   -0.123842
N     -1.951899    0.439657   -0.284718
N     -0.765750    0.997710   -0.211526
H     -0.592221    2.019083   -0.308534
H      1.902600    0.202784    1.121038
H      2.218689    0.265050   -0.629312
