8

N     -1.060650    0.910994    0.393626
C     -0.887999   -0.151902   -0.350560
O      0.360944   -0.318136   -0.974722
C      1.485067   -0.245472   -0.124853
O      1.319041   -0.030678    1.102799
H      2.487141   -0.362834   -0.460065
H     -1.713466   -0.841554   -0.447416
H     -1.990078    1.039582    0.861193
