13

O      2.746220    0.092356    0.090946
N      1.726392   -0.354967    0.882082
C      0.506330   -0.155347    0.461471
C     -0.041547    0.479907   -0.742536
H      0.218237    1.562587   -0.840634
H      0.255787   -0.066206   -1.668698
C     -1.427894    0.195435   -0.269264
H     -1.900752   -0.573575   -0.939140
H     -2.059887    1.095446   -0.117624
C     -0.856938   -0.440160    0.936416
H     -1.036809    0.076064    1.908117
H     -1.094264   -1.517049    1.083462
H      2.965125   -0.394490   -0.784597
