14

C     -1.791843    0.784766   -0.203665
C     -0.876905   -0.319557    0.351436
H     -1.474201   -0.908012    1.085783
O     -0.366785   -1.095941   -0.651407
C      0.977350   -0.949970   -0.720463
H      1.349836   -0.642453   -1.729696
H      1.453950   -1.925639   -0.427262
C      1.355798    0.001701    0.329246
N      2.568540    0.435172    0.621280
H      2.668162    1.125762    1.414321
O      0.189860    0.362555    0.961505
H     -1.541868    0.975296   -1.258441
H     -1.653043    1.733468    0.359193
H     -2.858852    0.422851   -0.131831
