19

C      3.132685   -0.100416   -0.634046
C      1.891220   -0.440282    0.140986
O      0.717752   -0.132672   -0.577423
C     -0.341123   -0.500739    0.263890
C     -1.682388   -0.247668   -0.330074
H     -2.102748   -1.127397   -0.892711
C     -2.153889    1.078001   -0.738270
H     -1.575973    1.996328   -0.560658
H     -2.872557    1.130758   -1.593718
C     -2.727086    0.431697    0.542080
H     -3.776968    0.077282    0.496535
H     -2.343178    0.823110    1.507032
H     -0.210675   -1.562712    0.498313
H     -0.230220    0.154499    1.172625
H      1.880708    0.059083    1.130366
H      1.895490   -1.563544    0.266304
H      3.090561    0.843284   -1.171478
H      3.436339   -0.907605   -1.339845
H      3.972051   -0.011005    0.116203
