14

C      2.644996   -0.317150    0.900121
C      1.332088   -0.081058    0.278963
C      0.252699    0.132741   -0.240540
C     -1.041679    0.408275   -0.854194
C     -2.028607   -0.608249   -0.277008
H     -3.029405   -0.295608   -0.669701
H     -1.760863   -1.623789   -0.608002
H     -1.963946   -0.558037    0.817980
O     -1.488160    1.695262   -0.563185
H     -0.844502    2.149388    0.049675
H     -0.933952    0.281418   -1.944183
H      3.398360    0.206455    0.292526
H      2.657092    0.024868    1.954606
H      2.805879   -1.414516    0.862943
