12

C      3.308672   -0.241419   -0.530224
C      1.881461   -0.111980   -0.186969
C      0.703606   -0.008524    0.083035
C     -0.680331    0.091439    0.387279
C     -1.862277    0.163481    0.642759
C     -3.298842    0.241202    0.946989
H     -3.844469   -0.385398    0.197780
H     -3.529210   -0.163914    1.953617
H     -3.622497    1.289184    0.929256
H      3.803862    0.746038   -0.627548
H      3.775542   -0.776662    0.322774
H      3.364485   -0.843446   -1.470978
