13

C     -0.571615   -0.335017   -1.341409
C      0.204586    0.600222   -0.447656
H      0.832462    1.342035   -0.969483
C     -0.360293    0.975598    0.865247
H     -0.147521    2.019088    1.217122
H     -1.365982    0.626595    1.138993
C      0.810329    0.071428    0.820231
C      0.644233   -1.375983    1.017202
N      0.505238   -2.513331    1.166155
H      1.813736    0.431129    1.142762
H      0.042400   -0.775500   -2.141638
H     -1.487450    0.127397   -1.753383
H     -0.920122   -1.193661   -0.714144
