15

C     -1.676422    0.691636    0.257700
C     -1.154479   -0.533905   -0.467596
C      0.215642   -0.863156    0.081665
N      1.072640    0.278468   -0.153585
C      2.441171    0.308216    0.240960
O      2.959865   -0.666170    0.813831
H      3.061179    1.174453    0.053462
H      0.719167    1.136773   -0.627429
H      0.108010   -0.952564    1.186537
H      0.621964   -1.790264   -0.363065
H     -1.084989   -0.237442   -1.553906
H     -1.854346   -1.389383   -0.403457
H     -2.281854    0.290094    1.118872
H     -2.311791    1.297308   -0.418840
H     -0.835756    1.255937    0.687950
