11

N      1.812632   -0.254003   -0.008644
C      0.444172    0.046113    0.028133
C     -0.186387    1.248831    0.266030
H      0.297922    2.214078    0.475436
O     -1.468969    1.053084    0.201461
C     -1.771481   -0.185762   -0.061347
H     -2.766451   -0.608240   -0.167611
C     -0.569123   -0.860740   -0.179023
H     -0.494285   -1.932956   -0.400203
H      2.397685   -0.559812    0.783421
H      2.304285   -0.160594   -0.937653
