17

C     -2.073107    0.746999   -0.692484
C     -0.998778    0.239671    0.163597
H     -1.274107    0.317502    1.278653
C     -0.619485   -1.203757    0.013203
H     -1.303012   -1.906453    0.405699
H     -0.530582   -1.360114   -1.141697
O      0.690878   -1.229042    0.440608
C      1.179995    0.047910    0.408457
C      2.376596    0.093957   -0.516571
H      3.162492   -0.562381   -0.091561
H      2.693031    1.155928   -0.586068
H      2.046975   -0.326878   -1.486887
H      1.546848    0.359617    1.435867
O      0.169784    0.916726    0.109837
H     -2.059428    0.213529   -1.677697
H     -1.932007    1.829625   -0.921005
H     -3.076095    0.667163   -0.213736
