17

C      2.806673   -0.068026   -0.003582
N      1.406177   -0.415076   -0.244259
C      0.361376    0.407447    0.276804
O      0.727493    1.415495    0.934022
N     -1.015678    0.106951    0.066551
C     -2.000142    1.006378    0.638101
H     -2.989098    0.523620    0.772192
H     -1.578770    1.391338    1.583398
H     -2.064258    1.873624   -0.076301
C     -1.443449   -1.034915   -0.678099
H     -2.527995   -1.203856   -0.529934
H     -0.939334   -1.966529   -0.322477
H     -1.281842   -0.933988   -1.767268
H      1.161723   -1.247675   -0.786411
H      2.917713    0.123813    1.079106
H      3.006659    0.871867   -0.542528
H      3.452752   -0.850468   -0.399316
