11

N      1.266879   -0.079194    0.219816
H      1.560736    0.140252    1.210138
C      0.314100    0.810520   -0.362533
H      0.447488    1.770361   -0.640231
C     -0.328215   -0.309670   -1.018784
H     -0.215554   -0.690402   -1.953176
O     -1.527200    0.087342   -0.446546
C     -0.688051    0.296904    0.617030
H     -0.911939    0.704276    1.514933
C      0.070895   -0.888599    0.266344
H      0.010861   -1.841792    0.593009
