19

C     -2.355721   -0.606168   -0.359414
C     -1.000747   -0.386142   -1.047893
C     -0.306842    0.690248   -0.259932
H     -0.713305    1.705439   -0.448592
C     -0.086693    0.294861    1.209355
H     -0.235340   -0.746100    1.503923
H     -0.385511    1.075419    1.942201
C      1.050756    0.538456    0.272283
C      1.971500   -0.569302   -0.109377
O      3.165092   -0.391186    0.589648
H      3.208109    0.510133    1.021670
H      1.584522   -1.584118    0.107030
H      2.240298   -0.476295   -1.201377
H      1.585717    1.512431    0.472681
H     -1.228573   -0.083356   -2.079641
H     -0.455779   -1.344927   -1.068038
H     -3.110203   -0.987274   -1.053067
H     -2.228184   -1.257204    0.540218
H     -2.699093    0.401194   -0.031678
