11

C      2.979158    0.249140   -0.684091
C      1.781297    0.152613   -0.482585
C      0.356796    0.024333   -0.263555
C     -0.278314    0.017715    0.972393
H      0.231840    0.109213    1.919636
C     -1.633920   -0.123052    0.758674
H     -2.376714   -0.160110    1.542970
C     -1.762270   -0.196471   -0.614133
H     -2.734120   -0.312358   -1.104201
O     -0.579589   -0.106761   -1.173188
H      4.015836    0.345739   -0.871919
