17

C      1.851226   -0.693233   -0.259929
C      0.500682   -0.590476    0.415136
H      0.352653   -1.339706    1.214138
C     -0.251281    0.652868    0.487254
C      0.167903    1.916677   -0.203806
H      1.227851    1.917220   -0.500859
H     -0.467888    2.060696   -1.094159
H      0.014963    2.804766    0.457570
H     -0.892824    0.807376    1.379027
N     -0.639484   -0.409579   -0.451934
C     -1.879067   -1.097600   -0.148888
H     -1.922244   -1.287418    0.944022
H     -2.739833   -0.460232   -0.398281
H     -1.927679   -2.075797   -0.650532
H      2.031757   -1.759216   -0.515015
H      1.939822   -0.038934   -1.136131
H      2.633441   -0.407412    0.462387
