12

C     -0.645225   -0.916959   -0.324478
H     -0.424636   -1.005439   -1.398743
H     -1.370573   -1.644933    0.087407
C     -0.920659    0.462829    0.170809
H     -1.884347    0.880352    0.161349
O     -0.361831    0.047943    1.396946
C      0.516169   -0.691501    0.593812
H      1.049796   -1.501412    1.013106
C      1.253869    0.405555   -0.097762
H      2.309625    0.522068   -0.313899
C      0.229582    1.243250   -0.393998
H      0.248229    2.198248   -0.894547
