18

C      2.144107   -0.340020    0.387364
C      1.464178    0.893448   -0.188932
O      0.145756    0.993348    0.131515
C     -0.673244   -0.005494   -0.263291
C     -1.832475    0.390069   -1.123318
H     -2.632864   -0.363997   -0.969532
H     -1.611188    0.403705   -2.197644
H     -2.249998    1.357363   -0.757143
C     -1.227885   -0.726140    0.967848
H     -0.700318   -1.668637    1.169932
H     -2.306917   -1.012013    0.794854
H     -1.209331   -0.007431    1.793579
H     -0.084050   -0.773330   -0.811529
H      1.702052    0.974801   -1.262799
H      1.992818    1.765129    0.296605
H      2.465656   -0.161688    1.446841
H      1.519198   -1.231208    0.363015
H      3.094505   -0.487906   -0.177254
