16

C      1.856145    0.614906   -0.936122
C      0.986696   -0.531366   -0.459213
H      1.641416   -1.433290   -0.322328
C      0.166202   -0.285289    0.734174
H      0.312548   -1.003375    1.584980
H      0.121997    0.772695    1.100430
C     -0.936946   -0.634990   -0.188314
C     -1.997303    0.433552   -0.381253
H     -1.775625    1.127523   -1.188817
H     -2.181960    0.954372    0.580827
H     -2.949589   -0.108719   -0.621688
H     -1.383385   -1.622158    0.117930
O     -0.086178   -0.833765   -1.217016
H      2.805405    0.549096   -0.392862
H      2.070434    0.419681   -2.007247
H      1.350142    1.581128   -0.860604
