11

C     -1.193023    0.500780   -0.202897
H     -2.253666    0.276939   -0.083627
H     -0.943993    1.468719   -0.670202
C     -0.335094   -0.691729   -0.483394
H     -0.799036   -1.678016   -0.628983
O      0.951529   -0.518959   -1.029768
C      1.726773    0.176302   -0.136532
H      2.763839    0.440215   -0.287654
N      1.067293    0.474098    0.929750
C     -0.262938   -0.028970    0.835498
H     -0.721683   -0.419380    1.757810
