14

C     -1.757573    0.149915    0.399517
C     -0.443667    0.022928   -0.184547
C      0.531431   -1.032336    0.219847
H      0.545421   -1.939355   -0.453661
H      0.479292   -1.252137    1.257134
C      1.668277   -0.051348   -0.084581
H      2.196912    0.297982    0.853350
H      2.273741   -0.340593   -0.925844
C      0.557051    0.964432   -0.446471
H      0.605895    1.976062   -0.004672
O     -0.296833    0.636524   -1.470210
H     -2.158652    1.189517    0.233404
H     -1.759082   -0.011730    1.496858
H     -2.442214   -0.609862   -0.080252
