12

C      1.168218   -0.205099   -2.223879
C      0.811688   -0.180622   -1.071951
C      0.395305   -0.137465    0.348721
H      1.272175   -0.315058    0.996859
C     -0.852984   -0.855472    0.653751
H     -1.296197   -1.297830   -0.286211
H     -0.789855   -1.601744    1.487545
O     -1.464259    0.326633    1.013519
C     -0.344405    1.074951    0.754126
H      0.060670    1.611267    1.661827
H     -0.428026    1.798021   -0.092099
H      1.467670   -0.217583   -3.242209
