18

C     -0.958114    0.702399   -0.908620
C     -0.146823   -0.046922    0.094328
C     -0.902522   -1.268723    0.579735
H     -1.647278   -0.942483    1.326071
H     -1.334556   -1.777892   -0.294335
H     -0.164559   -1.996907    1.024504
C      0.184325    0.894809    1.230766
H      1.192150    1.355067    1.049546
H      0.179711    0.318641    2.152767
H     -0.519898    1.755875    1.267272
C      1.167687   -0.554736   -0.458900
O      1.977695    0.478221   -0.914352
H      1.849220    0.702400   -1.856880
H      1.032331   -1.350811   -1.218558
H      1.703981   -1.022497    0.395483
H     -0.891357    1.815244   -0.759530
H     -2.029963    0.457438   -0.744059
H     -0.692030    0.480877   -1.965239
