13

C      1.321294   -0.279663   -0.770986
C      0.672208   -0.224322    0.593423
H      1.286568   -0.716657    1.379819
N      0.072005    1.018668    1.027713
H      0.087278    1.759468    0.287348
C     -0.757947   -0.166944    0.800445
C     -1.735401    0.012720   -0.303152
O     -2.903778   -0.328962   -0.207050
H     -1.454966    0.458699   -1.251955
H     -1.178243   -0.636835    1.717405
H      1.543953   -1.329436   -1.011744
H      2.320514    0.236626   -0.705876
H      0.726514    0.196638   -1.555391
