17

C     -2.110177   -0.153427   -0.345453
C     -0.896275    0.707812   -0.219376
O     -0.795514    1.167275    1.089838
H     -1.279017    0.542813    1.664663
C      0.384998   -0.022108   -0.569714
H      0.425756   -0.291592   -1.660663
C      1.613776    0.704629   -0.157266
H      2.329652    0.930244   -0.988116
H      1.348798    1.613125    0.435981
C      1.857218   -0.519070    0.619371
H      1.961959   -0.402054    1.727185
H      2.762697   -1.067314    0.235130
O      0.706717   -1.094368    0.180165
H     -0.965927    1.595287   -0.873260
H     -1.952705   -1.081710   -0.926681
H     -2.490264   -0.454667    0.658597
H     -2.901690    0.421867   -0.870401
