13

C     -1.762052   -0.197156    0.168593
C     -0.347469   -0.598562   -0.209064
H     -0.401926   -1.481175   -0.901527
C      0.498494    0.445749   -0.785204
H      0.059271    1.481817   -0.758011
H      0.941447    0.244674   -1.794759
C      1.351050    0.198232    0.355887
N      2.475821    0.698973    0.765656
H      2.957714    0.389149    1.635697
O      0.538281   -0.748334    0.834183
H     -2.299671   -0.028806   -0.802041
H     -1.796417    0.669280    0.824891
H     -2.214544   -1.073840    0.665700
