17

C     -1.849486    0.556437    0.615569
C     -1.080440   -0.727474    0.546434
H     -1.413417   -1.547428    1.216705
C     -0.520706   -1.085201   -0.814029
H     -0.631951   -2.162344   -1.068851
H     -0.734479   -0.391714   -1.649488
C      0.399720   -0.717372    0.275890
C      1.040738    0.643117    0.349000
C      2.464119    0.609406   -0.109843
O      3.102948    1.646762    0.032307
H      2.902494   -0.271351   -0.539037
H      1.017258    0.941895    1.428419
H      0.505646    1.389037   -0.287632
H      1.017641   -1.526446    0.691921
H     -2.308944    0.727149   -0.390187
H     -2.677384    0.493673    1.367118
H     -1.233758    1.421852    0.932445
