18

C      2.002454    0.497352   -0.477715
C      1.441984   -0.759242    0.149975
C      0.058652   -0.546030    0.727418
C     -0.900126   -0.107966   -0.372837
C     -2.284315    0.107168    0.195611
H     -2.705404    1.104843   -0.081526
H     -3.008533   -0.662851   -0.189646
H     -2.270675    0.024292    1.312557
O     -0.437389    1.040014   -0.989821
H     -0.784320    1.827018   -0.470164
H     -0.918357   -0.908818   -1.165640
H     -0.262831   -1.511201    1.150410
H      0.073053    0.219383    1.507463
H      1.339172   -1.564154   -0.614193
H      2.146964   -1.134397    0.907655
H      3.120187    0.503792   -0.439435
H      1.638929    1.420025    0.012391
H      1.750557    0.450773   -1.562390
