14

O     -2.218679   -0.616966    0.632332
C     -1.844990    0.568189    0.617681
N     -0.799255    0.933226   -0.271255
C     -0.146966   -0.005475   -1.158868
C      0.490584   -1.082295   -0.317795
C      1.473526   -0.436071    0.584906
C      2.263052    0.108036    1.317600
H      2.947845    0.602020    1.958278
H      1.100891   -1.720108   -1.017039
H     -0.203715   -1.697049    0.245386
H      0.619088    0.515794   -1.739322
H     -0.894067   -0.458276   -1.846329
H     -0.504155    1.944340   -0.262736
H     -2.283158    1.344636    1.257162
