11

C      2.440758    0.008309    0.424892
C      0.980397   -0.069905    0.363957
C     -0.238716   -0.133793    0.291782
C     -1.662057   -0.209498    0.182550
O     -2.288451   -0.689785    1.153989
N     -2.396047    0.217919   -0.937734
H     -2.033719   -0.011576   -1.880102
H     -3.280040    0.750199   -0.870604
H      2.930903   -0.366342   -0.492420
H      2.759443   -0.564920    1.315843
H      2.787529    1.069391    0.543676
