14

N      2.383569    0.575261   -0.032162
C      1.408539   -0.317499   -0.516363
O      1.540954   -0.900905   -1.643709
C      0.179272   -0.606586    0.289555
C     -0.946483    0.208437   -0.274389
H     -0.873190    0.380044   -1.366444
C     -2.298659    0.098106    0.362173
H     -2.470204   -0.554966    1.225871
H     -3.202318    0.230055   -0.285805
O     -1.505306    1.230802    0.468552
H     -0.040659   -1.693558    0.113823
H      0.344812   -0.448407    1.369024
H      2.285337    1.585737   -0.197960
H      3.194336    0.213480    0.487834
