12

O      0.663367    1.238352   -0.495401
C      0.000417    0.429829    0.428729
C     -0.786578   -0.593491   -0.366517
C     -1.720412    0.109647   -1.211877
N     -2.463914    0.676646   -1.912144
H     -1.332054   -1.298564    0.313904
H     -0.037890   -1.173156   -0.972663
C      0.960278   -0.254870    1.283402
C      1.746346   -0.822807    2.002147
H      2.421152   -1.325020    2.613507
H     -0.684336    1.099138    0.994877
H      1.233624    1.914296   -0.030193
