23

C      2.474761   -0.436276   -0.290893
C      0.982186   -0.534582   -0.609077
C      0.248293    0.236408    0.457626
C      0.655609    1.691519    0.495750
H     -0.194877    2.369540    0.251961
H      1.450609    1.932318   -0.246441
H      1.053389    2.000664    1.484595
C     -1.240001    0.045504    0.408807
C     -1.878519    0.465769   -0.861926
H     -2.175330    1.553134   -0.847119
H     -2.867839   -0.075752   -0.936217
H     -1.335083    0.214822   -1.777519
C     -1.500249   -1.449326    0.589514
H     -2.513992   -1.549254    0.976962
H     -0.775761   -1.830235    1.337366
H     -1.332790   -1.928368   -0.395018
H     -1.688836    0.565511    1.256954
H      0.582806   -0.204323    1.441698
H      0.816499   -0.176112   -1.622244
H      0.723718   -1.610893   -0.456539
H      3.021479   -1.315651   -0.686557
H      2.610640   -0.416536    0.808086
H      2.883288    0.452122   -0.779769
