11

N      2.181265    0.141961   -0.170750
C      0.823490    0.293080    0.178537
O      0.426679    1.105439    1.068231
N     -0.180857   -0.478724   -0.469032
C     -1.554779   -0.315790   -0.105277
N     -1.934058    0.523810    0.809915
H     -2.939831    0.625256    1.057918
H     -2.326522   -0.895759   -0.589467
H      0.127681   -1.152837   -1.204353
H      2.792636   -0.425408    0.437853
H      2.584295    0.578972   -1.013574
