12

O      1.780876    1.778193    0.358475
C      1.031525    0.760559    0.099630
C      1.102803   -0.576344    0.200113
H      1.134598   -0.971609    1.241395
H      1.848802   -1.125823   -0.399438
C     -0.300680   -0.724549   -0.396178
H     -0.533612   -1.363043   -1.180481
C     -1.383224    0.083244    0.398157
H     -2.352379   -0.106930    0.020514
H     -1.229192    0.147234    1.487165
C     -0.368342    0.768893   -0.463200
H     -0.731175    1.330175   -1.366153
