15

C      2.051334   -0.288591    0.323284
C      0.934099    0.497799   -0.311418
H      1.280065    1.480432   -0.720390
O      0.272657   -0.208897   -1.446582
C     -0.352199    0.155019   -0.274933
C     -1.196271   -0.888624    0.339514
H     -0.905456   -1.925864    0.126292
H     -1.445427   -0.666421    1.405587
O     -2.253672   -0.387177   -0.441246
C     -1.655950    0.872518   -0.262187
H     -1.887865    1.226949    0.772612
H     -1.818540    1.594160   -1.068677
H      2.365140   -1.164386   -0.277319
H      2.942855    0.324832    0.513973
H      1.669230   -0.621748    1.321492
