12

N     -2.004810    0.210663   -0.086257
C     -0.598997    0.044875   -0.044261
C      0.180805    0.913626    0.716199
H     -0.340948    1.704354    1.260127
N      1.519877    0.761592    0.760717
C      2.153828   -0.204724    0.095562
H      3.230963   -0.341024    0.120626
N      1.412917   -1.062500   -0.651795
C      0.073061   -0.948017   -0.725226
H     -0.523625   -1.624699   -1.316279
H     -2.543050    0.219588    0.830653
H     -2.560022    0.326266   -0.960067
