14

O      0.355268    0.653931    1.570788
C     -0.061507    0.186675    0.332463
C      1.066715   -0.092944   -0.654120
C      1.928723   -1.098896   -0.071631
N      2.615157   -1.904380    0.415413
H      0.667618   -0.510836   -1.600460
H      1.586972    0.873017   -0.797237
C     -1.277008   -0.642729    0.189779
H     -1.260349   -1.438043   -0.585190
H     -1.892889   -0.882698    1.095706
C     -1.330411    0.783644   -0.279522
H     -1.800975    1.556331    0.331540
H     -1.337020    0.940463   -1.374483
H      0.739705    1.576467    1.426956
