14

C      1.105538    0.906776    0.035020
H      1.340528    1.480053   -0.891613
H      1.098265    1.474238    0.972524
C      1.585209   -0.558125    0.078893
H      2.232147   -0.884192   -0.759320
H      1.927286   -0.948198    1.053647
C      0.215195   -0.246368   -0.162203
C     -0.976508   -0.517382    0.641726
H     -1.126602   -0.033523    1.598121
H     -1.248123   -1.608135    0.597132
C     -1.595154    0.147810   -0.567533
H     -1.471609    1.260980   -0.413589
H     -2.580308   -0.178084   -0.870605
O     -0.505864   -0.295849   -1.312200
