15

C      2.579404   -0.224588   -0.062806
N      1.197973    0.171857    0.148081
C      0.144435   -0.519659   -0.357273
H      0.165500   -1.415657   -0.957007
C     -1.009352    0.131407    0.033317
C     -2.418772   -0.276504   -0.296063
H     -2.467828   -1.371897   -0.474747
H     -3.054219   -0.064980    0.605149
H     -2.835432    0.321729   -1.124622
C     -0.615338    1.222921    0.780597
H     -1.310486    1.923574    1.222612
N      0.725372    1.191096    0.812501
H      2.687832   -0.800719   -1.003272
H      3.274980    0.631541   -0.077640
H      2.935932   -0.920121    0.751172
