11

O      2.413562   -1.189205   -0.005485
C      1.253975   -0.703182   -0.005435
O      0.213204   -1.516412   -0.043226
C     -1.027235   -1.086517   -0.045896
H     -1.862534   -1.774431   -0.077297
C     -1.253202    0.273512   -0.007567
H     -2.281293    0.630160   -0.009778
C     -0.173095    1.167630    0.033173
H     -0.366579    2.233837    0.063008
C      1.109197    0.664313    0.034148
H      1.973999    1.300295    0.064355
