17

C      1.761551    0.472121   -0.774870
C      1.122918    0.004191    0.516270
H      1.891241   -0.461043    1.202985
O      0.429739    0.971875    1.180046
C     -0.712948    0.245822    1.134927
H     -1.173606   -0.029775    2.112008
C     -1.653038    0.455338    0.004677
H     -2.700282    0.245835    0.304349
H     -1.588423    1.436181   -0.506232
C     -0.981624   -0.674054   -0.733675
H     -0.502079   -0.301244   -1.659861
H     -1.686034   -1.515827   -0.889013
C     -0.055642   -0.855727    0.403153
H     -0.059578   -1.828035    0.924901
H      1.727891   -0.293411   -1.572162
H      1.336557    1.449135   -1.092783
H      2.843357    0.678618   -0.554720
