10

O      2.712219    0.750600   -0.469057
C      2.049273   -0.212173   -0.048551
C      0.608209   -0.107707    0.003145
N     -0.088065    0.980575   -0.379212
C     -1.400291    0.758940   -0.207804
H     -2.187463    1.448709   -0.427885
C     -1.490440   -0.513434    0.297399
H     -2.431871   -0.980573    0.541308
O     -0.271549   -0.998671    0.409442
H      2.499978   -1.126266    0.281216
