14

C     -2.108374    0.061747    0.555258
C     -1.172146   -0.436364   -0.544862
C      0.154178    0.171153   -0.328543
O      0.298876    1.417332   -0.258551
O      1.274501   -0.627624   -0.187330
C      2.498777   -0.001757    0.024252
H      2.511080    1.086295   -0.089887
H      2.848666   -0.283178    1.033990
H      3.248088   -0.464035   -0.683659
H     -1.583212    0.004050   -1.480828
H     -1.185415   -1.521322   -0.593355
H     -2.980108   -0.575668    0.675078
H     -1.491809    0.024183    1.487823
H     -2.313101    1.145187    0.390614
