13

O     -0.432832   -0.620992   -2.126891
C     -0.803510   -0.436661   -0.810596
C      0.053511    0.582025   -0.101853
C     -0.545161    0.644147    1.345550
C     -0.933319    0.698785    2.278761
H     -1.391831    0.746102    3.346946
C      1.441509    0.158376    0.002489
C      2.629355   -0.186838    0.098033
H      3.646322   -0.489892    0.163869
H     -0.025311    1.585770   -0.486008
H     -0.737674   -1.393749   -0.217737
H     -1.872034   -0.118430   -0.845976
H     -1.029025   -1.168642   -2.646589
