12

O      2.235732   -1.013941    0.491099
C      2.210716   -0.065859   -0.328775
C      0.941584    0.556763   -0.653340
O      0.984131    1.512932   -1.491809
N     -0.259651    0.102757   -0.053571
C     -1.726913    0.343171   -0.012019
H     -2.059411    1.229622    0.566654
H     -2.189741    0.106702   -0.969145
C     -1.063485   -0.713151    0.792972
H     -0.911186   -0.545082    1.877602
H     -1.314572   -1.749116    0.531633
H      3.152796    0.235203   -0.751301
