14

C     -0.977223   -0.161620   -0.020851
H     -1.630816   -0.257956   -0.884100
H     -1.487520   -0.305669    0.939621
C     -0.423828    1.334250    0.029030
H     -1.263999    1.981703   -0.207762
H      0.007814    1.543477    0.993677
O      0.399735    1.041245   -0.956660
C      1.138423    0.191049    0.006620
H      1.657368    0.917198    0.676911
H      1.890797   -0.316702   -0.614200
O      0.707607   -0.851737    0.946665
C      0.053130   -1.396906   -0.051534
H      0.510947   -1.445677   -1.024531
H     -0.582434   -2.272654    0.167115
