14

C     -1.679938    0.562196    0.473155
C     -1.149172   -0.645990   -0.291606
N      0.146791   -0.321638   -0.869558
C      1.309038   -0.116106   -0.062236
N      1.253002   -0.456583    1.160791
H      2.029552   -0.352038    1.837570
C      2.528493    0.454791   -0.603243
N      3.500531    0.895761   -1.048746
H      0.288468   -0.222952   -1.913291
H     -1.887791   -0.904415   -1.073208
H     -1.003248   -1.524502    0.358913
H     -2.052041    0.278466    1.475227
H     -0.809626    1.260536    0.638590
H     -2.474059    1.092474   -0.082358
