10

O     -0.915055    1.416775   -0.328368
C     -0.386729    0.391346    0.429535
C     -1.011813   -0.933544    0.112103
O     -0.611014   -1.897384    0.730162
H     -1.783880   -1.057922   -0.625591
C      1.045790    0.252859    0.072268
C      2.204221    0.150212   -0.227370
H      3.235800    0.061005   -0.513374
H     -0.513376    0.567697    1.517975
H     -1.263944    1.048956   -1.167339
