8

N     -1.252487   -0.048198   -0.121309
C      0.027899   -0.103992    0.482410
O      0.114489   -0.377977    1.696704
N      1.207414    0.144515   -0.263872
H      2.117115    0.345659    0.193276
H      1.186089    0.130308   -1.309285
H     -1.828509    0.820165   -0.059572
H     -1.572010   -0.910481   -0.618352
