12

C     -1.673474   -0.353349    0.065227
C     -0.285765    0.200637    0.040143
N     -0.095800    1.464723    0.159882
H     -0.908306    2.106465    0.274708
N      0.849991   -0.670369   -0.117731
C      2.148158   -0.075365   -0.133243
O      2.284094    1.168148   -0.012370
H      3.008568   -0.685189   -0.247658
H      0.676790   -1.686325   -0.212779
H     -2.274146    0.178094    0.853203
H     -2.128409   -0.216792   -0.929257
H     -1.601701   -1.430677    0.259874
