20

C      2.075703    0.306283    0.061196
C      0.981548   -0.525635   -0.499723
C     -0.392213   -0.089737   -0.036610
C     -1.430566   -1.005994   -0.668798
H     -0.996765   -1.542538   -1.548927
H     -2.298417   -0.429742   -1.061681
H     -1.780269   -1.782541    0.050190
C     -0.531251   -0.161068    1.465243
H     -0.976546   -1.132035    1.779689
H      0.406928    0.043763    1.986499
H     -1.281962    0.611785    1.809792
C     -0.688060    1.320338   -0.463328
H     -1.762986    1.515218   -0.177633
H     -0.020452    2.039584    0.007414
H     -0.680258    1.395732   -1.587340
H      0.980613   -0.552509   -1.595149
H      1.126577   -1.572375   -0.125152
H      2.712253   -0.256658    0.792426
H      2.794126    0.594324   -0.759628
H      1.761997    1.223807    0.571519
