19

C      2.141099   -0.164809   -0.441721
C      0.964144   -0.423370    0.472777
C     -0.289367    0.261271   -0.014541
C     -0.313180    1.750201   -0.161986
H      0.648653    2.154933   -0.497700
H     -1.090415    2.042176   -0.914279
H     -0.613887    2.257220    0.788430
C     -1.114368   -0.524710   -0.965073
H     -1.634701    0.045220   -1.769397
H     -0.727123   -1.506088   -1.328795
C     -1.603935   -0.364361    0.433407
O     -1.519647   -1.461054    1.305107
H     -1.673544   -2.298121    0.780869
H     -2.470898    0.285884    0.624572
H      0.775121   -1.517342    0.464173
H      1.201347   -0.047232    1.497235
H      2.456438    0.878798   -0.473985
H      1.886252   -0.565746   -1.443207
H      2.978011   -0.802870   -0.059777
