12

C     -1.474894   -0.652099   -0.051573
N     -0.380573    0.028393    0.558664
C      0.170899    1.229527    0.023627
H      0.626656    1.960119    0.751265
H     -0.349798    1.751222   -0.823150
C      0.858375    0.003353   -0.237748
C      2.020335   -0.447994    0.531644
N      2.921391   -0.805535    1.133007
H      0.808731   -0.435850   -1.257223
H     -2.333056   -0.650351    0.634606
H     -1.154216   -1.724957   -0.198813
H     -1.713851   -0.255829   -1.064307
