13

C     -0.953024   -0.206838    0.472005
H     -0.903893   -0.110903    1.542851
H     -1.949984   -0.540665    0.134228
C     -0.590873    1.082036   -0.280539
H     -1.273704    1.866552    0.065855
H     -0.722524    0.835937   -1.348753
O      0.777894    1.411308   -0.048047
C      1.753132    0.420075    0.151412
H      2.777062    0.673879    0.338977
N      1.383151   -0.793150    0.110628
C      0.013950   -1.228762   -0.132558
H     -0.174088   -2.239123    0.238233
H     -0.137098   -1.170346   -1.244294
