13

O     -0.409838    0.433799    2.635058
C      0.010734    0.118713    1.551364
N      1.207839    0.365779    0.852312
H      2.203272    0.297912    1.122587
C      0.822717    0.694113   -0.531829
H      0.797475    1.836136   -0.521498
H      1.529880    0.355808   -1.305683
C     -0.549325    0.179130   -0.657824
H     -1.316368    0.986474   -0.875232
C     -1.119059   -1.133027   -0.759116
H     -2.116725   -1.335301   -0.973543
H     -0.433809   -2.057253   -1.095086
N     -0.626792   -0.742284    0.558491
