12

C     -2.186979   -0.308044   -0.265761
O     -1.167714   -0.014356    0.654799
C      0.171801    0.044689    0.348305
N      0.732638   -0.158233   -0.835835
O      2.021238   -0.015038   -0.729963
C      2.339702    0.282787    0.513388
H      3.324051    0.459268    0.905453
C      1.169615    0.329953    1.239079
H      1.001633    0.538601    2.279588
H     -3.011943   -0.805483    0.289693
H     -2.637889    0.615263   -0.711964
H     -1.756153   -0.969407   -1.039012
