16

C      1.554592   -0.622050   -0.441754
C      0.500672   -0.283897    0.533913
H      0.951945   -0.431334    1.551874
C     -0.807999   -0.981217    0.297423
H     -1.218956   -1.445921    1.188773
H     -0.644792   -1.836351   -0.444804
C     -1.759913    0.013973   -0.265908
H     -2.780413   -0.199684   -0.717587
C     -1.184950    1.182029   -0.188595
H     -1.645716    2.096320   -0.519639
C      0.197232    1.220024    0.341596
H      0.837212    1.645245   -0.496336
H      0.329898    1.685334    1.330589
H      2.169617    0.285684   -0.720034
H      1.174028   -0.999010   -1.396282
H      2.327544   -1.329146   -0.053228
