11

O     -1.703056    0.300969   -0.681798
C     -0.831500   -0.844353   -0.431317
C      0.078403   -0.516340    0.874845
C      0.603083    0.577687    0.717265
C      1.128183    1.627308    0.557562
H      1.811749    2.955058    0.374430
H      1.219640   -1.020061   -0.055133
H      0.430409   -1.443950    1.375253
H     -0.245796   -0.947181   -1.352636
H     -1.486252   -1.681916   -0.290956
H     -1.004864    0.992779   -1.087514
