12

C     -1.727213   -0.209054    0.041786
C     -0.257241    0.070812    0.026571
C      0.377729    1.266451    0.198684
H     -0.058660    2.229703    0.377128
O      1.674857    1.070212    0.111624
C      1.941935   -0.176841   -0.106898
H      2.915897   -0.601929   -0.218440
C      0.759761   -0.867788   -0.172145
H      0.595749   -1.916276   -0.339551
H     -2.258413    0.548911    0.654329
H     -1.918859   -1.236008    0.462803
H     -2.045539   -0.178193   -1.035891
