18

C     -2.871467    0.246787   -0.091196
C     -1.522675   -0.372268   -0.223871
C     -0.401327    0.592469    0.152091
C      0.889344   -0.135990   -0.019609
O      2.001116    0.633155    0.291570
C      3.163949   -0.101096    0.111242
H      3.200660   -1.009445    0.750558
H      3.183219   -0.491933   -0.945167
H      4.013293    0.556824    0.312503
H      0.899888   -1.037907    0.613693
H      1.005857   -0.450881   -1.080517
H     -0.519918    0.813077    1.253243
H     -0.496329    1.502931   -0.440008
H     -1.343100   -0.631248   -1.293691
H     -1.429731   -1.248646    0.439848
H     -2.862675    1.349523    0.006466
H     -3.427613   -0.235196    0.757926
H     -3.482491    0.019844   -0.994969
