14

O      2.385900    0.120125    0.329780
C      1.311374   -0.765418    0.350840
C      0.092095   -0.053653    0.901413
H      0.273409    0.426903    1.865568
C     -0.582791    0.797587   -0.142248
H     -0.089821    0.779137   -1.134789
H     -0.810018    1.828545    0.170682
C     -1.730490   -0.146353    0.011499
H     -2.642816    0.369681    0.356701
H     -1.958154   -0.782279   -0.864525
O     -1.035907   -0.866013    0.959496
H      1.571053   -1.639799    0.971164
H      1.121281   -1.083811   -0.705770
H      2.094885    1.015349    0.631501
