18

C     -2.661401    0.499230   -0.395720
C     -1.567832   -0.549644   -0.400100
C     -0.275664    0.003030    0.190314
O      0.651599   -1.006662    0.146579
C      1.886279   -0.683265    0.642622
C      2.442371    0.468545   -0.166710
H      2.226997    0.221434   -1.241692
H      1.928816    1.382791    0.136597
H      3.536220    0.487291    0.018652
H      1.899530   -0.488416    1.729256
H      2.563792   -1.549086    0.457868
H     -0.435878    0.332457    1.235490
H      0.015203    0.907970   -0.388607
H     -1.421081   -0.888277   -1.444443
H     -1.886581   -1.401497    0.194388
H     -2.284239    1.520456   -0.508747
H     -3.204465    0.447033    0.579161
H     -3.413668    0.296608   -1.184796
