13

O      3.177411   -0.567697   -0.137320
C      2.072628   -0.383724    0.757830
C      1.076314   -0.082947    0.347853
C     -0.281884    0.335193   -0.239659
C     -1.936188    0.855968   -0.945979
C     -2.569078   -0.032695   -0.014256
O     -3.302289    0.378023    0.823818
H     -2.352590   -1.087386   -0.108907
H     -1.610559    0.743963   -1.896794
H     -1.746640    1.888881   -0.483663
H      1.876476   -1.813180    0.638417
H      2.271191   -0.667619    1.851110
H      3.325208    0.433221   -0.307964
