14

C     -1.382963    1.074023   -0.793084
N     -0.528229    0.173943   -0.068985
C     -1.041046   -0.708728    0.915125
O     -0.311324   -1.488626    1.544671
H     -2.100346   -0.752065    1.173266
C      0.851813    0.179360   -0.354313
O      1.264657    0.985597   -1.242055
C      1.817110   -0.720918    0.347671
H      1.804647   -0.543890    1.437251
H      2.843481   -0.502533   -0.071527
H      1.519907   -1.767472    0.147040
H     -1.197817    2.105543   -0.392719
H     -1.097431    1.140713   -1.876682
H     -2.442458    0.825052   -0.765659
