16

C     -1.934119    0.702797    0.293343
N     -1.354175   -0.582626    0.069972
C     -0.937649   -0.994716   -1.232168
H     -1.102098   -2.008526   -1.596236
H     -1.042466   -0.212131   -2.012708
C      0.062451   -0.746114   -0.094973
C      0.954975    0.377127   -0.336080
O      0.531859    1.444425   -0.716065
C      2.407494    0.214684   -0.113481
H      2.531834   -0.504219    0.731340
H      2.904465    1.151541    0.206720
H      2.910853   -0.249551   -0.989529
H      0.525130   -1.687499    0.250775
H     -1.615278    1.169612    1.258986
H     -1.800641    1.373345   -0.570568
H     -3.042635    0.551852    0.393547
