13

C     -0.606504   -1.286102    0.041203
C      0.160531    0.023760    0.071077
C      1.638777   -0.067988   -0.102570
O      2.400108    0.794547    0.273479
H      2.064661   -0.933891   -0.613560
C     -0.508321    1.220638   -0.446109
H      0.084160    1.984750   -0.969729
H     -1.528317    1.091617   -0.858423
N     -0.267988    1.069759    0.960956
H     -1.067546    0.902160    1.599960
H     -0.924392   -1.468816   -1.001535
H      0.071700   -2.105844    0.373869
H     -1.516869   -1.224588    0.671383
