14

O      0.944564    1.291564   -1.249885
C      1.643302    0.424046   -0.757062
C      1.088272   -0.764138   -0.060595
H      1.780445   -1.550507    0.313869
C      0.027497   -0.435724    0.952848
H      0.079584   -0.914813    1.905206
C     -0.938795    0.672853    0.657311
H     -1.713160    0.787004    1.427947
H     -0.461008    1.648321    0.463343
C     -1.286718   -0.161119   -0.571514
H     -1.206496    0.299264   -1.534548
H     -2.299505   -0.617947   -0.445489
N     -0.316211   -1.183173   -0.293222
H      2.658229    0.504370   -0.808210
