17

C      1.992331   -0.102793   -0.088425
C      0.777892   -0.228050    0.757859
O      0.955017   -0.558166    1.916260
C     -0.586280    0.015842    0.293424
C     -0.804733    1.391347   -0.273775
H     -0.557591    1.448261   -1.360723
H     -1.915314    1.577970   -0.222776
H     -0.322677    2.195101    0.291151
C     -0.897350   -0.988031   -0.803174
H     -0.108284   -1.056482   -1.558236
H     -1.905825   -0.809341   -1.234707
H     -0.965181   -1.996924   -0.309859
O     -1.503479   -0.182556    1.314747
H     -1.016943   -0.419502    2.145723
H      2.785551    0.357641    0.535618
H      2.281262   -1.126598   -0.395331
H      1.791603    0.482280   -1.007776
