13

O      1.097025    2.129780   -0.006741
C      0.762005    0.975463   -0.113778
C      1.524474   -0.229499    0.279612
H      2.007187   -0.076277    1.270995
H      2.293637   -0.397899   -0.502324
O      0.629019   -1.267974    0.421086
C     -0.544942   -0.936023   -0.207166
H     -0.986215   -1.747297   -0.810618
C     -1.508669    0.039690    0.401625
H     -1.344921    0.396568    1.432564
H     -2.576002   -0.048354    0.108899
C     -0.537274    0.472248   -0.614880
H     -0.815324    0.689575   -1.659275
