8

N     -0.753837    0.679958    0.080070
H     -1.562875    1.334050    0.150414
C     -0.780380   -0.632037   -0.192160
H     -1.636883   -1.245443   -0.386544
N      0.488050   -1.065699   -0.180610
C      1.319118   -0.040666    0.096492
H      2.399355   -0.067881    0.176758
N      0.527453    1.037717    0.255581
