14

O      2.124282    0.269027   -0.709628
C      0.965808    0.040217    0.079902
H      1.234793   -0.012555    1.207915
C     -0.105981    1.053251   -0.033826
H     -0.072624    1.641754   -1.037193
H      0.073344    1.904369    0.740561
C     -1.355503    0.403223    0.164693
H     -1.624781    0.453832    1.268414
H     -2.128567    0.738260   -0.470752
C     -1.048653   -1.064948   -0.164151
H     -1.838354   -1.791416   -0.372233
C      0.266160   -1.292711   -0.201132
H      0.667804   -2.222846   -0.406059
H      2.842272   -0.119456   -0.066512
