12

N      1.141688   -1.076263    0.006838
C      0.213136   -0.035064    0.201960
C     -1.199332   -0.492843    0.528655
H     -1.596677   -0.080046    1.457571
H     -1.442252   -1.539689    0.294536
C     -0.900891    0.376639   -0.663226
H     -1.014703   -0.015374   -1.683143
O     -0.592880    1.732871   -0.493339
C      0.562537    1.410546    0.155991
O      1.529393    2.079099    0.541471
H      1.314161   -1.392368   -0.953516
H      1.985822   -0.967509    0.606201
