12

O     -1.059674    1.394348    0.407416
C     -1.133799    0.004842    0.515901
H     -2.018680   -0.424218    1.030345
C     -0.575262   -0.779402   -0.642628
H     -0.120891   -0.215068   -1.481777
H     -1.021236   -1.772983   -0.853518
C      0.203147   -0.736475    0.650814
C      1.383557    0.122596    0.690522
C      2.356850    0.847463    0.712042
H      3.217617    1.482456    0.739489
H      0.258247   -1.613765    1.302150
H     -1.489876    1.690204   -0.422985
