21

C      1.116626   -0.587266    1.194840
C      0.978128    0.197933   -0.059040
C      2.277151    0.001080   -0.855416
H      2.421664   -1.102457   -0.911338
H      3.133079    0.439534   -0.330538
H      2.137658    0.355020   -1.887268
C     -0.116307   -0.210743   -0.974031
C     -1.505985   -0.159283   -0.480472
H     -2.195931   -0.821932   -1.092895
C     -2.159750    1.080748   -0.014952
H     -1.597942    2.026310    0.106602
H     -3.237961    1.250115   -0.210945
C     -1.901606   -0.067971    0.940845
H     -1.250610    0.200291    1.769067
H     -2.793072   -0.661605    1.307495
H      0.168908   -1.204391   -1.410687
H     -0.054408    0.484380   -1.865466
H      0.970817    1.287165    0.175842
H      2.116018   -1.090397    1.239645
H      1.098802    0.023032    2.126109
H      0.394719   -1.439564    1.232601
