14

C     -1.697530   -0.503155    0.097868
C     -0.473182    0.302050    0.017053
C     -0.426662    1.677800   -0.005072
H     -1.236163    2.402525    0.030549
O      0.837038    2.006642   -0.081365
C      1.612389    0.973475   -0.110677
H      2.703913    0.938950   -0.172057
C      0.828386   -0.151740   -0.050295
N      1.205702   -1.524517   -0.052248
H      1.247278   -2.047979    0.846250
H      1.430919   -1.969766   -0.956883
H     -1.560998   -1.517033   -0.349584
H     -1.944071   -0.649360    1.189169
H     -2.527019    0.062109   -0.402708
