10

C      0.098212    0.725615   -0.181385
H      0.228666    1.500342    0.607336
H      0.105686    1.133904   -1.218318
C      0.920671   -0.459663    0.094615
H      1.669443   -0.357969    0.928226
H      1.406196   -0.808828   -0.858829
O     -0.159040   -1.223175    0.348234
C     -1.009433   -0.205707    0.117993
H     -1.606197   -0.427507   -0.809558
H     -1.654204    0.122989    0.971686
