12

O      2.385747   -0.968830   -0.003544
C      1.457289   -0.314511    0.407613
C      0.231746   -0.213940   -0.419040
H      0.379253   -0.510987   -1.488312
C     -1.016342   -0.712918    0.187166
H     -0.859761   -1.241268    1.159487
H     -1.681636   -1.313033   -0.498908
O     -1.534868    0.544033    0.296191
C     -0.432740    1.110029   -0.251475
H     -0.582973    1.659135   -1.213931
H      0.118528    1.783733    0.467921
H      1.535757    0.178556    1.356833
