11

N      2.160591    0.004106   -0.172086
C      0.861792   -0.044339   -0.056876
C     -0.049144    1.107377   -0.004274
H      0.029466    1.649439   -0.988247
H      0.219619    1.812021    0.832161
O     -1.310866    0.617261    0.118196
C     -1.252576   -0.743297    0.145448
H     -1.621773   -1.175364    1.104371
H     -1.828800   -1.141563   -0.722825
O      0.082904   -1.177973    0.038495
H      2.708786   -0.907667   -0.198534
