14

C     -1.516773    0.110692    0.836538
C     -0.632680   -0.487923   -0.210648
C      0.799884   -0.108797    0.093595
N      1.706927   -0.676807   -0.911926
H      1.169589   -1.418473   -1.418887
H      2.017844    0.086761   -1.579348
C      0.993615    1.321055    0.140873
N      1.160306    2.484557    0.197760
H      1.095596   -0.534213    1.074908
H     -0.764561   -1.565286   -0.349734
H     -0.889332   -0.018230   -1.204141
H     -2.528212    0.300629    0.442292
H     -1.081886    1.069910    1.157110
H     -1.530315   -0.563876    1.731609
