18

C     -2.242925   -0.195581    0.229339
C     -0.892273   -0.898179    0.290804
C      0.006157   -0.367829   -0.789889
H     -0.256320   -0.731695   -1.813242
C      0.275228    1.130026   -0.687674
H      0.201279    1.707580   -1.615797
H     -0.034434    1.673030    0.212648
C      1.372791    0.086120   -0.547778
C      2.044874    0.054864    0.779551
H      2.094586    1.118783    1.151582
H      3.130637   -0.242588    0.688187
H      1.536702   -0.563635    1.540269
H      2.078176    0.055619   -1.415598
H     -0.476747   -0.791738    1.303535
H     -1.118223   -1.984827    0.099290
H     -2.380471    0.280836   -0.779147
H     -3.086592   -0.909865    0.331439
H     -2.252444    0.579078    1.022480
