15

C      1.910114   -0.374698   -0.224911
C      0.505290   -0.415632    0.318824
H      0.330065   -1.318498    0.973882
C     -0.226410    0.778934    0.605954
C      0.194956    2.089582    0.143183
N      0.524021    3.140636   -0.207702
H     -0.937973    0.765287    1.479484
N     -0.599408   -0.105693   -0.533916
C     -1.865953   -0.753146   -0.403957
H     -1.877784   -1.311471    0.559776
H     -2.642509    0.060889   -0.329286
H     -2.024385   -1.391348   -1.284456
H      2.603488   -0.803937    0.524006
H      1.962691   -1.029679   -1.135713
H      2.143799    0.668773   -0.485168
