15

C     -1.392063    1.333196   -0.181652
N     -0.417337    0.260175    0.002760
C     -0.898714   -1.027888    0.449498
H     -1.944847   -0.957883    0.804937
H     -0.901976   -1.767436   -0.384961
H     -0.315141   -1.414166    1.329157
C      0.952278    0.489303   -0.251886
O      1.390641    1.595296   -0.638806
C      1.912358   -0.618938   -0.055107
H      2.658749   -0.260758    0.711252
H      2.525446   -0.795418   -0.978643
H      1.414289   -1.535512    0.254485
H     -0.939320    2.244309   -0.573525
H     -2.183899    0.907875   -0.843274
H     -1.860465    1.547844    0.808862
