9

N     -1.865447    0.059325   -0.381710
C     -0.829436    1.168928   -0.568918
O     -0.986401    2.255468   -0.738369
C      0.425159    0.339689   -0.437652
C      1.566801   -0.432776   -0.329741
C      2.322292   -0.930727   -0.253396
N      3.677701   -1.801110   -0.102229
H     -2.837080    0.216069   -0.540596
H     -1.473588   -0.874866   -0.013047
