15

C      2.365354   -0.474092    0.198182
C      0.941079   -0.046230    0.088105
C      0.458959    1.250509    0.184003
H      1.033661    2.141921    0.351386
N     -0.874316    1.228616    0.032173
H     -1.520931    2.069591    0.056991
C     -1.322647   -0.023424   -0.162747
N     -2.652561   -0.476676   -0.364052
H     -3.412658    0.231525   -0.366303
H     -2.916737   -1.468884   -0.509279
C     -0.174773   -0.823508   -0.126692
H     -0.174670   -1.888826   -0.249784
H      2.426368   -1.536526    0.568580
H      2.941256   -0.302039   -0.710732
H      2.882616    0.118043    1.010169
