12

N      0.143536    2.723964    1.376468
C     -0.053677    1.722096    0.579944
C     -0.281973    0.624853   -0.318798
H     -0.488786    0.859109   -1.378818
C      1.120783   -0.053898   -0.359945
H      1.684970    0.190307   -1.234290
H      1.623767    0.233458    0.580284
N      0.796186   -1.464322   -0.268704
C     -0.375000   -1.744978    0.009317
H     -1.141421   -2.452032    0.177248
N     -1.066723   -0.349508    0.124645
H     -1.961662   -0.289049    0.712649
