14

N      2.379431   -1.054893   -0.051163
C      1.243881   -0.357837    0.098252
O      1.220400    0.983708   -0.032815
C     -0.091375    1.429367   -0.122404
H     -0.408752    1.508849   -1.258561
H     -0.299941    2.370756    0.440284
C     -0.957200    0.324776    0.435173
H     -1.424302    0.448421    1.433843
C     -1.268076   -0.816001   -0.461878
H     -1.121964   -0.553831   -1.553537
H     -2.177451   -1.375412   -0.250114
C     -0.066978   -0.928886    0.356601
H     -0.222197   -1.621484    1.244231
H      3.194523   -0.357532   -0.277914
