9

C     -1.433501    0.393584   -0.081730
O     -0.062125    0.629611    0.088040
C      0.871567   -0.400659    0.047467
O      0.414042   -1.555061   -0.150198
C      2.279959   -0.145883    0.223426
N      3.421138    0.059146    0.380537
H     -1.657040   -0.593039   -0.553209
H     -1.809436    1.170294   -0.793804
H     -2.024603    0.442007    0.839472
