18

C     -2.182626   -0.220996   -0.447873
C     -1.240937    0.903475   -0.159241
C     -0.138151    0.537405    0.791985
C      0.743179   -0.562931    0.343886
H      0.468992   -1.573390    0.750126
C      1.544843   -0.513576   -0.894436
H      1.479680    0.311549   -1.609531
H      1.728471   -1.502630   -1.392733
C      2.237566   -0.315551    0.414689
H      2.912425   -1.109322    0.759885
H      2.600787    0.704280    0.682305
H      0.466130    1.467525    0.953429
H     -0.568354    0.292048    1.783150
H     -0.852862    1.393712   -1.076437
H     -1.844863    1.704599    0.357885
H     -1.897587   -1.162068    0.063559
H     -3.231936   -0.003653   -0.152142
H     -2.224757   -0.350477   -1.568391
