13

C     -1.961650    0.875945    0.164568
C     -1.014169   -0.271364   -0.192626
O      0.279487    0.161050    0.117194
C      1.408670   -0.650371   -0.086689
O      1.170924   -1.791292   -0.567093
N      2.710798   -0.196525    0.232562
H      3.374194   -0.696426    0.852359
H      3.027262    0.702079   -0.182753
H     -1.169416   -0.505836   -1.256399
H     -1.300142   -1.186764    0.378694
H     -1.489297    1.537870    0.942027
H     -2.900335    0.485069    0.590037
H     -2.136325    1.536566   -0.707395
