13

C      1.386805   -0.266512    0.477998
H      2.441734   -0.244168    0.156300
H      1.225381   -0.599924    1.530582
C      0.498764    0.778217   -0.068885
H      0.968241    1.609047   -0.586422
C     -0.975328    0.770502    0.192966
H     -1.488225    1.340472   -0.640186
H     -1.331103    1.110564    1.160814
C     -1.025826   -0.694585   -0.097155
H     -1.050267   -1.294892    0.873281
H     -1.722407   -1.041953   -0.853356
C      0.399428   -0.596617   -0.551971
H      0.672804   -0.870150   -1.593965
