15

C      1.699218   -0.356791   -0.664964
C      0.460983   -0.498772    0.189053
C      0.160583    0.543555    1.229078
H     -0.280587    0.262535    2.202268
H      0.922382    1.392970    1.250130
C     -0.688531    0.417787    0.066747
O     -0.802445    1.432656   -0.876278
H     -1.499718    2.087258   -0.545756
C     -1.511908   -0.825204   -0.023927
H     -2.239910   -0.914225    0.732517
H     -1.892858   -0.940292   -1.093306
O     -0.354836   -1.588389    0.085541
H      1.701864    0.578427   -1.206416
H      1.736463   -1.206941   -1.327185
H      2.589302   -0.384575   -0.017501
