16

C      1.276885   -0.199016   -1.340008
C      0.444184   -0.004830   -0.158489
C      0.281920   -1.073073    0.898622
H      0.362230   -0.814271    1.918921
H      0.827677   -2.022762    0.648250
C     -0.833901   -0.722710   -0.026397
H     -1.252524   -1.355046   -0.745436
C     -1.500633    0.635845    0.293454
H     -2.502263    0.823297   -0.003945
N     -0.916128    1.290379    1.461509
H     -0.486264    0.823257    2.227617
C     -0.262794    1.305830    0.171753
H      0.054743    2.160668   -0.366944
H      1.338167    0.733809   -1.935395
H      0.861533   -1.005723   -2.012171
H      2.307170   -0.575653   -1.031339
