11

N      2.026704   -0.309710    0.169674
C      0.616860   -0.173696    0.086500
N     -0.250437   -1.129836    0.461343
N     -1.485185   -0.712983    0.266520
H     -2.317389   -1.294978    0.488760
C     -1.484642    0.534791   -0.244679
H     -2.333495    1.132309   -0.506006
C     -0.152759    0.878967   -0.359756
H      0.243753    1.824372   -0.739365
H      2.620420    0.242236    0.836116
H      2.516170   -0.991473   -0.459109
