9

N     -1.076333   -0.627646   -0.314190
H     -2.046910   -0.963099   -0.242033
C     -0.691166    0.654856   -0.251839
H     -1.375143    1.478415   -0.117081
C      0.675153    0.733959   -0.384524
H      1.312590    1.590983   -0.381505
C      1.096167   -0.567257   -0.530339
H      2.119157   -0.932910   -0.663326
N     -0.013515   -1.367300   -0.480821
