13

O      2.183489    0.350094   -0.608047
C      1.232733   -0.260972    0.236197
C     -0.080883   -0.206526   -0.495937
H     -0.026707   -0.249145   -1.609088
C     -1.293284   -0.774818    0.135035
H     -1.199792   -1.310588    1.118722
H     -2.112851   -1.118846   -0.492711
C     -1.077968    0.725976    0.116875
H     -0.925726    1.162349    1.103970
H     -1.673313    1.331029   -0.589741
H      1.212044    0.299517    1.196192
H      1.597315   -1.291093    0.396563
H      2.164942    1.343022   -0.508030
