13

C     -1.931149   -0.558636    0.172550
C     -0.596464    0.025093   -0.035488
C      0.585401   -0.437993    0.513648
H      0.699321   -1.289224    1.170182
C      1.624633    0.352761    0.100007
O      2.972365    0.231220    0.421989
H      3.595398   -0.335584   -0.134752
N      1.064325    1.295132   -0.701278
N     -0.252537    1.087795   -0.771835
H     -0.867915    1.697968   -1.333952
H     -1.923706   -1.614494    0.440622
H     -2.483260    0.004924    0.950179
H     -2.486412   -0.458962   -0.791874
