17

C     -1.651980   -0.442357    0.355232
C     -0.438753    0.002493   -0.431032
O     -0.912461    0.336221   -1.729312
H     -1.295374    1.194435   -1.698616
C      0.242229    1.157284    0.227809
H     -0.349232    1.578681    1.070409
H      0.516449    1.897760   -0.552106
C      1.501770    0.619825    0.829236
H      2.100901    1.276635    1.489693
C      1.693204   -0.637892    0.425298
H      2.513249   -1.272484    0.701686
C      0.615416   -1.043714   -0.504619
H      1.035290   -0.984390   -1.546858
H      0.276385   -2.083126   -0.263705
H     -2.138538   -1.275596   -0.206979
H     -2.338144    0.432542    0.439979
H     -1.370412   -0.756316    1.393884
