12

C     -2.104171    0.702176    0.636758
C     -0.664048    1.186709    0.971789
C      0.318928    0.510476    0.324553
C      1.277264   -0.145944   -0.282133
C      2.440109   -0.976235   -1.033938
C      3.317840   -1.584407   -1.610757
H      4.014449   -2.074767   -2.084053
H     -0.519630    1.258401    2.084383
H     -0.700222   -0.326958    1.665663
H     -2.067926   -0.346747    0.201683
H     -2.757064    1.290085    0.077220
H     -2.555529    0.507212    1.696603
