12

C      1.950533   -0.163335   -0.166675
C      0.553596   -0.317593    0.314152
O      0.317249   -1.047547    1.309109
C     -0.551286    0.350025   -0.330504
O     -0.332350    1.077904   -1.319252
C     -1.930504    0.189344    0.155036
H     -2.651060   -0.045831   -0.672071
H     -2.031556   -0.662469    0.877055
H     -2.329590    1.099916    0.640841
H      2.151490    0.788647   -0.652380
H      2.175312   -1.007764   -0.840981
H      2.678167   -0.261296    0.685670
