15

C     -1.121591   -1.109933    0.115755
C     -0.085881   -0.037955    0.334119
C     -0.612862    1.312783   -0.014449
H     -1.672353    1.360702    0.359496
H     -0.670654    1.498158   -1.099831
H     -0.041191    2.128448    0.501411
C      1.174343   -0.405170   -0.418847
O      2.161630    0.555470   -0.248039
H      2.210417    0.843935    0.693308
H      1.566574   -1.335178    0.090712
H      1.006992   -0.580893   -1.488034
H      0.180850   -0.046093    1.418019
H     -0.605846   -2.087897    0.208081
H     -1.574739   -1.015253   -0.895903
H     -1.915689   -1.081125    0.897300
