10

O      0.831456   -0.730415    1.740484
C      0.905111   -0.439647    0.521819
C     -0.258864   -0.771693   -0.346359
C     -1.231406    0.329187   -0.179955
C     -2.023692    1.221059   -0.025282
H     -2.738478    2.001785    0.121666
H     -0.746370   -1.703222   -0.060376
H      0.124543   -0.795526   -1.385421
C      2.086185    0.192456    0.007449
N      3.051515    0.696017   -0.394027
