15
opt_min/./Reactant_11080_0_opt.xyz
  C  2.34661900 -0.49524700  0.01916900
  C  0.90575577 -0.12922100 -0.04455260
  C -0.21494851 -0.87365464  0.22451890
  H -0.23555618 -1.90370249  0.52418568
  C -1.34366979 -0.04612119  0.02218408
  N -2.68197673 -0.44842186  0.10778049
  H -2.80028614 -1.23525976  0.73255404
  H -3.30973503  0.30653780  0.34891934
  C -0.87208629  1.18426315 -0.35977454
  H -1.39651331  2.08529672 -0.60664115
  N  0.49454795  1.11776144 -0.39507199
  H  1.10124786  1.87880817 -0.64734007
  H  2.85180263 -0.21140475 -0.90568459
  H  2.84576667  0.01215752  0.84563955
  H  2.45292633 -1.56723798  0.15221490
