11
opt_min/./Product_3421_0_opt.xyz
  C -1.63068200 -0.26263000  0.20536700
  C -0.26810056  0.29679614 -0.11088043
  O  0.70430431 -0.60111577  0.26607702
  C  2.01605376 -0.40901859  0.05698600
  O  2.56939466  0.49900232 -0.46551147
  H  2.53201374 -1.29419797  0.47820032
  N  0.03099622  1.38765592 -0.64263135
  H -0.74997999  1.98493970 -0.88737518
  H -1.56687325 -0.97151964  1.02547413
  H -2.01530370 -0.78162041 -0.67124914
  H -2.31555063  0.54156431  0.46358275
