13
opt_min/./Product_8464_0_opt.xyz
  N  1.90730500  0.11828700  0.38000700
  C  0.54663377  0.20940767  0.05191162
  C -0.41013880 -0.73123017 -0.00644861
  O -0.31653334 -2.08167997  0.17635556
  H  0.53409257 -2.29532370  0.57378497
  C -1.70526195 -0.05286809 -0.32886865
  H -2.45933195 -0.21631698  0.44138205
  H -2.14001419 -0.39383802 -1.27040308
  C -1.36715755  1.41532562 -0.43277579
  N -0.06915795  1.45294289 -0.19653475
  H  0.46405938  2.31030219 -0.18153197
  H  2.36374887 -0.68673849 -0.03010601
  H  2.41844903  0.96029219  0.15201431
