14
opt_min/./Product_5021_0_opt.xyz
  C -2.25272100  0.49630900  0.18061100
  O -0.87869088  0.64716813 -0.05899489
  C -0.15337974 -0.52943246  0.19061061
  C  1.30796597 -0.32906083 -0.10051192
  C  1.84444963  0.81344816 -0.49746847
  H  2.90054369  0.90597161 -0.68865434
  H  1.22592444  1.67663077 -0.63619358
  O  2.00910795 -1.48334143  0.10403475
  H  2.94188305 -1.32657665 -0.09133949
  H -0.53166412 -1.35964394 -0.42884662
  H -0.26208819 -0.83857500  1.24478225
  H -2.69088358 -0.27255887 -0.46882165
  H -2.45272919  0.22408238  1.22510353
  H -2.71367565  1.45783103 -0.03483511
