10
opt_min/./Product_145_0_opt.xyz
  O  1.87632500 -0.44698200 -0.45845900
  C  0.65901646 -0.26380046 -0.20642302
  C -0.18479780  0.84808985  0.40467743
  H  0.01427657  1.05736794  1.45174728
  H -0.19310098  1.77080746 -0.16853554
  C -1.32367003 -0.11932419  0.12519099
  H -2.37705497 -0.04996134  0.30055620
  C -0.52187684 -1.06766015 -0.40750607
  H -0.70024287 -2.04084836 -0.82026182
  O  2.75878116  0.48111985 -0.16350640
