18
opt_min/./Product_7523_0_opt.xyz
  C -1.63549300  0.76562800  0.20879000
  C -0.82850032  0.20298698 -0.97028498
  C  0.33968160 -0.69363628 -0.51762058
  C -0.13505150 -1.94405804  0.24518529
  H -1.21441306 -2.04584019  0.17200577
  H  0.14014312 -1.87249395  1.29448900
  H  0.32318735 -2.84115202 -0.16458606
  C  1.26064282  0.09979811  0.29996079
  N  1.81845930  0.22425299  1.41861589
  C  2.10409073  1.27684292  0.37910599
  H  1.66930487  2.25613290  0.53883632
  H  3.09361993  1.27750732 -0.06041164
  H  0.89096763 -0.99236797 -1.41954375
  H -0.42473247  1.02149970 -1.56993875
  H -1.47121322 -0.39226326 -1.62113573
  H -1.15536178  0.52200946  1.15428840
  H -2.64282180  0.35809694  0.22679292
  H -1.71031568  1.84888536  0.14680979
