11
opt_min/./Product_1429_0_opt.xyz
  C  2.47348700  0.10950700  0.01734000
  C  1.17333842  0.06809213  0.02868008
  C -0.10055737  0.00852874 -0.00399784
  C -1.32864131 -0.68909486 -0.42949617
  H -1.56521613 -1.63144805  0.04498566
  H -1.60135240 -0.64418348 -1.47460979
  C -1.40741348  0.56773632  0.39853442
  H -1.73469572  1.48641892 -0.06752603
  H -1.69628877  0.47978668  1.43672522
  H  3.04834352 -0.36019658  0.79806008
  H  3.00285348  0.64639577 -0.75171276
