11
opt_min/./Product_11735_0_opt.xyz
  C  1.65405600 -0.17299200 -0.12358600
  C  0.25512032  0.24659575  0.04053555
  C -0.70596964  1.10753397 -0.19481461
  H -1.01320997  2.01456125 -0.65733801
  C -1.08524639 -0.09704178  0.60018959
  O -1.88119862 -1.12891573  0.07411064
  H -1.76919048 -1.15386524 -0.88324301
  H -1.30816234 -0.03746321  1.65916314
  H  1.81709654 -0.54903782 -1.13455908
  H  2.31509792  0.67987071  0.02678285
  H  1.91466652 -0.96038201  0.58069499
