14
opt_min/./Product_4428_0_opt.xyz
  C  0.86512000  1.14537500 -0.01273100
  C  0.04465934 -0.13223638  0.22563478
  O -0.17605393 -0.31073970  1.61334476
  H -1.08660688 -0.07672180  1.82408609
  C -1.26832152 -0.08228859 -0.56158325
  H -1.90269709 -0.92651256 -0.28897964
  H -1.80018450  0.84800955 -0.35427496
  H -1.05998460 -0.13231834 -1.62917792
  C  0.87017415 -1.31803710 -0.26227827
  O  1.25074698 -1.47181459 -1.38630813
  H  1.07664248 -2.03856903  0.54935012
  H  1.81553804  1.07302089  0.51386547
  H  1.05308237  1.27095214 -1.07582491
  H  0.32014578  2.00716724  0.37020825
