14
opt_min/./Reactant_3755_0_opt.xyz
  C  1.74358400  0.23757300  0.29765500
  C  0.55463256 -0.62377615  0.70021286
  H  0.87416306 -1.62781129  1.00066771
  O -0.25664204 -0.06628313  1.75799119
  C -1.41665954 -0.13852520  0.95045048
  H -2.36099547 -0.41929024  1.38402154
  C -1.26902093  0.69518614 -0.28481917
  H -0.62933719  1.56334946 -0.27474951
  H -2.15805524  0.79006159 -0.89146779
  C -0.65821363 -0.67884055 -0.22760990
  H -0.88886027 -1.47452015 -0.91198071
  H  1.60227558  1.24847698  0.67117355
  H  1.82992541  0.27000961 -0.78768191
  H  2.66761871 -0.15314612  0.71557569
