12
opt_min/./Product_8274_0_opt.xyz
  C -1.77848200 -0.20739400  0.13265300
  C -0.29465739 -0.43703654  0.18825396
  C  0.55349549  0.77951375 -0.16450236
  N  1.93090750  0.45851499 -0.19936813
  C  2.58657996 -0.51527131  0.03806883
  O  3.44847556 -1.27031128  0.19282457
  H  0.25483291  1.16695297 -1.14450878
  H  0.38620689  1.56389860  0.58166660
  O  0.21476827 -1.49015956  0.46227695
  H -2.12289789 -0.39834541 -0.88196922
  H -2.04261890  0.81292407  0.39570644
  H -2.28102002 -0.90365712  0.79875281
