16
opt_min/./Product_2560_0_opt.xyz
  C -1.29591600  0.48602300 -1.18494900
  C -0.21061007 -0.08527466 -0.27457646
  C -0.85400873 -0.73352718  0.97549449
  H -1.65695092 -1.39351145  0.65764788
  H -1.26381334  0.03231164  1.63133692
  H -0.10797270 -1.30837837  1.52026840
  C  0.61638396  0.96386499  0.34962749
  C  1.96011296  0.54842939  0.76989156
  O  2.45010721 -0.75083700  0.44439597
  H  2.94842951 -0.71266733 -0.37462253
  H  1.89437857  0.59543181  1.87262586
  H  2.68287639  1.32607734  0.49554666
  H  0.36324081 -0.86117006 -0.79978051
  H -1.82708298  1.28325431 -0.67227235
  H -0.85761864  0.89572787 -2.09270121
  H -2.00048042 -0.29651678 -1.46170212
