15
opt_min/./Product_8393_0_opt.xyz
  C -1.92259000 -0.97516900 -0.20297000
  O -1.21668862  0.02036536 -0.90895238
  C -0.27558812  0.75508657 -0.23819586
  C -0.16670110  2.05126298 -0.49888077
  H -0.85029613  2.52470885 -1.17905677
  H  0.62161567  2.64337370 -0.07900070
  C  0.65908970  0.03905037  0.71972090
  C  1.47482629 -0.97309331 -0.04498652
  O  2.53376464 -0.73739132 -0.55109200
  H  1.01558156 -1.97623950 -0.14950945
  H  1.33908809  0.77410643  1.14789665
  H  0.09637446 -0.44221178  1.52166301
  H -2.61597803 -1.40930950 -0.92024879
  H -2.49567505 -0.54502583  0.62556204
  H -1.27293560 -1.76391084  0.18445109
