13
opt_min/./Product_472_0_opt.xyz
  O  2.41338900  0.71236000  1.48314000
  C  1.68298892  0.48856118  0.34583071
  C  0.41829821  0.07923553  0.30620954
  N -0.27668754 -0.17974443 -0.86218990
  C -1.63328530 -0.39941267 -0.95746802
  C -2.52736063 -0.38457790  0.02809365
  H -3.55581917 -0.62173564 -0.16500182
  H -2.26852911 -0.14236469  1.04204241
  H -1.94301725 -0.62595726 -1.97011042
  H  0.22460385 -0.03314075 -1.72494436
  H -0.13353874 -0.12587630  1.21279266
  H  2.26294055  0.69637607 -0.54217973
  H  1.86307038  0.49598123  2.24743271
