11
opt_min/./Reactant_1840_0_opt.xyz
  N  1.81263200 -0.25400300 -0.00864400
  C  0.43106641  0.05075950  0.03368039
  C -0.18819838  1.24625012  0.26818130
  H  0.18212724  2.23259983  0.47286054
  O -1.52462597  1.10250619  0.21517803
  C -1.77363682 -0.19130627 -0.05080125
  H -2.80700202 -0.46791905 -0.12478706
  C -0.61647411 -0.88948208 -0.17298754
  H -0.49188591 -1.93116836 -0.38143979
  H  2.25334148 -0.12290924  0.89487047
  H  2.29683226  0.30447211 -0.70283902
