16
opt_min/./Product_2083_0_opt.xyz
  C -1.93556000  0.22484300 -0.95719400
  C -0.53204412 -0.14303697 -0.48754278
  C -0.57201173 -0.87183834  0.85530266
  H -0.91798729 -1.89490208  0.71788534
  H -1.24464832 -0.36015976  1.54264839
  H  0.42192207 -0.89649492  1.30070114
  O  0.19696985  1.07309032 -0.37888716
  C  1.54376332  1.04206149 -0.41882228
  C  2.37365116  0.01508166 -0.49953431
  H  3.43253188  0.19074429 -0.53340584
  H  2.05703965 -1.01295261 -0.53700303
  H  1.91305370  2.06022557 -0.37161449
  H -0.05088653 -0.77893880 -1.24440394
  H -2.39198379  0.91078021 -0.24546244
  H -1.89004451  0.71149587 -1.92970612
  H -2.55018342 -0.67010085 -1.03278275
