16
opt_min/./Product_4281_0_opt.xyz
  C -1.40055400 -0.73461200 -0.41300500
  H -1.79228893 -1.73457380 -0.32210363
  H -1.32436582 -0.39003633 -1.43081376
  C -0.33721859 -0.29972880  0.55225067
  C  0.82165382  0.54377421  0.06376507
  O  1.44263654  1.24483153  1.11906419
  H  1.80466969  0.61387678  1.75248955
  C  1.82725036 -0.32936971 -0.69949969
  H  1.44132755 -0.57745469 -1.68311003
  H  2.75479708  0.22187842 -0.82233768
  H  2.01803355 -1.25599067 -0.16707285
  H  0.45034110  1.34154541 -0.59080734
  H -0.04823730 -1.00092253  1.32566519
  C -1.72713649  0.26357683  0.65168890
  H -2.33955328 -0.04177919  1.48291079
  H -1.86940458  1.29163945  0.36163368
