11
opt_min/./Product_6605_0_opt.xyz
  C -1.77830700 -0.24268300 -0.21065000
  O -1.90805825  1.07008239 -0.07596336
  H -2.84580980  1.32056464 -0.09190944
  C -0.35455333 -0.65933830 -0.19863143
  N  0.64210151  0.38815343 -0.09335671
  C  1.95436577  0.11252429 -0.02931654
  O  2.43169111 -0.99440828 -0.06116785
  H  2.57404055  1.02642041  0.06285914
  H  0.30503493  1.33745885 -0.05040102
  H -0.17564159 -1.25910827 -1.09873230
  H -0.25650531 -1.36104056  0.64450389
