10
opt_min/./Product_2592_1_opt.xyz
  C  0.90394800 -1.17942000 -0.02350300
  O  1.58898307 -1.00622617  1.04271322
  H  1.48046539 -0.15580379  1.55363860
  C -0.05064783 -0.11370873 -0.39855197
  H -0.11311480 -0.00626884 -1.47699096
  C -1.30012517  0.10079804  0.37404624
  H -1.45676002 -0.48108070  1.28154118
  H -2.20773014  0.32953664 -0.16929198
  N -0.28529245  1.12145449  0.35063543
  H  0.23545772  1.17640801  1.22979530
