13
opt_min/./Product_1309_0_opt.xyz
  C -0.88411000 -0.84709500  0.39066000
  H -0.57800942 -1.02603810  1.44022987
  H -1.57072336 -1.64691025  0.09404374
  O -1.54949130  0.38219676  0.25670718
  C -0.65975102  1.34074914 -0.33507161
  H -0.26741812  2.03116073  0.42966276
  H -1.25333329  1.92575570 -1.04331038
  C  0.48367628  0.62261403 -1.03901851
  N  1.38447833  0.06841956  0.08203196
  H  2.35119855 -0.12253923 -0.15841739
  H  1.25699259  0.32114295  1.06384168
  C  0.33102055 -0.76283660 -0.52311767
  H  0.67743524 -1.67674991 -0.99052959
