14
opt_min/./Reactant_10161_0_opt.xyz
  N  2.38356900  0.57526100 -0.03216200
  C  1.93809507 -0.62824461 -0.45108454
  O  2.59763944 -1.39239694 -1.11433004
  C  0.52701543 -0.94954497  0.04701236
  C -0.45854292  0.10988338 -0.39260954
  H -0.57959964  0.19776022 -1.47003627
  C -1.57182385  0.52288518  0.46375725
  H -1.69150371  0.07738432  1.44422365
  H -2.48340365  0.89941124  0.01343250
  O -0.44142230  1.33162123  0.29487111
  H  0.23134701 -1.91978843 -0.35294841
  H  0.54847321 -0.99957973  1.13691582
  H  1.74839540  1.23862464  0.38183961
  H  3.27057068  0.90324242 -0.37851871
