17
opt_min/./Reactant_10576_0_opt.xyz
  C -1.28775498  0.66961806 -1.83590899
  C -1.13371426  0.93418667 -0.35694627
  H -1.48163248  1.91810632 -0.07068516
  C -1.33549523 -0.17715653  0.63494375
  H -1.83034924  0.04474385  1.56708308
  H -1.56759735 -1.15838872  0.25330836
  C  0.03822169  0.37727247  0.40232682
  C  1.10452600 -0.44394272 -0.30363259
  C  2.09609544 -0.92381909  0.63759436
  C  2.90386934 -1.32412208  1.42363097
  H  3.62215462 -1.66411606  2.10766031
  H  0.65498316 -1.30407544 -0.80451278
  H  1.60584788  0.16931911 -1.05834057
  H  0.44645200  0.99817149  1.18977673
  H -1.10273458 -0.37274926 -2.07297974
  H -0.60114067  1.28548886 -2.41273682
  H -2.30017525  0.91366977 -2.15292055
