15
opt_min/./Product_9291_0_opt.xyz
  C -0.60640200  1.48501300  0.03410100
  C -0.36130055  0.04387597 -0.41080520
  C -1.50512683 -0.89628029  0.03116578
  H -2.26256850 -0.33330817  0.56987230
  H -1.13302224 -1.67679506  0.69175614
  H -1.96921958 -1.37002433 -0.82883674
  C  0.87964736 -0.48747539  0.20041634
  O  1.63164404 -1.46117886 -0.49824479
  C  2.46478731 -0.55050722  0.16436170
  H  3.28089751 -0.09010453 -0.36423500
  C  1.71409222 -0.15500416  1.30465160
  H -0.24846439  0.00277436 -1.50069422
  H -0.56569600  1.54736750  1.11987292
  H  0.14937908  2.14912903 -0.37817952
  H -1.58338649  1.82235907 -0.30657896
