14
opt_min/./Product_7896_0_opt.xyz
  C -1.66843500 -0.89948100 -0.27905200
  C -0.45288754 -0.25085170  0.29953511
  N -0.25513945  0.03711749  1.52412328
  O -1.30745897 -0.30788053  2.38814147
  H -0.99452635 -0.02702313  3.25827705
  O  0.48860622  0.04692652 -0.60214444
  C  1.70083479  0.58650820 -0.09644986
  C  2.37787883  1.43884813 -1.03557082
  H  3.39372196  1.64901945 -0.66680821
  H  2.25226844 -0.20764967  0.43318999
  H  1.44530230  1.33831734  0.68512712
  H -1.75350750 -1.91513812  0.10630475
  H -1.58994526 -0.91152346 -1.36147855
  H -2.55559748 -0.35212355  0.03481518
