15
opt_min/./Product_9326_0_opt.xyz
  C -2.10911600  0.71121000 -0.17811000
  N -1.10105601 -0.32234490 -0.42289462
  H -1.45076366 -0.97748323 -1.12422677
  C  0.16395994  0.27713875 -0.98007383
  C  1.09115147 -0.15069018 -0.05804569
  C  2.55817870  0.12443279 -0.08131903
  H  2.94256435  0.26629057  0.92609141
  H  2.75294977  1.02136538 -0.66220217
  H  3.09522485 -0.70353906 -0.54450608
  C  0.44557257 -0.92470700  0.95886665
  H  0.93131063 -1.37403153  1.80643450
  N -0.82857224 -1.05981459  0.79538578
  H -2.42846138  1.14614438 -1.12158375
  H -2.96121881  0.28105725  0.34481776
  H -1.65018231  1.48270499  0.43238062
