15
opt_min/./Reactant_9902_0_opt.xyz
  C  1.91011404 -0.37469797 -0.22491076
  C  0.52941217 -0.41753260  0.37068072
  H  0.36346224 -1.22034582  1.08974962
  C -0.25354825  0.83763850  0.64331255
  C  0.30315031  2.11253219  0.33867870
  N  0.74535415  3.14123393  0.10190634
  H -0.90854606  0.84706547  1.51486273
  N -0.56515603 -0.03626882 -0.47042615
  C -1.79715445 -0.77362879 -0.41700368
  H -1.98249091 -1.25524393  0.55323501
  H -2.62662447 -0.10601287 -0.65010214
  H -1.75720351 -1.54972249 -1.18329418
  H  2.66073759 -0.46372413  0.55776485
  H  2.03037777 -1.19474845 -0.93028160
  H  2.07320359  0.55946571 -0.75723218
