9
opt_min/./Reactant_1647_0_opt.xyz
  C  1.98424899 -0.38614506 -1.33271301
  C  1.01741922 -0.33678883 -0.62836648
  C -0.15076459 -0.27837111  0.19924401
  H  0.01526288 -0.48577430  1.25316628
  C -1.26613628  0.61067677 -0.16960361
  H -1.88429977  1.04569319  0.60575727
  H -1.18138671  1.16942484 -1.09351117
  O -1.35744836 -0.77208676 -0.32095606
  H  2.83573930 -0.42314952 -1.94163376
