12
opt_min/./Product_2571_0_opt.xyz
  N -1.31538200  0.98299100 -0.25205300
  C -0.78711937 -0.30623744  0.03848741
  H -1.52222587 -1.06883229  0.27128910
  C  0.50269824 -0.47155963  0.86957845
  H  0.55002622 -1.10047106  1.74306009
  C  0.46180385 -0.81286437 -0.61211144
  H  0.57828843 -1.77144065 -1.07949776
  N  1.38993651  0.32144830 -0.87324368
  C  1.43894721  0.57654091  0.38217235
  H  1.98556325  1.35647433  0.87759618
  H -1.10250254  1.29361312 -1.18654071
  H -2.30647468  1.03995968 -0.07703215
