11
opt_min/./Product_2683_0_opt.xyz
  C -1.27628000 -0.10207200 -0.46906801
  C -0.24741921  0.30427551  0.60738126
  C  1.09748057  0.50904312 -0.04499035
  O  1.44648322  1.46897683 -0.66844303
  N  1.93014555 -0.59137847  0.10676163
  C  2.63237200 -1.51415160  0.25404477
  H -0.53796467  1.24845381  1.06594450
  H -0.18195653 -0.45987635  1.38081215
  H -0.86956224  0.03517520 -1.46708217
  H -2.17067118  0.50647163 -0.39149808
  H -1.55807652 -1.14431187 -0.35987234
