13
opt_min/./Product_8950_0_opt.xyz
  O  2.66647400 -0.13818600  1.09473300
  C  1.59426222 -0.09571071  0.57480072
  C  0.72230638  1.02996672  0.04804229
  H  0.36823120  1.73351123  0.79700188
  H  1.18845252  1.59579288 -0.75511589
  C -0.30809065 -0.02857057 -0.41261137
  O -1.56428406  0.08490778  0.23233836
  C -2.59306327  0.27410949 -0.53963328
  H -3.45778117  0.35504398  0.15295562
  H -0.44636060 -0.07323428 -1.49733475
  C  0.57769502 -1.15212137  0.17229494
  H  0.14359425 -1.66442807  1.02750782
  H  0.92943993 -1.89095766 -0.54083234
