11
opt_min/./Product_230_0_opt.xyz
  C  1.56792188  0.71101502  0.43928838
  C  0.60796598 -0.33246745  0.77552529
  C -0.64615392 -0.40296192  0.11257168
  C -1.18111509 -1.43313092 -0.57755982
  H -0.57421782 -2.27628113 -0.85517406
  H -2.18634016 -1.39020186 -0.95634107
  C -1.42992023  0.75842695  0.34139155
  N -2.00898828  1.73246037  0.50882532
  H  2.24983052  0.18323704 -0.23879441
  H  2.15342294  1.01567752  1.30352806
  H  1.17919896  1.57708698 -0.10712752
