10
opt_min/./Reactant_3680_0_opt.xyz
  C -1.12054400  0.07868900  0.03251200
  H -2.19648823  0.15520873  0.06373489
  C -0.30621583  1.20443492  0.01387416
  H -0.72057262  2.20359165  0.02998973
  N  1.01271701  1.11299520 -0.02439241
  C  1.52051169 -0.10573759 -0.04412200
  H  2.59952189 -0.18045427 -0.07541860
  N  0.84795996 -1.24153190 -0.02959321
  C -0.47140917 -1.14912738  0.00868999
  H -1.01734648 -2.08302640  0.02043020
