15
opt_min/./Product_8415_1_opt.xyz
  O  2.93321500 -0.79919300 -0.40044500
  C  2.22109678  0.15667273 -0.21149219
  C  0.77992791  0.11959366 -0.05760294
  C -0.02602722  1.17393889  0.11483018
  H  0.26260180  2.20934636  0.19923586
  C -1.45843733  0.75017645  0.20418473
  H -1.72711784  0.65427005  1.26220071
  H -2.15416966  1.44777807 -0.25921375
  C -1.42328849 -0.63159205 -0.46469317
  H -2.23514098 -1.28963073 -0.16247157
  H -1.47200347 -0.49310557 -1.54670409
  C -0.03337485 -1.15328594 -0.09003994
  H  0.36494965 -1.90380001 -0.76863903
  H -0.04740645 -1.57700514  0.91935273
  H  2.65142629  1.17871827 -0.14811626
