13
opt_min/./Product_2040_0_opt.xyz
  O  2.34284800  0.51992100 -0.02249600
  C  1.01765730  0.17940574 -0.01678641
  C -0.15723398  1.06465097 -0.33550066
  H -0.11522788  1.41085879 -1.37452413
  H -0.16730042  1.95377727  0.30215242
  C -1.36139731  0.14525598 -0.04423589
  H -1.95155465 -0.06361420 -0.94185361
  H -2.04271852  0.60302999  0.67860583
  C -0.74735574 -1.11472928  0.53591173
  H -1.18615148 -2.08820374  0.39288583
  N  0.58461870 -0.99973050  0.38717666
  H  1.22276533 -1.74531322  0.64007029
  H  2.69303306  0.59688299 -0.92251404
