11
opt_min/./Product_302_0_opt.xyz
  C -1.94262900  0.31756000  0.25582800
  C -0.50589658 -0.12116294  0.29377323
  O  0.04944315 -0.58949937  1.25443289
  O  0.06112850  0.05870974 -0.91934515
  C  1.33764542 -0.24846859 -1.28630225
  N  2.22056784 -0.29795549 -0.31997396
  H  3.17145329 -0.53888509 -0.55386928
  H  2.02088563 -0.10716571  0.65914588
  H -2.34864742  0.20325780 -0.74380793
  H -1.99108769  1.37018681  0.53067980
  H -2.51730983 -0.25712871  0.97731064
