13
opt_min/./Product_2910_0_opt.xyz
  C  1.74757926 -0.19052795  0.20472343
  N  0.32360849 -0.20554904  0.03308395
  C -0.53151446  0.70005540 -0.47185204
  O -0.29840060  1.96173530 -0.91700538
  H -0.27785497  2.62319769 -0.20346321
  C -1.69090454 -0.20952283 -0.14123097
  H -2.34502006  0.17859662  0.63649217
  H -2.28504088 -0.55421898 -0.98221633
  C -0.61147358 -1.13489092  0.34756161
  H -0.49457336 -2.11198875  0.74497316
  H  2.21571198  0.28232097 -0.65853541
  H  2.01866777  0.36982606  1.10347720
  H  2.11120369 -1.21247215  0.30632420
