16
opt_min/./Reactant_4282_0_opt.xyz
  C -0.98929500  1.19682000  0.26591000
  C -0.49698355 -0.18670040  0.65367622
  H -0.62144117 -0.31942192  1.72656869
  C -1.04719509 -1.34134365 -0.20133696
  H -1.72839222 -1.04012842 -0.99927646
  H -1.47952345 -2.18077938  0.34512638
  O  0.25609131 -1.64338334 -0.70581690
  C  0.87989886 -0.65058236  0.12326179
  C  1.77399738  0.31089335 -0.64023049
  H  2.32688533  0.93292462  0.05625691
  H  2.47723947 -0.26999000 -1.22964912
  H  1.20734862  0.94468952 -1.31328041
  H  1.48723822 -1.13638849  0.89961984
  H -0.93148830  1.34501027 -0.80720677
  H -0.40712441  1.96495041  0.76531185
  H -2.02891564  1.30237475  0.56803456
