8
opt_min/./Product_1960_0_opt.xyz
  N -1.79917400 -0.06846000 -0.12458800
  C -0.63235504 -0.61924105  0.06366751
  O  0.29035750  0.40129973  0.31152595
  C  1.58200334  0.07807511  0.37611028
  O  2.09087822 -0.96612894  0.12308588
  H  2.14449326  0.97982949  0.68495241
  H -2.59212332 -0.66979770 -0.27466711
  H -1.96057014  0.93713680 -0.06787268
