12
opt_min/./Product_9914_0_opt.xyz
  N  2.35661599  2.17878901  0.29512900
  C  1.69122165  1.24722661  0.24077409
  C  0.85219778  0.10768196  0.20188888
  C  1.27862265 -1.03909255 -0.31732635
  H  2.26944801 -1.14094080 -0.72223265
  H  0.63929268 -1.90680248 -0.36055864
  C -0.54983932  0.31852012  0.72344613
  C -1.50242806  0.46300182 -0.44537047
  O -1.52620488 -0.26753768 -1.39181657
  H -2.17729332  1.33965745 -0.36694034
  H -0.60679570  1.19268695  1.37319399
  H -0.86290198 -0.56889528  1.28007476
