11
opt_min/./Product_5131_0_opt.xyz
  C -1.26210900 -0.41631800 -0.59758100
  H -2.29604642 -0.72222852 -0.59846565
  H -0.77380261 -0.43458315 -1.56449612
  C -0.45142727 -0.83518347  0.57748027
  H -0.81950120 -1.52946515  1.31584008
  O  0.96891123 -0.92994515  0.38378653
  C  1.35730268  0.27428766  0.04000647
  H  2.40288386  0.44794459 -0.15821055
  N  0.40569932  1.16111601  0.04278978
  H  0.55798693  2.14992850 -0.09902022
  C -0.87793929  0.64729623  0.43254324
