14
opt_min/./Product_1858_0_opt.xyz
  C  1.92138500  0.98450400  0.70743600
  C  1.11646588  0.17969136  0.03743743
  C  0.21946373 -0.80729709  0.66852251
  H  0.54797140 -1.17165420  1.64139683
  C -1.23926228 -0.81236953  0.43019601
  C -1.94592863  0.16919641 -0.47151275
  H -1.24667099  0.66633769 -1.13846972
  H -2.46950537  0.91123213  0.12256107
  H -2.66784377 -0.37262005 -1.08197744
  H -1.86707255 -1.20029766  1.23224352
  O -0.39650464 -1.76843337 -0.14358980
  H  1.08218790  0.19924816 -1.04396599
  H  1.97440040  0.96403589  1.78403266
  H  2.56110849  1.69265965  0.21235580
