19
opt_min/./Product_10052_0_opt.xyz
  C  1.97496400  1.08238800  0.72879800
  H  2.07645881  1.97292242  0.12652804
  H  2.37731576  1.19290478  1.72546661
  C  2.11585778 -0.24177863  0.03051780
  H  2.61351557 -1.04942373  0.54653639
  H  2.30495318 -0.22666464 -1.03303465
  C  0.77653481  0.21326954  0.51934642
  C -0.29457751  0.62077655 -0.46138284
  C -1.16133005 -0.55652392 -0.92010007
  C -2.19666926 -0.95045117  0.13428994
  O -3.12074914  0.10974819  0.27076373
  H -3.69204690 -0.07430039  1.02432188
  H -1.68971800 -1.15005894  1.08710994
  H -2.71526433 -1.86449549 -0.18228911
  H -0.53953857 -1.42287457 -1.15249742
  H -1.70234218 -0.27236355 -1.82366964
  H  0.17914271  1.06646387 -1.33867242
  H -0.95952636  1.36239567 -0.01488943
  H  0.38397929 -0.29220552  1.39580149
