17
opt_min/./Reactant_10894_0_opt.xyz
  C  1.43194100  0.21118900  0.68622500
  H  1.83498577  1.03710358  1.26682425
  H  2.16518931 -0.58901277  0.61065469
  C  0.73271897  0.64707934 -0.60784507
  H  1.19458548  1.34886491 -1.30075394
  C  0.28150994 -0.71034213 -1.14856905
  H  1.10585359 -1.41638032 -1.23599175
  H -0.24017910 -0.66383422 -2.10352672
  C -0.66939498 -0.99287067  0.01640507
  H -0.97727643 -2.02313837  0.18930068
  C -1.69017930  0.13578980 -0.17800803
  H -2.47826747  0.13981773  0.57059542
  H -2.11613401  0.26231253 -1.17109207
  C -0.52472233  1.01889936  0.24612035
  H -0.65954011  2.04248376  0.58371806
  C  0.01396259 -0.12691001  1.12576752
  H -0.25681891 -0.28157126  2.16641513
