17
opt_min/./Product_7741_0_opt.xyz
  C  1.98744300 -0.77462200 -0.20036800
  C  0.59021915 -0.26422487 -0.05706000
  C  0.18849070  0.97963858  0.18326894
  O  0.93250280  2.10649166  0.38798111
  H  1.86057186  1.89547349  0.22071644
  C -1.30911493  1.11580747  0.20440447
  H -1.63938488  1.63363723 -0.70196316
  H -1.65069630  1.70328141  1.05654653
  C -1.78962937 -0.34038779  0.24306257
  H -2.67425469 -0.49489374 -0.37251446
  H -2.04196906 -0.60976977  1.27047002
  C -0.59140892 -1.17552822 -0.23730580
  H -0.48936503 -2.10100855  0.33639616
  H -0.70975548 -1.46312369 -1.28857269
  H  2.72255331  0.02442810 -0.08815728
  H  2.20023886 -1.53899962  0.54755781
  H  2.12063048 -1.22365966 -1.18660962
