14
opt_min/./Product_3038_0_opt.xyz
  O  2.62967000  1.00950200  1.11645900
  C  1.77465469  0.01892686  0.60990579
  C  0.36785714  0.41796349  0.63357203
  C -0.49505580 -0.30626992 -0.30463560
  C -1.92970112 -0.45258832  0.21608927
  O -2.44568489  0.76675303  0.66772196
  H -1.74311193  1.19616614  1.17854522
  H -1.93129757 -1.19817550  1.02829577
  H -2.59689543 -0.80701618 -0.57307839
  H -0.10907970 -1.25726123 -0.70270767
  H -0.50589928  0.42086371 -1.13200725
  H  1.70522271 -0.83701652  1.31757400
  H  2.15406329 -0.38148261 -0.34971234
  H  3.51166262  0.64449917  1.24123477
