15
opt_min/./Product_9277_0_opt.xyz
  C -1.31086366 -1.36607513 -0.04356311
  C -0.71196008 -0.02581674  0.32296601
  C -1.50425267  1.19310742 -0.08368157
  H -2.51108917  1.14428384  0.32669033
  H -1.56528353  1.24553508 -1.16868730
  H -1.02471206  2.09744486  0.28362329
  C  0.72376676  0.09219354  0.49912100
  C  1.94236931  0.17605633  0.12828284
  C  3.17263849  0.25650598 -0.27726269
  H  3.77900647 -0.62091808 -0.44204275
  H  3.65203045  1.20482822 -0.46557853
  O -0.07796691  0.03621754  1.60210799
  H -0.53742082 -2.12512777 -0.13484121
  H -1.84332382 -1.28970251 -0.98682293
  H -2.00774772 -1.68184051  0.73077707
