14
opt_min/./Reactant_4327_0_opt.xyz
  C -0.89048500  1.25941400  0.22699500
  C -0.29296143 -0.08372221 -0.11622408
  C  1.11026094 -0.31741546  0.42664904
  O  1.92575815  0.82453343  0.22529365
  H  2.67255841  0.58569952 -0.33039636
  H  1.53686293 -1.19938935 -0.05487635
  H  1.03948401 -0.49677459  1.50994504
  C -1.15968671 -1.25175197 -0.31255423
  H -0.79500445 -2.24929499 -0.09328414
  H -2.23593602 -1.12642413 -0.23891686
  O -0.55318249 -0.59855807 -1.39418711
  H -1.78700863  1.43293929 -0.36592996
  H -1.13176580  1.30983908  1.28585014
  H -0.16261455  2.03793278 -0.00637380
