12
opt_min/./Product_9791_0_opt.xyz
  N -1.67184400  0.67937500 -0.36158100
  C -1.43787531 -0.54291019  0.17840436
  C -0.05011355 -0.76321950  0.69537903
  H  0.08114047 -1.78186448  1.05385855
  C  1.12593508 -0.00705372  0.15321123
  O  1.89096208  0.05895157 -0.92692306
  H  2.62132641  0.67918835 -0.79482097
  C  0.74097252  0.36879250  1.33472976
  H  0.85435264  0.95999034  2.20682624
  O -2.29891803 -1.39284317  0.25016769
  H -0.94152630  1.36066330 -0.46037135
  H -2.57678705  0.86864544 -0.75631452
