18
opt_min/./Product_8105_0_opt.xyz
  C -1.47520900 -0.41931700 -0.84745000
  N -0.45355396  0.18140055 -0.01867508
  C  0.09840958 -0.76671194  0.94084977
  H  0.47863864 -0.22854495  1.80989875
  H -0.64736414 -1.50685225  1.26684714
  C -0.89412664  1.43137703  0.56484152
  H -0.12203601  1.81939631  1.22750354
  H -1.05458105  2.15161087 -0.23824012
  H -1.83174891  1.33714045  1.13731121
  C  1.23615593 -1.47408028  0.20293472
  O  1.10099316 -2.56015169 -0.29963196
  C  2.49872187 -0.66604426  0.11319441
  H  3.14242516 -1.06945543 -0.66428599
  H  3.01460952 -0.73038685  1.07118668
  H  2.26611245  0.37589257 -0.08513909
  H -2.38494249 -0.67641587 -0.28345141
  H -1.07411251 -1.32580960 -1.29878114
  H -1.74103259  0.27830179 -1.64082016
