14
opt_min/./Product_6140_0_opt.xyz
  O  2.86429400  0.79462100  0.93574600
  C  1.75121010  0.19517922  0.34405549
  C  0.49032024  0.32150623  1.06081076
  C -0.69699467  0.14034597  0.22674494
  O -1.79309487 -0.36319353  0.94140966
  C -3.00100213 -0.29270281  0.23173215
  H -3.28117688  0.74668455  0.01716671
  H -3.75935728 -0.74768880  0.86411217
  H -2.94062716 -0.84214690 -0.71726422
  H -0.57502422 -0.41188712 -0.72880310
  H -0.88012746  1.20525077 -0.05016226
  H  1.82677306 -0.91910625  0.44299206
  H  1.79204341  0.41731670 -0.73364800
  H  2.67012998  0.92931059  1.87166034
