10
opt_min/./Product_5555_0_opt.xyz
  O  2.21225600 -0.23648600 -0.40336100
  C  0.88577073 -0.23312269 -0.20663331
  C  0.02115428  0.78713019 -0.01061463
  H  0.20138226  1.83947132  0.06616720
  C -1.30592630  0.14015958  0.11245655
  H -1.81932200  0.27094073  1.07017701
  H -2.02832210  0.43753442 -0.65437118
  N -1.01691522 -1.26631018 -0.04069118
  N  0.19761914 -1.44740893 -0.21207849
  H  2.57146034  0.63517881 -0.19602379
