12
opt_min/./Product_725_0_opt.xyz
  C -1.77823587  0.20690332 -0.47767819
  C -1.02332657 -0.86330376  0.26634573
  O -1.37017288 -2.01606238  0.30362879
  C  0.19112499 -0.37328998  0.98279587
  C  1.23803543  0.09196813  0.37424786
  C  2.26903187  0.53300542 -0.27075837
  H  3.05638795 -0.12956845 -0.58633619
  H  2.38080529  1.57932031 -0.50082593
  H  0.17650601 -0.51033554  2.05519791
  H -2.72787847 -0.17831193 -0.83824833
  H -1.16708439  0.53621650 -1.31779778
  H -1.94216508  1.06398092  0.17354126
