13
opt_min/./Product_3335_0_opt.xyz
  C -1.45575656 -0.79000988 -0.33689173
  H -0.93838763 -1.62113712 -0.79679746
  H -2.48659480 -0.99183174 -0.07566676
  C -1.09947631  0.62055805 -0.73179923
  H -1.81568829  1.37815684 -0.98950052
  C -0.70006193  0.09442941  0.61823133
  H -1.00568374  0.35722893  1.61619286
  N  0.69640999  0.15809520  0.17767154
  C  1.75979055 -0.25976960  0.81712244
  H  2.72353253 -0.20776518  0.34892072
  H  1.66149624 -0.58459236  1.83368518
  C  0.37147309  0.63874699 -1.01878117
  H  0.97674480  0.79067945 -1.88335572
