10
opt_min/./Product_3083_0_opt.xyz
  N -1.86284000 -0.30638200 -0.71598900
  C -0.91918270  0.06447979  0.15088870
  C -0.42704933  0.64807768  1.21162199
  H -0.37092399  1.12697548  2.14758734
  N  0.49002843  0.06916303  0.18479655
  C  1.70394039 -0.17304718 -0.25748419
  O  2.73614337  0.11205976  0.31698708
  H  1.68540005 -0.70341626 -1.22978061
  H -2.81685804 -0.35774813 -0.39674535
  H -1.59357030 -0.96647411 -1.42872224
