12
opt_min/./Product_2626_0_opt.xyz
  C -1.81565100  0.01648000 -0.16986000
  C -0.49646255 -0.59621266  0.22465158
  C  0.62205721  0.43463223  0.37094840
  O  1.88121670 -0.20402180  0.67908999
  C  2.76662671 -0.47359400 -0.16579420
  H  2.50954215 -0.15587982 -1.20946166
  H  0.39230929  1.11068571  1.19748471
  H  0.70591504  1.01185732 -0.55931006
  O -0.32048556 -1.77048048  0.37972513
  H -2.62467571 -0.63175245  0.15567739
  H -1.93937287  1.01419092  0.23938639
  H -1.85311612  0.08255037 -1.25628840
