14
opt_min/./Product_265_0_opt.xyz
  C  1.63954900  0.23021200  0.24414900
  C  0.47027396  0.05445063 -0.72702478
  H  0.84715929 -0.02119446 -1.75945731
  C -0.43059382 -1.15602949 -0.40266961
  H -0.30288281 -1.52022824  0.62715744
  H -0.26298042 -2.02089656 -1.04647951
  C -1.83304151 -0.70652459 -0.44655350
  C -1.73768018  0.74030916 -0.64688972
  H -2.31039054  1.31624580  0.08528421
  H -2.20159170  0.92224960 -1.63351111
  O -0.38835546  1.18781873 -0.65026441
  H  2.02137320 -0.74049478  0.55500215
  H  1.28756207  0.77319677  1.11840593
  H  2.44235149  0.79472038 -0.22249598
