17
opt_min/./Product_9529_0_opt.xyz
  C -1.60346800 -1.09192551 -0.22786094
  C  4.05485111 -3.81869503  0.60699286
  H  13.99681509 -17.30011195  20.82403171
  C -10.23345974  0.27672083 -6.00859816
  C -14.74207674 -8.03967203 -0.55087339
  H -0.96621165 -9.39529579 -6.16332711
  H -14.97008676  15.06662568  15.94459187
  H  5.25606238 -31.32742526 -10.06570566
  H -2.79241159  6.00592042 -0.08596775
  C -15.53930520  0.07686811  2.80011231
  C  21.38769829 -1.66471200 -13.89544061
  C  7.88153652 -4.64746803 -14.10808534
  H  10.09860389  0.63995130 -3.61849555
  H  11.67677802 -3.81897126 -8.98503474
  H  0.43528301  6.34528898  7.62786090
  H -6.45108595  3.11729480 -0.94447449
  H -6.39337381 -3.96687571 -3.60942645
