17
opt_min/./Reactant_9529_0_opt.xyz
  C  1.52247457 -0.67198514 -0.54756979
  C  0.70940993 -0.67018428  0.71975162
  H  1.17077264 -1.24973267  1.51014976
  C -0.07259021  0.53084686  1.16721164
  C -0.08661931  1.80047150  0.35284746
  H  0.91354975  2.21852537  0.27481994
  H -0.72891048  2.53945678  0.82756493
  H -0.46939297  1.61852238 -0.64657867
  H -0.10988421  0.69868738  2.23401397
  C -0.79969885 -0.71195354  0.68493464
  C -1.48986417 -0.69460860 -0.55969555
  C -2.07345923 -0.66842895 -1.60656696
  H -2.59165209 -0.64998720 -2.51656518
  H -1.29459826 -1.30965234  1.44062437
  H  1.66750330 -1.68955912 -0.90117755
  H  2.50084463 -0.23240424 -0.36702153
  H  1.02932950 -0.11008675 -1.33250921
