8
opt_min/./Product_5920_1_opt.xyz
  O  2.39011900 -0.39058600 -0.82833500
  C  1.37997885 -0.05673653 -0.30791967
  C  1.02868191  1.16504989  0.53458240
  O -0.18144984  1.03585020  0.84442764
  C -0.78434475 -0.17230532  0.31759524
  H -1.62207043  0.11279341 -0.33105693
  H -1.14507307 -0.77472571  1.16058480
  O  0.21373137 -0.80580581 -0.37963828
