12
opt_min/./Product_5851_0_opt.xyz
  O -1.68233600  1.15811900 -0.99643300
  C -1.21437136  0.56216851  0.17058216
  H -1.44633868  1.11945404  1.07949106
  C -1.24215485 -0.94197148  0.24453706
  H -1.56077024 -1.47691319 -0.63796374
  H -1.50588521 -1.41376384  1.18110873
  C  0.04464347 -0.21579846  0.15331350
  C  1.31730846 -0.23195679  0.04594392
  C  2.61087792 -0.17783134 -0.04759223
  H  3.11649870 -0.20131497 -0.99827992
  H  3.23697813 -0.13686064  0.82901553
  H -1.17089193  1.95415616 -1.18768999
