11
opt_min/./Reactant_9184_0_opt.xyz
  O  2.61135200 -0.85478500 -0.04175400
  C  1.44510237 -0.54097181 -0.02713420
  C  0.97271614  0.85169752  0.05352824
  H  1.70873648  1.63632644  0.10231449
  C -0.34168330  1.12433387  0.06524479
  H -0.74154851  2.12665926  0.12309567
  N -1.25450606  0.10346849  0.00192411
  H -2.24351912  0.30421334  0.01048572
  C -0.79148976 -1.17351595 -0.07193117
  H -1.53977162 -1.95662632 -0.12066650
  N  0.43238922 -1.50995063 -0.08771688
