8
opt_min/./Product_5197_0_opt.xyz
  O -0.59667600  0.90511900 -0.14678300
  C -1.66058415  0.81171912  0.51333127
  H -1.79310160 -0.15997687  1.03835982
  C  0.35152514 -0.15088613 -0.28540682
  H  0.43523435 -0.50379890 -1.30673773
  C  1.32457471 -0.44235562  0.74640199
  O  2.31759060 -0.23675343  1.33577881
  O  0.24932258 -1.20724964  0.71788549
