11
opt_min/./Product_10779_0_opt.xyz
  O  1.60397200  0.75501100  0.75115300
  C  0.67268785  0.45922907 -0.19724905
  H  0.78230188  1.11660057 -1.05370623
  C -0.73650663  0.02676170  0.21297618
  C -2.10635999  0.41871178 -0.01357727
  O -3.08505119 -0.13634776  0.40829891
  H -2.16509400  1.35220933 -0.61280743
  C  0.18246159 -0.94654755 -0.41285301
  H  0.04745343 -1.61679486 -1.23441392
  O -0.27694726 -1.15139261  0.89382782
  H  1.47138289  0.14306916  1.49445225
