12
opt_min/./Product_793_0_opt.xyz
  N  1.43028200  0.82777600 -0.30836100
  C  1.05382302 -0.48637117 -0.32790812
  O  1.85054559 -1.35695050 -0.62057408
  C -0.31544595 -0.81643971  0.14956497
  H -0.53148278 -1.87354641  0.01015937
  C -1.02400775 -0.08343524  1.24806418
  H -0.45065628  0.81637782  1.53437458
  N -1.43602874  0.07786797 -0.18430524
  H -2.30005727 -0.38105750 -0.46143825
  H -1.23758066  0.89603510 -0.76308921
  H  0.77752486  1.59428801 -0.27503304
  H  2.33868992  1.03133368 -0.69898417
