14
opt_min/./Product_553_0_opt.xyz
  C  2.28866800  0.30017400  0.35468000
  C  1.08970313  0.38564386 -0.53672153
  C -0.02091404 -0.25656073 -0.35205797
  C -1.13002652 -0.91032371 -0.19612616
  C -2.30972213 -0.41786358  0.59143775
  O -2.13640623  0.92605268  0.97194606
  H -2.81224320  1.16611558  1.61318783
  H -2.42856168 -1.06062215  1.48008814
  H -3.21375317 -0.52499123 -0.03408689
  H -1.27065623 -1.88642745 -0.64571784
  H  1.18510796  1.05030578 -1.38772788
  H  2.13290541 -0.44048631  1.13563038
  H  3.16574399  0.02848037 -0.23350620
  H  2.46966344  1.27183618  0.81554082
