11
opt_min/./Product_4039_0_opt.xyz
  O  2.36222600 -0.83593300 -0.22259500
  C  1.25367913 -0.34160555 -0.10888828
  C  0.87025272  1.01852270  0.03585000
  H  1.50288568  1.88039645  0.06931180
  N -0.47385290  1.09488402  0.12229739
  H -0.95625945  1.97992428  0.22744005
  C -1.09627810 -0.06223197  0.05876709
  H -2.16205489 -0.15559326  0.11152214
  C -0.07632868 -1.12506481 -0.09144341
  H -0.08633839 -1.83228456  0.73990965
  H -0.20048508 -1.70688516 -1.00544619
