17
opt_min/./Product_11931_0_opt.xyz
  C  2.41781200  0.26668000 -0.37514200
  C  1.25047602 -0.66176952 -0.28191517
  C  0.00243167 -0.29796775 -0.03065027
  C -0.48874553  1.11109102  0.21026954
  H -0.26297958  1.77198477 -0.62958836
  H -0.03634340  1.55430101  1.10290603
  C -1.96563591  0.93577815  0.39831833
  H -2.61693099  1.77246871  0.57866641
  C -2.33523360 -0.33197883  0.31974124
  H -3.33599695 -0.70698636  0.42581137
  C -1.17536001 -1.24237404  0.05768416
  H -1.30832605 -1.81391381 -0.86392429
  H -1.04091191 -1.97065855  0.86344552
  H  1.46516756 -1.70998323 -0.44858087
  H  2.72884908  0.38553221 -1.41243976
  H  3.26824581 -0.13747941  0.17274536
  H  2.18076252  1.24244414  0.03364755
