15
opt_min/./Product_6521_0_opt.xyz
  C -1.17412800 -0.33143900  0.93774000
  C -0.56026577 -0.37113712 -0.44985978
  H -1.00771046 -1.17202553 -1.04048735
  C -0.47663015  0.96406143 -1.20480676
  H -0.94544270  0.98592226 -2.19115145
  H -0.79582948  1.83243769 -0.62063363
  O  0.94373987  0.87868583 -1.29136455
  C  0.97852593 -0.33439386 -0.54987351
  C  1.72998479 -0.22461901  0.75546738
  C  2.47311220  0.63770764  1.35388025
  H  1.61504440 -1.13417378  1.34585359
  H  1.42827540 -1.15069476 -1.13286186
  H -1.03960212 -1.29086422  1.43468281
  H -0.71840984  0.44968106  1.53861189
  H -2.24326551 -0.14577525  0.85990220
