17
opt_min/./Product_6896_0_opt.xyz
  C -1.97314400 -0.54712100  1.00060200
  C -1.16692080 -0.85316463 -0.29161752
  H -1.61763902 -1.70006535 -0.81521482
  O -1.12490308  0.25754432 -1.19278046
  C -0.01840191  1.02503660 -0.78975709
  H  0.32775091  1.64108711 -1.61980744
  H -0.27797366  1.69372030  0.05028943
  C  1.00682858 -0.02874964 -0.29684837
  C  2.15399399  0.49342967  0.56542792
  H  2.21151084  1.57695697  0.49784471
  H  3.10772518  0.07702584  0.25330931
  H  1.99720418  0.21950171  1.60616880
  H  1.40684999 -0.53267989 -1.19485047
  C  0.18748232 -1.14216272  0.22237315
  H -2.67321409 -1.34773878  1.20669359
  H -1.30545692 -0.42205971  1.85108948
  H -2.52114258  0.37840881  0.83993336
