12
opt_min/./Reactant_11612_0_opt.xyz
  N  1.14168800 -1.07626300  0.00683800
  C  0.17684123 -0.04740927  0.14548070
  C -1.26887497 -0.29359440  0.56420338
  H -1.71748913  0.27581830  1.36339197
  H -1.55353038 -1.33264796  0.50977471
  C -0.98736371  0.38062717 -0.72923841
  H -1.23450779  0.07485177 -1.72732347
  O -0.72203324  1.77223784 -0.46368410
  C  0.39814527  1.45046134  0.25395097
  O  1.26747572  2.15492107  0.65405653
  H  1.50588581 -1.11229724 -0.94151150
  H  1.92327163 -0.90020553  0.63115225
