12
opt_min/./Product_11956_0_opt.xyz
  C -2.26644200  0.00351200  0.14516200
  C -1.04501702 -0.79227841 -0.00804728
  C  0.18513748 -0.01150091  0.13522533
  O  1.35065799 -0.81332623 -0.09732903
  C  2.50563703 -0.24394069  0.16051871
  O  2.67652510  0.85624932  0.60169007
  H  3.32630602 -0.93917917 -0.08308962
  H  0.21747025  0.86145064 -0.53642814
  H  0.23996582  0.39852208  1.15768461
  H -2.79584656 -0.43663841  0.99374155
  H -2.15103897  1.08404163  0.28914285
  H -2.90660948 -0.19739188 -0.71459788
