11
opt_min/./Product_2343_0_opt.xyz
  O  1.87059200  1.18750600  0.34687500
  C  1.53144882 -0.02059214 -0.12248276
  C  0.26450901 -0.43335950 -0.24031095
  N -0.73641032  0.43845110  0.16088861
  C -1.97032090  0.17698122  0.11252970
  O -2.59104625 -0.93131207 -0.32699434
  H -1.95636179 -1.58527542 -0.65017535
  H -2.67302006  0.92860979  0.44609342
  H  0.05655741 -1.42934697 -0.62649423
  H  2.37388886 -0.63318221 -0.40378766
  H  1.04486106  1.64579368  0.57637023
