16
opt_min/./Reactant_477_0_opt.xyz
  C  2.13345500  0.21441900  0.23088800
  C  0.65368094  0.20373381  0.06255297
  C -0.19591953  1.21128477  0.19201809
  H  0.05894921  2.22625328  0.44707018
  C -1.60864474  0.79862263 -0.10019735
  H -2.34210679  1.23311189  0.57944191
  H -1.88643474  1.10183693 -1.11572947
  C -1.53011606 -0.73400103  0.00902897
  H -2.25106905 -1.24455330 -0.62746585
  H -1.71692425 -1.02471571  1.04439235
  C -0.07308879 -1.05739241 -0.34219084
  H  0.04819676 -1.21440637 -1.41844550
  H  0.30130640 -1.94539328  0.16718749
  H  2.47770565  1.20919547  0.50706949
  H  2.62303938 -0.07520782 -0.69862339
  H  2.43658839 -0.48930777  1.00521297
