16
opt_min/./Reactant_4682_0_opt.xyz
  C -0.92661400  1.17281800 -0.43323500
  C -0.07010897 -0.06064180 -0.13683043
  C -0.88525504 -1.11761929  0.60554967
  H -1.30516513 -0.69398564  1.51325489
  H -1.68744422 -1.47182786 -0.03629380
  H -0.25113832 -1.95990056  0.87045522
  O  0.37895204 -0.66849668 -1.34225885
  H  0.74103970  0.01229726 -1.92084553
  C  1.17433847  0.33783509  0.68086273
  O  2.03759003 -0.75051425  0.86685333
  H  2.00904733 -1.26846192  0.04878709
  H  1.70237116  1.14992516  0.14767031
  H  0.89231489  0.69861976  1.67217230
  H -0.34365191  1.92604459 -0.96394072
  H -1.77983138  0.89451959 -1.04839683
  H -1.28975581  1.61050166  0.49264743
