14
opt_min/./Product_7578_1_opt.xyz
  C -1.49277900 -0.04338400 -0.93204700
  O -2.53979012  0.39582971 -1.33285725
  C -0.91094409  0.25931135  0.37843616
  H -1.54474406  0.89598957  0.98157264
  C -0.09426654 -0.79431305  1.09992025
  H  0.07073339 -1.73275686  0.59741866
  H -0.25734869 -0.89977596  2.15984512
  C  0.59206181  0.41255979  0.57064861
  C  1.55349284  0.30856960 -0.58735479
  H  1.31034449 -0.52368800 -1.23738436
  H  2.55993908  0.15330026 -0.20442071
  H  1.55439714  1.22447585 -1.17184599
  H  0.88737026  1.17337467  1.28077566
  H -0.92129207 -0.76660396 -1.54313849
