12
opt_min/./Product_1944_0_opt.xyz
  C  1.50612500  0.01722100 -0.30825500
  C  0.18763941 -0.19342136  0.44296161
  H  0.40764615 -0.49356782  1.47238713
  N -0.64288528 -1.21073715 -0.15290708
  C -1.75633409 -0.65283919 -0.40045657
  H -2.58913756 -1.16208197 -0.84748491
  N -1.87400445  0.70099980 -0.06199177
  C -0.73717785  0.99947908  0.43842428
  H -0.49568974  1.98019513  0.79864317
  H  2.20910339 -0.77386639 -0.07203099
  H  1.94402588  0.97076476 -0.02917926
  H  1.32210579  0.00447521 -1.37693769
