15
opt_min/./Product_5891_0_opt.xyz
  C -1.59984300  0.14200100  0.76584200
  C -0.35716042  0.04825585 -0.07050979
  C -0.50155977  0.38535933 -1.52206285
  H -0.89604874  1.39466405 -1.63572251
  H -1.20591369 -0.29970680 -1.99315937
  H  0.45744695  0.31574106 -2.02457876
  C  0.81209049 -0.31006834  0.44820408
  O  0.90662017 -0.69125259  1.78666732
  H  1.72306384 -0.33650663  2.15764530
  N  1.99958469 -0.38662434 -0.31816121
  H  2.71091547  0.26018058  0.00751346
  H  2.38261142 -1.32576878 -0.31155249
  H -1.52405331 -0.50494528  1.63455718
  H -1.74545236  1.16555937  1.11368662
  H -2.46951433 -0.13863654  0.17661343
