14
opt_min/./Reactant_2375_0_opt.xyz
  C  2.22864000 -0.41844400 -0.26420500
  O  0.94879292  0.01016845 -0.65504628
  C  0.07124122  0.22300114  0.43253779
  C -1.25068491  0.67882793 -0.13821309
  H -1.14135906  1.38025751 -0.95671313
  C -2.45413459 -0.16205123 -0.10029646
  H -3.20184200 -0.06346289 -0.87706527
  H -2.39658409 -1.13735070  0.36488838
  O -2.29142480  0.93109546  0.75014824
  H  0.49008323  0.99238431  1.10520195
  H -0.03978682 -0.70226196  1.01660626
  H  2.71328142  0.32797386  0.37989253
  H  2.17618292 -1.36874257  0.27767406
  H  2.80982412 -0.53516061 -1.17311482
