10
opt_min/./Product_1234_0_opt.xyz
  N  1.01782217 -0.14596531  0.84638974
  C -0.16268121  0.28358986  0.12557931
  C  0.20624478  1.20120414 -0.94003176
  N  0.50580084  1.93791247 -1.75870031
  C -0.84004267 -0.92126808 -0.52959520
  O -1.92432846 -0.91602126 -1.02547292
  H -0.18808221 -1.81705376 -0.50066743
  H -0.93347115  0.80467699  0.73102718
  H  0.77040269 -0.74287973  1.62844166
  H  1.54253184  0.64775634  1.20025549
