11
opt_min/./Product_4033_0_opt.xyz
  O  1.82074400 -0.58688400  0.79734100
  C  0.71345542 -0.33664279 -0.00839105
  H  1.07501773 -0.26423584 -1.06245173
  C  0.01122248  0.98159156  0.12353003
  H  0.41036291  1.95674592  0.32155874
  N -1.22773693  0.75410353 -0.22231040
  H -1.94324170  1.46493914 -0.33347315
  C -1.46917133 -0.59651498 -0.44354577
  H -2.47311731 -0.90267299 -0.67274090
  C -0.35761875 -1.37798458 -0.25290451
  H  1.58126173 -1.28773831  1.41262676
