12
opt_min/./Product_9373_0_opt.xyz
  O -1.72735701 -0.86309398 -1.07814900
  C -0.80348906 -0.69023879 -0.04217658
  C  0.38143101  0.13469145 -0.31033702
  C  1.52998007  0.01334231  0.35879809
  C  2.64318159  0.83243331  0.09332629
  N  3.55094664  1.50010420 -0.11869754
  H  1.65895970 -0.72056394  1.14401473
  H  0.27572820  0.86692692 -1.09985879
  H -0.64287562 -1.56609205  0.58445910
  C -2.14389293 -0.07273931 -0.01118177
  H -2.90785991 -0.50013722  0.62798893
  H -2.24369146  0.98779919 -0.21536259
