10
opt_min/./Product_372_0_opt.xyz
  N  1.82918200  0.15676600  0.06274200
  C  0.47032491  0.28810112  0.15296658
  N -0.40468316 -0.71759757 -0.16763039
  H -0.19212038 -1.65918834 -0.45414274
  C -1.63550871 -0.12763007 -0.02534185
  H -2.56264640 -0.63369894 -0.20130315
  N -1.50319702  1.10202054  0.34370670
  N -0.18480645  1.37150937  0.45973608
  H  2.32670311  0.92235789  0.49211638
  H  2.20956177 -0.75489529  0.26902623
