11
opt_min/./Product_6331_0_opt.xyz
  O -1.02475811 -0.63956860 -0.93870148
  C -0.86386798 -1.36319767  0.26817135
  C -1.30954087 -0.33832128  1.08759699
  H -1.55390190 -0.19741380  2.11499696
  C -0.91093752  0.50809427 -0.08423068
  H -1.36805878  1.43330900 -0.42861859
  C  0.62180936  0.49280510  0.14961692
  H  1.19086167  1.40221503  0.12813524
  C  1.17362470 -0.71844456  0.28477113
  H  2.22556841 -0.93754030  0.30957229
  O  0.39414709 -1.87219859  0.39806586
