13
opt_min/./Product_7210_1_opt.xyz
  O -2.83198200 -0.21137500  0.13851700
  C -1.46548339 -0.26261621  0.19072226
  C -0.72352269 -0.42421628 -0.89168279
  C  0.77139049 -0.49920828 -0.93731779
  C  1.41301269 -0.59212752  0.42590663
  C  2.06985100  0.37325609  0.97784789
  O  2.70367349  1.22856819  1.45413719
  H  1.23634900 -1.49458905  0.98746418
  H  1.15654638  0.38140867 -1.45977999
  H  1.05998669 -1.37661851 -1.52394542
  H -1.22057522 -0.50183189 -1.84918525
  H -1.02092861 -0.16773245  1.17679305
  H -3.17810360 -0.03524274  1.01768309
