12
opt_min/./Product_8318_0_opt.xyz
  C  1.86038300 -0.29262200  0.02192000
  C  0.38738852 -0.10585048 -0.00560156
  C -0.36941309  1.06649320  0.21009814
  O -0.09998890  2.22431971  0.46750434
  N -1.70448470  0.57756691  0.04712353
  H -2.53260573  1.14468033  0.13092433
  C -1.67078131 -0.73197644 -0.22945551
  H -2.49602316 -1.38983840 -0.40590373
  O -0.43896456 -1.14624302 -0.26295849
  H  2.15866823 -0.99469895  0.80114307
  H  2.23004920 -0.66677478 -0.93278751
  H  2.30856742  0.67599573  0.22623197
