10
opt_min/./Product_7948_0_opt.xyz
  O  0.11104314  1.84276105  0.32253350
  C  5.46795868  3.12475523 -0.07095928
  C -23.31018899  0.01595711  12.60746074
  N -19.48787036 -0.31455115  10.66198707
  N  0.28885722  1.84195818 -13.65338891
  H  5.51486029  0.56648674 -16.24698449
  N  4.40615329  11.37518375  3.43039265
  C -3.95008287 -4.57500565  2.72838424
  H  26.74935818  1.88626738 -11.31054870
  H  1.13990822 -2.14477811 -3.10870601
