15
opt_min/./Product_7508_0_opt.xyz
  O  2.80348600  1.01404200  0.02117400
  C  1.87496403  0.05580635 -0.32221542
  O  0.64051018  0.39455214  0.27398493
  C -0.46289280 -0.35670548 -0.02775696
  C -0.50471515 -1.42946412 -0.80179466
  H -1.43838264 -1.93053679 -0.96999193
  H  0.35948749 -1.84939820 -1.28304816
  C -1.66614200  0.24225505  0.66866394
  O -1.85715043  1.59437973  0.33631225
  H -1.00098134  2.03249769  0.42556140
  H -2.57353657 -0.28599451  0.37248118
  H -1.52965587  0.13895887  1.75668570
  H  1.79630686  0.06945808 -1.41508395
  H  2.17203279 -0.95474796  0.01547000
  H  2.85766206  1.07154803  0.98309879
