14
opt_min/./Product_6622_0_opt.xyz
  O -0.63461600 -0.85771400 -1.13655200
  C -1.38732314  0.24673968 -0.67669201
  H -2.24339692  0.60816028 -1.21211772
  C -1.05910748  0.03672325  0.74899675
  H -1.62687731  0.03042094  1.65889687
  C -0.06705485 -1.01236130  0.18963438
  H -0.09695890 -2.04377074  0.53614476
  C  1.27437560 -0.30585146  0.24023791
  H  1.62263267 -0.29660637  1.27342298
  H  2.02912926 -0.74764734 -0.40558935
  C  0.85208802  1.10793750 -0.21104271
  H  1.36616138  1.90472878  0.32044488
  H  1.01448288  1.23703552 -1.28289814
  N -0.58275931  1.20595383  0.05154732
