13
opt_min/./Reactant_6101_0_opt.xyz
  C -1.33534000  0.67283600 -0.24945300
  C -0.63568700 -0.66563203 -0.43498239
  C  0.49664184 -0.85752815  0.58208563
  C  1.57396550  0.08684430  0.36908782
  C  2.46048723  0.86833573  0.18015775
  H  3.23851682  1.55116860  0.01104998
  H  0.89513231 -1.87349820  0.49747367
  H  0.10045297 -0.72644031  1.59286816
  H -0.24270976 -0.75122943 -1.44855351
  H -1.36444614 -1.47033259 -0.29251848
  H -0.62529979  1.49360542 -0.33844436
  H -2.09950096  0.81542390 -1.01186394
  H -1.80502853  0.72294088  0.72959746
