15
opt_min/./Product_7158_0_opt.xyz
  O  1.09893600 -1.58001800 -0.38014800
  C  0.39228060 -0.64271074 -0.13502209
  C  0.90889587  0.68184300  0.41249628
  C  2.36016785  0.70437383  0.83140200
  O  3.17064126 -0.15969469  0.71566020
  H  2.60378707  1.67495132  1.32405448
  H  0.77276664  1.45830539 -0.34581294
  H  0.30054355  0.97922438  1.27129246
  C -1.11246803 -0.71957068 -0.34654881
  C -1.93609823  0.54901011 -0.18392708
  H -1.52876973  1.36957923 -0.77090835
  H -1.99211828  0.85832208  0.85782785
  H -2.94789029  0.36529770 -0.53806357
  H -1.46884193 -1.48389485  0.35167402
  H -1.26278546 -1.13244707 -1.34854434
