10
opt_min/./Product_7951_0_opt.xyz
  O  2.01925491 -1.37765579 -1.19652243
  C  1.55164651 -0.99208920 -0.03815535
  N  0.92835363  0.07507654  0.15220227
  C  0.24825616  0.92631523  0.80289507
  N -1.10679111  0.80413601  0.91748021
  N -1.82958931  1.61346887  1.46806420
  C -2.66348146  2.28243517  1.93789820
  H -3.44524148  2.81735525  2.37449811
  H  0.74146812  1.80345746  1.22777681
  H  1.80935000 -0.79382737 -1.94911878
