12
opt_min/./Reactant_4689_0_opt.xyz
  C -1.87428597 -0.33369869 -0.18404541
  C -1.00863839  0.64631173  0.63527947
  C  0.39410543  0.33043068  0.51292031
  C  1.56094651  0.05230193  0.38932516
  C  2.93431946 -0.30424662  0.26470903
  O  3.55803859 -0.96853476  1.04921426
  H  3.40215897  0.11784162 -0.65125133
  H -1.27856014  0.60265995  1.69162922
  H -1.16064696  1.67076558  0.28877610
  H -2.53010773 -0.90121919  0.46844192
  H -2.48292491  0.19785398 -0.90734654
  H -1.24718577 -1.03622127 -0.72403588
