16
opt_min/./Product_6830_0_opt.xyz
  C  0.96218797  0.99945786 -0.83264131
  C  0.28608082  0.03137697  0.14759122
  C -1.02361516 -0.56305682 -0.39679517
  C -2.14115232  0.46643504 -0.49788644
  H -2.65533089  0.57189356  0.45329092
  H -2.86263769  0.18039003 -1.25549907
  H -1.74776986  1.43790027 -0.78264076
  H -1.31241022 -1.37845140  0.27081882
  H -0.82446228 -1.03440897 -1.36039738
  C  1.20836457 -1.03496426  0.49433565
  N  1.94945619 -1.88525059  0.73997388
  O  2.70921874 -2.76227230  1.00849265
  H  0.07492088  0.56895636  1.08102971
  H  1.97912414  1.20381940 -0.51468982
  H  0.99870372  0.57416200 -1.83175985
  H  0.41161636  1.93349258 -0.87685351
