13
opt_min/./Product_1346_0_opt.xyz
  C  2.15581300  0.73835900 -0.13928400
  H  2.48216635  0.85341118 -1.17190347
  H  2.36458502  1.62023382  0.46368196
  C  2.11248431 -0.63055717  0.48979842
  H  2.69131033 -1.40097603  0.92801267
  C  0.96162403 -0.09951314  0.16355717
  N -0.35688101 -0.10927456  0.08265382
  C -1.58004189 -0.75053106  0.36857431
  H -1.87052094 -0.84977990  1.41159695
  H -1.85953032 -1.60110573 -0.24664166
  C -1.51940065  0.61597379 -0.24261762
  H -1.77757869  1.47444876  0.37204604
  H -1.77391831  0.73134203 -1.29285410
