9
opt_min/./Product_1523_1_opt.xyz
  C -0.53510100  0.99176100  1.04104300
  O -1.60534401  0.31128995  0.79397205
  C -1.06206921 -0.44950994 -0.28576428
  H -1.60305918 -0.25127058 -1.21458711
  H -1.03682375 -1.51528759 -0.05794181
  C  0.27809585  0.29875845 -0.09623187
  C  1.42399630 -0.43865278  0.33273396
  H  2.27331076  0.24274560  0.49849169
  H  0.45731450  1.09809978 -0.82328674
