16
opt_min/./Reactant_10046_0_opt.xyz
  C -2.84517400 -0.07053800 -0.75978900
  C -1.57042025 -0.71452774 -0.23304973
  N -0.43130088  0.15485529 -0.44928434
  C  0.80443446 -0.20784213 -0.04959869
  O  1.07136771 -1.23935997  0.51316346
  O  1.69151156  0.77729969 -0.33785612
  C  3.04022772  0.52442086  0.01916443
  H  3.48154990  1.47562634  0.30410053
  H  3.57975196  0.10300661 -0.82993978
  H  3.08632828 -0.17705966  0.85197022
  H -0.55542910  1.04524710 -0.89694995
  H -1.66503636 -0.91721353  0.83728059
  H -1.38973455 -1.66860207 -0.73531323
  H -2.74677394  0.18149966 -1.81089448
  H -3.08499637  0.82597927 -0.19671247
  H -3.67247097 -0.76531278 -0.65304450
