12
opt_min/./Product_4973_1_opt.xyz
  O  1.70556200  0.17084400 -0.83400000
  C  0.99206264 -0.47012594  0.16324273
  H  1.62318366 -1.05259026  0.83275262
  C -0.36570312 -1.06434625 -0.09776484
  H -0.62054497 -2.09363306  0.08585254
  C -0.22455468  0.13274321  0.81838906
  H -0.36386534  0.22911561  1.87865494
  C -1.00819580  0.85870783 -0.27054607
  H -2.00525441  1.17386230  0.04119295
  H -0.49939889  1.67568530 -0.78779827
  O -1.08311466 -0.32903755 -1.06566934
  H  1.91479612  1.07473937 -0.56972662
