12
opt_min/./Product_7450_0_opt.xyz
  O -2.25306781 -0.15051958  0.38926351
  C -1.20185722 -0.29868705 -0.52983434
  C  0.04137516  0.47167895 -0.11760483
  N -0.08962158  1.84854088 -0.21556865
  O  0.62893491  2.60118453  0.41951451
  C  1.20531812 -0.10669182  0.12242028
  C  2.39707374 -0.58308292  0.23840965
  H  3.08546276 -0.62924813 -0.59015887
  H  2.75864034 -0.95187431  1.18420681
  H -1.56916918  0.11500302 -1.47243405
  H -0.94042021 -1.35547781 -0.67240110
  H -2.04561843 -0.62169642  1.20139398
