11
opt_min/./Product_4436_0_opt.xyz
  C -1.38211606  0.38241295  0.36895684
  C  0.01903911  0.35810254 -0.18004690
  C  0.81590472 -0.68014462 -0.16927696
  C  1.60439896 -1.70116586 -0.20781440
  H  2.30197244 -1.92871219  0.57791172
  H  1.60042238 -2.38108163 -1.04588043
  C  0.49486737  1.56514847 -0.74986348
  N  0.85946906  2.55477826 -1.19974994
  H -2.08719682  0.10728341 -0.41706771
  H -1.62243852  1.38291559  0.72317304
  H -1.47225476 -0.33184291  1.18556122
