16
opt_min/./Reactant_1277_0_opt.xyz
  C -2.00296400 -0.61436000  0.18298400
  C -0.56002749 -0.34612082  0.63935210
  C  0.28210966  0.32698733 -0.45302197
  O -0.28839482  1.58032198 -0.78141926
  H  0.39594132  2.24318779 -0.89221899
  C  1.74054783  0.47855026  0.01465985
  O  2.36941552 -0.74677429  0.26535832
  H  2.45245668 -1.24627437 -0.55320731
  H  2.31127806  1.06998244 -0.72061917
  H  1.75314146  1.02514428  0.96279774
  H  0.25751350 -0.30511240 -1.35722606
  H -0.06400793 -1.27894290  0.90431828
  H -0.55457004  0.30381630  1.51165913
  H -2.10216272 -0.42905280 -0.87877681
  H -2.29517345 -1.63723418  0.39983028
  H -2.69792496  0.03817501  0.70036643
