7
opt_min/./Product_2488_1_opt.xyz
  O -1.64265300 -0.84120400 -0.11084700
  C -0.77460897  0.12578191 -0.06444867
  C  0.60715774 -0.04231020  0.02032387
  N  1.40828004  0.06673791  0.99530687
  H  2.38966700  0.13073922  0.73682750
  H  0.91396273 -0.01798763 -1.05105421
  H -2.54430478 -0.51025722 -0.28459413
