11
opt_min/./Product_9085_0_opt.xyz
  O  1.89124100  0.84629200 -0.23262500
  C  0.67340374  0.31223275 -0.06568722
  C -0.49493492  1.07602330  0.13107293
  O -0.73232022  2.26686676  0.10939924
  C -1.63799377  0.02613248  0.18266168
  H -2.64399201  0.35372495  0.33184749
  C -1.08843688 -1.03108153 -0.32913721
  C  0.37197719 -1.15392823 -0.16173332
  H  0.56837053 -1.73900270  0.73999780
  H  0.91954161 -1.59865054 -0.99551196
  H  2.59144053  0.27472242  0.11294020
