17
opt_min/./Product_7036_0_opt.xyz
  C -2.23207700  0.98643100  0.20238000
  C -1.68286698 -0.33544827  0.64444446
  C -2.45675740 -1.38516600  0.90011078
  H -3.52414534 -1.32905462  0.80921755
  H -2.02799786 -2.31704038  1.22203183
  O -0.33594912 -0.47471182  0.84289567
  C  0.55427825  0.49464896  0.32591964
  C  1.94921057  0.00527167  0.56949325
  C  2.92346540  0.06204892 -0.31689338
  H  2.77210474  0.47053733 -1.30335159
  H  3.91668219 -0.28732707 -0.09209726
  H  2.09902597 -0.41194337  1.55551382
  H  0.41641621  1.45307786  0.85465222
  H  0.38723980  0.65832847 -0.74620991
  H -1.85358403  1.26146815 -0.78370293
  H -1.95068747  1.77190020  0.90660905
  H -3.31671867  0.93211046  0.15066771
