14
opt_min/./Product_6861_0_opt.xyz
  C  2.55344200 -0.25731000 -0.12602200
  C  1.26318954  0.03843312 -0.19734249
  C  0.10375328 -0.75738450  0.34983256
  H  0.04482266 -1.75001497 -0.10685127
  H  0.17636906 -0.88746204  1.43467693
  C -1.05764570  0.11006521 -0.04553329
  N -2.37430121 -0.26029748  0.19640318
  H -3.03180262  0.50564944  0.18114556
  H -2.48910883 -0.85875754  1.00168955
  C -0.58600439  1.17500376 -0.69467768
  H -1.08374944  2.01285020 -1.14233303
  O  0.79395551  1.16898845 -0.80854452
  H  2.88610567 -1.15319441  0.36173079
  H  3.29541055  0.38762326 -0.55750045
