14
opt_min/./Product_10145_0_opt.xyz
  O -0.70808700  1.23192900 -1.15205200
  C -0.03090480  0.63867957 -0.06368751
  C -1.00385924 -0.32187154  0.61027782
  H -0.80261988 -0.54721515  1.64861819
  C -2.34659751 -0.45120197  0.07868981
  H -3.31496740 -0.02742727 -0.03685475
  N -1.61349255 -1.41617198 -0.22183104
  C  1.21433496 -0.09303822 -0.49743985
  C  2.14279807 -0.55247678  0.31599193
  H  2.09375878 -0.40851460  1.38417107
  H  3.00122575 -1.09438843 -0.04161417
  H  1.27486650 -0.25536902 -1.56678834
  H  0.22649319  1.40987700  0.68369533
  H -0.05977853  1.70671745 -1.68429623
