13
opt_min/./Product_1984_0_opt.xyz
  N -1.93345745 -0.17956258 -0.24187820
  C -8.79743619 -12.53476738  0.34228428
  C -4.87158915 -6.25977566  2.25058058
  N  11.81799264 -8.24296160 -24.36860586
  H  12.77120946 -29.19829868 -15.89154654
  H  17.10429630  2.56274387 -6.26575693
  C -8.36130919 -6.28970897  30.30166927
  N -8.99210598  3.42391512 -7.48969271
  H -35.73853143 -11.03071368 -32.85515728
  H -13.08054960 -9.68722438  15.43527488
  H -15.58018456  7.97852606  6.35441836
  H  8.13389440 -3.24365277  3.53013880
  H -41.45879470 -31.53087668  6.89819528
