7
opt_min/./Product_2513_0_opt.xyz
  O  1.72294800 -0.88954900 -0.62124100
  C  0.59383335 -0.58420746 -0.40320370
  N -0.59382946 -1.22452437 -0.49661571
  O -1.54211955 -0.38952407 -0.11929410
  N -1.10504224  0.77818361  0.22790665
  N  0.17898224  0.73946979  0.08352509
  H  0.76406106  1.53382445  0.29027618
