17
opt_min/./Product_10897_0_opt.xyz
  C  1.16097100  0.86443400 -1.72138900
  C  0.52616499 -0.17458856 -0.93049604
  H  0.41797057 -1.00830411 -1.63487044
  C  1.07636676 -0.61919568  0.45198695
  H  2.00049472 -0.10386146  0.71559825
  H  1.25357590 -1.69325120  0.50821422
  C -0.11431594 -0.21011294  1.31964396
  H -0.02859756 -0.35988881  2.39534851
  C -0.50432172  1.15722505  0.73644155
  H  0.28386776  1.89402287  0.60062303
  H -1.36018821  1.60628858  1.23234968
  C -0.88458903  0.30343556 -0.48247385
  H -1.55926984  0.66011475 -1.25595162
  C -1.29095270 -0.78831715  0.51765072
  H -1.21809068 -1.82431532  0.19412559
  H -2.25833459 -0.60216053  0.97500086
  H  2.18779822  1.07848749 -1.37195485
