12
opt_min/./Product_11800_0_opt.xyz
  N  0.62338500  1.48598000 -0.18636800
  H  0.69005231  2.47843513 -0.01561081
  C  1.65078828  0.68557449 -0.07256866
  C  1.01668603 -0.68782939 -0.13338741
  H  1.63516602 -1.55817504 -0.30824718
  O  0.42903452 -0.67437743  1.20470061
  C -0.80441848 -0.33247928  0.64938594
  H -1.70015409 -0.52301907  1.21483630
  C -0.64382879  0.84213751 -0.32835956
  H -1.49471226  1.42182796 -0.65040867
  C -0.38795991 -0.56828374 -0.76060447
  H -0.82491082 -1.10938306 -1.57945367
