12
opt_min/./Product_3497_0_opt.xyz
  O -1.84246417 -0.03028584 -0.41255400
  C -0.29486628  2.97062729 -7.08394803
  C -2.38288797 -4.13373212 -5.79632225
  C  11.31707807 -6.00920620  4.32902592
  O  8.11429930 -2.19425861  9.28471353
  C  6.25671737  2.42334851  14.56326201
  H -13.86346635 -4.14115215  14.91741512
  H -23.71530875 -22.47505213 -27.32770863
  H  24.07007073  20.44303832 -23.63149035
  H -21.59960410 -14.26109946 -16.06741979
  H  3.67394359  4.30062480 -8.35031534
  H -7.61631930  10.09959407  0.60613759
