17
opt_min/./Product_8380_0_opt.xyz
  C  1.98870000 -0.33321000 -0.34619800
  C  0.49610157 -0.12458370 -0.22243759
  C -0.11785318  1.23895565  0.24313572
  H  0.42305894  1.64404390  1.09520441
  H -0.25530637  2.00601181 -0.51605274
  C -1.31883968  0.35888760  0.60432933
  H -2.08776290  0.68987449  1.30011649
  C -0.31016807 -0.73355422  0.96493496
  H  0.18980022 -0.57750135  1.91719793
  H -0.61552125 -1.77385037  0.86318173
  C -1.72191334 -0.10270881 -0.80040276
  H -2.24880280  0.64466358 -1.39590533
  H -2.32616958 -1.01309535 -0.81950557
  C -0.37834134 -0.39929325 -1.39353072
  H  2.30921444 -0.12588492 -1.36368480
  H  2.24104265 -1.36297333 -0.10616471
  H  2.52826359  0.32264163  0.33400189
