16
opt_min/./Product_6354_0_opt.xyz
  C  2.22239000  0.13810800  0.30535100
  C  0.99009379 -0.39042268 -0.42362144
  C -0.26606947 -0.22947406  0.42067504
  H -0.11001536 -0.65048467  1.42046735
  C -1.59091420 -0.64754722 -0.23840741
  H -1.49947614 -0.99186602 -1.26347964
  H -2.19584335 -1.34518246  0.33126391
  C -1.97345113  0.82742734 -0.07770996
  H -2.80078274  1.02432700  0.60865279
  H -2.13697758  1.38488017 -1.00338496
  O -0.71153122  1.13528693  0.51588329
  H  1.11614320 -1.44590188 -0.66598668
  H  0.85034616  0.16836054 -1.34884265
  H  2.06094432  1.17585189  0.57874966
  H  2.40302659 -0.43553051  1.20878411
  H  3.09846955  0.07499755 -0.33256959
