14
opt_min/./Product_2446_0_opt.xyz
  C -1.78772505  0.14459618  0.32640469
  C -0.63076094 -0.82588819  0.17376138
  N  0.45769835 -0.22221805 -0.63885940
  C  1.22433243  0.82449009  0.08476003
  C  2.58258233  0.66708620 -0.05151883
  N  3.71434986  0.40715987 -0.08015036
  H  0.79823898  1.81186762 -0.01422966
  H  0.04393492  0.11509402 -1.52333853
  H  1.14816012 -0.94721367 -0.86602629
  H -0.20596662 -1.04784138  1.15754995
  H -0.96499691 -1.75746942 -0.29344937
  H -2.57316977 -0.31181594  0.92455257
  H -2.20772244  0.41079087 -0.64285728
  H -1.45641844  1.04913821  0.83011249
