7
opt_min/./Product_3384_1_opt.xyz
  N -1.62460995 -0.40912798  0.47363518
  C -0.75685686  0.44832115  0.16207793
  C  0.59988298  0.18661929 -0.17701944
  C  1.73640878 -0.08760791 -0.45396713
  H  2.72238115 -0.34113640 -0.70233439
  H -1.06709683  1.48723547  0.13924505
  H -1.29170657 -1.36986620  0.47700038
