13
opt_min/./Product_8361_0_opt.xyz
  C  2.70040714  0.37648514  0.21081790
  C  1.55927644  0.16019038  0.49698852
  C  0.16494027 -0.12071671  0.79195218
  H  0.09551114 -0.40098479  1.84883770
  C -0.60816990  1.13884949  0.58783528
  C -1.60475957  0.78796031 -0.41257727
  H -2.56535042  0.87117631  0.13143841
  H -1.65995341  1.51055704 -1.23297837
  O -1.42699001 -0.52192173 -0.93292013
  C -0.45784148 -1.19092975 -0.14857289
  H -0.94070033 -1.98832572  0.43224486
  H  0.28845315 -1.63648870 -0.81288874
  H  3.70552837  0.54874329 -0.03420683
