13
opt_min/./Reactant_8361_0_opt.xyz
  C  2.95244102  0.54162104  0.77710590
  C  1.80184129  0.35832629  0.48477683
  C  0.46386377  0.12029631  0.13256355
  C -0.60981637  0.89561254  0.28606104
  H -0.66737918  1.87338161  0.72286394
  C -1.81378527  0.19472060 -0.25281641
  H -2.56034520  0.00292504  0.53211726
  H -2.30166315  0.77024997 -1.05214061
  O -1.34478738 -1.03625471 -0.78164940
  C  0.04403181 -1.17143562 -0.53099070
  H  0.57480466 -1.33786581 -1.47641522
  H  0.22938290 -2.03479563  0.12351612
  H  3.95883143  0.70258260  1.03800963
