16
opt_min/./Product_11244_0_opt.xyz
  C -1.36490700 -0.12037200  0.32458700
  H -1.97036919 -0.41938869  1.17752196
  H -2.02517652  0.19422213 -0.48103152
  C -0.27229863 -1.14199904 -0.06897260
  O -0.19375804 -1.48084553 -1.42925322
  H -1.01188672 -1.23838887 -1.87088939
  H -0.29994661 -2.07100267  0.50962668
  C  0.82832533 -0.13649652  0.39619911
  C  1.84105921  0.29479336 -0.65862663
  H  1.33441890  0.71759428 -1.51795182
  H  2.41452738 -0.57010629 -0.97722254
  H  2.51371231  1.03002340 -0.22981798
  H  1.36195008 -0.46099640  1.28851188
  C -0.26038217  0.85577576  0.70668777
  N -0.20684677  2.03130824  1.12120029
  H -1.10516076  2.49465125  1.23958129
