12
opt_min/./Reactant_5628_0_opt.xyz
  C -1.23852200  0.23949900 -0.06894700
  H -1.75266738  0.55406514 -0.97190121
  H -1.93598009  0.15872085  0.76457610
  C  0.05410980  1.00080629  0.14769229
  H  0.19636163  2.06420125  0.22297725
  C  0.98639248 -0.00643614  0.81620609
  H  1.80458680  0.21324293  1.47600234
  O  0.25552738 -1.20668834  0.99160997
  C -0.31643443 -0.96934391 -0.30072253
  H -0.63085751 -1.86237723 -0.82697065
  C  0.83771662  0.00374519 -0.67038467
  H  1.50514279  0.11556351 -1.50083764
