13
opt_min/./Product_7850_0_opt.xyz
  O  2.46701600  0.88095900  0.38592400
  C  1.73697164  0.13031062 -0.18915551
  C  0.53053607 -0.52565762  0.44553163
  H  0.82427999 -0.90618703  1.42878812
  O -0.11384077 -1.50991712 -0.35991008
  C -1.34963220 -0.79005397 -0.38868620
  H -2.14691761 -1.34859532  0.10589081
  H -1.64927702 -0.51472105 -1.40004567
  C -0.74301691  0.35603627  0.45030383
  O -0.55578118  1.57612579 -0.19723645
  H -1.40371559  2.02241528 -0.29483491
  H -1.19653524  0.49971528  1.43593211
  H  1.87575692 -0.14105005 -1.25058356
