14
opt_min/./Product_9192_0_opt.xyz
  O  2.80254200  0.48231500  1.37671800
  C  2.35211892  0.41951409  0.11160524
  C  1.15528167 -0.13411844 -0.20094463
  C  0.39093105 -0.88268710  0.71777191
  C -1.02428898 -0.95733175  0.48073396
  H -1.53293845 -1.80025280  0.94858654
  C -1.81358790  0.32442694  0.48540280
  H -1.25778195  1.25232579  0.55298957
  H -2.76442408  0.32981356  1.01166676
  N -1.65442254 -0.39099129 -0.73400046
  H -2.47849948 -0.90727452 -1.02998035
  H  0.83265588 -0.03640882 -1.23543815
  H  2.94710166  0.91632977 -0.64795270
  H  3.67518049  0.88964981  1.42216116
