12
opt_min/./Product_1586_0_opt.xyz
  O  2.05637800  0.05580200  1.76001600
  C  0.85467608 -0.27460774  1.20535499
  C  0.60118453 -0.09899412 -0.08340618
  C -0.69199772 -0.45539036 -0.73346627
  C -1.39608004  0.71601580 -1.37350290
  O -2.46306360  0.66348597 -1.91428277
  H -0.82274556  1.66680734 -1.32590690
  H -1.37750648 -0.90609114 -0.01146146
  H -0.53547688 -1.19467118 -1.52348815
  H  1.36437347  0.33102959 -0.71307373
  H  0.11412846 -0.70424198  1.87349500
  H  2.03476972 -0.10679722  2.71019130
