14
opt_min/./Product_10953_0_opt.xyz
  C -1.94304200 -0.65981700  0.07761600
  C -0.88973555  0.45382592  0.03797158
  H -1.32112655  1.39670869  0.39838147
  C  0.41447751  0.14630378  0.68455457
  H  0.50316481 -0.09741014  1.72601470
  C  1.38579111  0.21310857 -0.25232920
  N  2.71598420 -0.05902133 -0.14821257
  H  3.30165124  0.25861861 -0.89926280
  H  3.13086845 -0.11601722  0.76580365
  C  0.76382913  0.59819762 -1.54447358
  O -0.49715076  0.71467034 -1.33413222
  H -2.21462301 -0.92770189 -0.94169063
  H -2.84029581 -0.33776891  0.59969058
  H -1.54602546 -1.54395060  0.57093620
