13
opt_min/./Product_1148_0_opt.xyz
  C -0.88900700 -0.89741800  0.17608700
  H -1.27349752 -1.86618215 -0.09907452
  H -1.20161858 -0.57838062  1.15999341
  C  0.48061268 -0.49697082 -0.29592895
  C  1.37946806  0.31836426  0.60620655
  H  1.18415045  1.38111075  0.46717221
  H  2.42090293  0.13956449  0.37083115
  H  1.20975511  0.08853654  1.65552815
  H  0.99708439 -1.20651276 -0.92474612
  C -0.75923866  0.14845807 -0.88261321
  O -1.01218451  1.48915359 -0.59462018
  H -1.59190856  1.54193200  0.16877276
  H -1.03363287 -0.09423141 -1.90297284
