18
opt_min/./Product_8123_0_opt.xyz
  C  2.42394300 -0.69370600  0.04452800
  N  2.77030924  0.69518988  0.33014304
  C  1.01953230 -0.69631370 -0.56844383
  O  0.85500676 -0.63745893 -1.75792888
  C -0.12491146 -0.67431481  0.43191738
  C -1.35511553 -1.37342693 -0.13484067
  H -1.65797675 -0.89675132 -1.06419218
  H -2.17893837 -1.32756387  0.57351628
  H -1.13221356 -2.41832359 -0.34609207
  C -0.41003330  0.80393621  0.71596200
  H -1.22600908  0.90378881  1.43039157
  H  0.47492727  1.28740221  1.12388967
  H -0.68686217  1.31597027 -0.20282070
  H  0.18601280 -1.15923986  1.36036824
  H  3.37236607  0.74570847  1.14265517
  H  3.23653360  1.12790080 -0.45684679
  H  3.10971897 -1.17587557 -0.66681942
  H  2.42297438 -1.26627720  0.97250636
