13
opt_min/./Product_8558_0_opt.xyz
  N -2.04470600  2.07712700  0.36370000
  C -1.75973780  0.96961160 -0.29130676
  O -0.60998229  0.44836298  0.21937434
  C -0.21237902 -0.78131678 -0.34041718
  C  1.31842468 -0.80677105 -0.46563631
  C  1.93651211 -0.64913074  0.82768408
  N  2.41744845 -0.52683101  1.85677736
  H  1.64814398  0.01027478 -1.11229681
  H  1.63209034 -1.76117001 -0.89462612
  H -0.54727732 -1.60001403  0.31016346
  H -0.67225480 -0.90965711 -1.32811043
  H -2.87336466  2.59983794  0.13879584
  H -1.46400440  2.42328127  1.12629917
