13
opt_min/./Product_2268_0_opt.xyz
  C -1.07495100  0.51161400  0.29122700
  H -1.28369255  0.53141575  1.36831339
  H -1.90578040  1.01045868 -0.21062218
  C  0.21294092  1.24077206  0.05252925
  H  0.17442118  2.31663706 -0.04929383
  C  1.35924788  0.56268367  0.03998610
  H  2.31995882  1.04016662 -0.09489867
  C  1.32093564 -0.88259738  0.21746562
  H  2.24932257 -1.39979136  0.43590109
  N  0.27928553 -1.59399188  0.12513072
  C -0.96477424 -0.93661548 -0.19941735
  H -1.76933631 -1.54798611  0.21793242
  H -1.05965398 -0.96651302 -1.29375927
