14
opt_min/./Product_7759_0_opt.xyz
  C -1.94513100 -0.96821700  0.23629300
  C -0.58791457 -0.37906707  0.12665146
  C  0.58771259 -1.02149373 -0.15948356
  C  1.49777808  0.06604211 -0.15350395
  N  2.81220628  0.00066897 -0.35913603
  H  3.20380898 -0.87893690 -0.64292512
  H  3.36672984  0.83761988 -0.42295659
  O  0.99606599  1.29742953  0.10421527
  C -0.39161414  1.11525280  0.31735614
  H -0.94664005  1.71758200 -0.40827513
  H -0.63972851  1.45677157  1.32728663
  H -2.56716217 -0.65303044 -0.60307533
  H -2.43640366 -0.64219051  1.15433331
  H -1.87331201 -2.05179137  0.23080704
