9
opt_min/./Product_2610_1_opt.xyz
  C  0.49130000 -0.47535800 -0.36312400
  O  1.79107144 -0.06263645 -0.14877447
  H  1.80518104  0.73411245  0.39496218
  H  0.51060564 -1.35570314 -0.99870917
  C -0.57038371 -0.31966844  0.70662541
  H -0.70206262 -0.34276506  1.76035470
  C -0.64658443  0.51851922 -0.45403778
  H -0.86581787  1.50134030 -0.79244722
  O -1.65073986 -0.47269278 -0.21944728
