15
opt_min/./Product_9075_0_opt.xyz
  C -1.00266500  1.72205300  0.02470100
  N  0.09195162  0.79237842  0.05663824
  N  1.33622015  1.26596585  0.09691155
  C  2.12785357  0.21383586  0.07826572
  H  3.19177416  0.33627137  0.10241316
  C  1.38543561 -0.97099340  0.03876052
  H  1.74484231 -1.97968926  0.02457084
  C  0.06328665 -0.56063001  0.02262337
  C -1.16700871 -1.39313952 -0.04780584
  H -2.01640804 -0.90992465  0.42597858
  H -0.98612455 -2.34266670  0.44498952
  H -1.42932843 -1.59496497 -1.08474601
  H -1.93051572  1.21898004  0.28055654
  H -1.10095463  2.16276742 -0.96956921
  H -0.80589162  2.52023429  0.73539413
