12
opt_min/./Product_4416_0_opt.xyz
  C  0.09276579 -1.45661550  0.68577978
  C -1.03608811 -0.53582360  1.01007202
  C -1.32059007  0.64386205  0.47738432
  O -0.68027837  1.36512380 -0.49323547
  C  0.58349636  1.22966006 -0.75639928
  C  1.74919878  1.21768592 -1.03426947
  H  2.76228180  1.23203083 -1.29654979
  H -2.21324474  1.17827046  0.78523237
  H -1.73119018 -0.88425550  1.76368855
  H  0.51144547 -1.87365389  1.60181577
  H -0.27778060 -2.29113176  0.08585557
  H  0.88059594 -0.95591018  0.13075247
