17
opt_min/./Product_9042_0_opt.xyz
  C -1.89100000 -0.56821300  0.48613600
  C -0.78463514 -0.23651381 -0.51204344
  H -1.18690593 -0.33192699 -1.53783937
  C -0.31473463  1.22830190 -0.30197417
  H -1.18460816  1.86152541 -0.11597025
  H  0.16249749  1.57403314 -1.22864164
  C  0.72893257  1.42285923  0.72564589
  C  1.76987791  0.37974351  0.64486113
  H  2.72114093  0.90525574  0.51047105
  H  1.82856966 -0.06845370  1.64376357
  C  1.55715073 -0.68788939 -0.42574184
  H  1.75349721 -0.27690547 -1.43078777
  H  2.20358907 -1.55697669 -0.28022971
  O  0.24371632 -1.19915810 -0.35381700
  H -2.19830093 -1.60298266  0.35014158
  H -2.74878342  0.08219460  0.33506815
  H -1.52221193 -0.44355944  1.50212064
