16
opt_min/./Product_11341_0_opt.xyz
  C -1.05826700 -1.44468300  0.10590900
  C -0.46891375 -0.08317211  0.00638577
  C  0.79737211  0.37822967 -0.06280333
  C  2.04063869 -0.44126751 -0.08623991
  H  2.17544649 -0.89311448 -1.06963641
  H  1.99586123 -1.24187306  0.65026141
  H  2.90721372  0.18033263  0.12330834
  C  0.76199512  1.82187569 -0.12923718
  H  1.66893897  2.39772900 -0.19678377
  C -0.48645634  2.35911542 -0.10081544
  N -1.35694780  1.08803678  0.00479271
  H -2.02387164  1.08017077 -0.76795520
  H -1.89513539  1.16154731  0.86963342
  H -2.00526305 -1.50069304 -0.43084821
  H -0.37634887 -2.17103691 -0.32920808
  H -1.24294556 -1.73532812  1.14314957
