11
opt_min/./Product_4752_0_opt.xyz
  N  1.58144846  0.83945154 -0.09769981
  C  1.40301456 -0.44072153  0.31168908
  O  2.26576379 -1.08507058  0.86141159
  C  0.05841996 -1.00216624 -0.00767156
  C -1.02149017 -0.28406208 -0.08921898
  C -2.07541102  0.46296991 -0.13958199
  H -2.43225377  0.88430054 -1.06580568
  H -2.65560281  0.68568775  0.74098814
  H  0.03106638 -2.07866755 -0.09452073
  H  2.42321918  1.31730685  0.17612259
  H  0.80238220  1.38772462 -0.41595276
