14
opt_min/./Product_9312_0_opt.xyz
  C  1.77787168 -0.31508758  0.45689384
  C  0.67878853 -0.17383188 -0.59582890
  C -0.67477268  0.12101922  0.02628333
  N -0.69429124  1.25002314  0.83029610
  C -0.70040371  2.19064921  1.51627090
  C -1.93288215 -0.25261614 -0.64065595
  H -2.82613149  0.33358871 -0.46221408
  H -1.88268924 -0.77079976 -1.58956904
  O -1.44547427 -0.95603937  0.46894163
  H  0.91976009  0.63338571 -1.29042927
  H  0.59013044 -1.09988885 -1.16201560
  H  2.74982153 -0.35969127 -0.02197200
  H  1.63421568 -1.22345882  1.03287751
  H  1.76860553  0.52841493  1.14026693
