12
opt_min/./Product_2801_0_opt.xyz
  C -1.75358600 -0.46849700 -0.24588900
  C -0.52699282  0.28947875  0.15960517
  O -0.79573293  1.47622517  0.79725227
  H  0.01902985  1.94789712  0.99625564
  C  0.70017132 -0.12983939 -0.04522161
  C  2.13832901 -0.07312907 -0.04350600
  H  2.65557572  0.54844665 -0.76378724
  H  2.67285114 -0.33169588  0.86341139
  O  1.39660553 -1.15453786 -0.61159169
  H -2.32931827  0.12816592 -0.95051753
  H -1.47924952 -1.41287889 -0.70109817
  H -2.37521725 -0.64551041  0.62898099
