12
opt_min/./Product_10543_0_opt.xyz
  O  2.52955700 -0.58748100  0.95211900
  C  1.97863083  0.29432799  0.33096035
  N  0.65021121  0.34976719  0.11655493
  C -0.07390186  1.32315968 -0.57158832
  H  0.33260863  2.17516013 -1.06659450
  O -1.33556616  1.04189401 -0.55366202
  C -1.58226137 -0.07415843  0.09113186
  H -2.58366879 -0.40694945  0.23897456
  C -0.29727948 -0.65293157  0.61557024
  H -0.25121375 -0.72525467  1.71255903
  H -0.05221812 -1.64721501  0.21155396
  H  2.51125507  1.14300519 -0.13281590
