13
opt_min/./Reactant_9296_0_opt.xyz
  C  2.27400600  0.57861800  0.41460200
  O  1.06167251  0.33212838 -0.29114139
  C  0.25026637 -0.59210709  0.22938072
  O  0.47874776 -1.21472666  1.22530014
  C -1.01992359 -0.69919141 -0.60803950
  C -1.99734677  0.31058420 -0.05716710
  O -2.87799190  0.06510126  0.71098266
  H -1.80595923  1.33901350 -0.41823373
  H -0.77590700 -0.46026367 -1.64065330
  H -1.42636075 -1.70579288 -0.50218954
  H  2.05880431  0.83722760  1.45311742
  H  2.90614695 -0.31139036  0.39777661
  H  2.76215583  1.40329618 -0.09822006
