16
opt_min/./Product_6157_0_opt.xyz
  O  3.64340400  0.17457200 -0.79969100
  C  2.48493630  0.47982973 -0.86014950
  C  1.34865708 -0.32083901 -0.29461007
  C -0.01750449  0.33604608 -0.45355812
  C -1.12756823 -0.51820195  0.15508322
  C -2.49997139  0.11374467 -0.03093052
  H -2.76030384  0.16572099 -1.08457366
  H -3.25765937 -0.47253526  0.48000047
  H -2.51694148  1.12212909  0.37491988
  H -0.93015308 -0.65850458  1.21894170
  H -1.11573277 -1.50473801 -0.31237035
  H -0.22273812  0.49283243 -1.51515475
  H -0.00583717  1.31369073  0.03236445
  H  1.56494776 -0.50515656  0.76078873
  H  1.36196600 -1.29702292 -0.78728215
  H  2.17558330  1.42226986 -1.36123278
