10
opt_min/./Product_7655_0_opt.xyz
  N -2.76945902  0.68663192  0.82955399
  C -1.86245238  0.27078779  0.27394463
  C -0.68542395 -0.21671496 -0.39693896
  H -0.95436202 -0.41478146 -1.44147460
  C -0.16106090 -1.52049713  0.20972111
  O  1.05383371 -1.29155215  0.56421346
  C  1.46127841  0.00951247  0.31324418
  H  2.46154675  0.27336124  0.60013642
  C  0.48864094  0.71336225 -0.25896671
  H  0.49238243  1.73981123 -0.56340145
