10
opt_min/./Product_5473_0_opt.xyz
  C  3.08346048  0.10811664  0.69606114
  N  1.82849243 -0.42340150  0.35643749
  C  0.69699531 -0.26124871  0.08054268
  N -0.42087490 -0.53787060 -0.32517957
  C -1.68807758 -0.00576251 -0.29647158
  O -2.01351619  1.05912579  0.16719904
  H -2.39531541 -0.69863395 -0.78526562
  H  3.06024761  0.54823446  1.69592177
  H  3.39339353  0.86983097 -0.02344718
  H  3.80282660 -0.71135398  0.68328221
