15
opt_min/./Product_8173_0_opt.xyz
  C -0.22314200  1.10395400  0.31788200
  H -0.18509912  2.05700688 -0.20493374
  H -0.18084862  1.27909423  1.39415459
  C  0.82362136  0.08874929 -0.19177289
  O  1.71831382 -0.40511155  0.82119475
  C  2.93661290 -0.10942674  0.89544146
  H  3.28663675  0.54865702  0.05822216
  H  1.40624955  0.46313349 -1.04313643
  C -0.29917630 -0.85886678 -0.58021563
  H -0.27889580 -1.50339264 -1.44133575
  C -1.14652282 -1.13236619  0.62381690
  H -1.91275866 -1.88417624  0.49299973
  H -0.70275370 -1.11778488  1.60668272
  C -1.32869606  0.14928991 -0.12389247
  H -2.24804962  0.44654468 -0.59716484
