14
opt_min/./Reactant_8248_0_opt.xyz
  C  1.78001000  0.58045800 -0.12000800
  C  0.42298691 -0.01432310  0.09650969
  N  0.23098624 -1.45366603  0.04080173
  H -0.23543704 -1.87991326  0.83827377
  C -0.58719678 -0.67564604 -0.82231562
  H -0.54251052 -0.80810648 -1.88786448
  C -1.77246780 -0.10853430 -0.02734980
  H -2.43941485  0.56420912 -0.56064705
  H -2.35650487 -0.86874395  0.49588321
  C -0.72996424  0.63669429  0.80374280
  O -0.80413980  1.56133421  1.56065051
  H  1.79838112  1.18470844 -1.02659203
  H  2.02886421  1.21614645  0.72728970
  H  2.52714772 -0.20383861 -0.21339481
