16
opt_min/./Product_5186_0_opt.xyz
  C -2.33244600  0.01387800 -0.16559900
  C -0.93541789 -0.17908485 -0.70545969
  H -0.84382544 -1.03986261 -1.35576298
  C -0.07772961  1.00979748 -1.02768780
  H  0.58836668  0.94539887 -1.87232413
  H -0.49378233  1.99210236 -0.86950921
  C  0.24561152  0.15246120  0.16171988
  C  1.44491138 -0.72328550  0.15605163
  C  2.66976441 -0.28381791 -0.07817245
  H  2.85773394  0.75609580 -0.29020551
  H  3.52360559 -0.93614246 -0.06368471
  H  1.28590440 -1.77282945  0.36832753
  H  0.03017349  0.56869889  1.13774540
  H -2.42437931  0.98145553  0.31701921
  H -3.06299651 -0.04030102 -0.96950185
  H -2.56992556 -0.75611252  0.56654228
