14
opt_min/./Product_824_0_opt.xyz
  C -1.92435900 -0.34293800 -0.14747900
  C -0.48285815 -0.30512029  0.37201887
  H -0.47366578 -0.69461308  1.40652362
  C  0.46088748 -1.26680051 -0.26288088
  C  1.71829419 -0.49420798 -0.44348527
  H  2.11504186 -0.62428101 -1.45303673
  H  2.46115161 -0.95360499  0.22180445
  C  1.43408314  0.93331962 -0.07003824
  H  2.16811696  1.71352287 -0.16479018
  C  0.19196495  1.04120411  0.38048365
  H -0.29487461  1.93763108  0.72229998
  H -2.09771973  0.51099582 -0.79912582
  H -2.65287129 -0.31549760  0.65896269
  H -2.07958437 -1.25005468 -0.72645692
