9
opt_min/./Product_4152_0_opt.xyz
  N  0.90428700  0.66969600  0.23303300
  H  1.73131903  1.21180764  0.42448770
  C -0.32534191  1.15148176  0.39251550
  C -1.16387655 -0.03090696 -0.01977705
  H -1.81488355  0.22279220 -0.85509409
  H -1.80159047 -0.35717739  0.80287325
  N -0.26915512 -1.10879773 -0.38968433
  C  0.89690060 -0.65789087 -0.22545793
  H  1.80269142 -1.20523798 -0.40565626
