11
opt_min/./Product_5134_0_opt.xyz
  C -1.60691400 -1.10747300 -0.33836300
  C -0.72964929 -0.78786071  0.73845561
  H -1.10673586 -0.65162571  1.74673104
  O  0.63420407 -1.24562233  0.79449862
  C  1.33793846 -0.41949889  0.02922995
  H  2.38304504 -0.64231761 -0.10666277
  N  0.76231342  0.57890641 -0.49882633
  C -0.61951681  0.53094154 -0.16027179
  H -0.98284678  1.41143368  0.36663090
  H -1.24723648  0.42739238 -1.07724444
  H -1.07614594 -1.65376946 -1.13238967
