12
opt_min/./Reactant_9507_0_opt.xyz
  C -1.87060600  0.61892800  0.15486500
  C -0.52173613 -0.00413309  0.14625375
  C -0.14461361 -1.27045038 -0.15775128
  H -0.69108281 -2.13613196 -0.47049721
  O  1.21075542 -1.36589895 -0.01274625
  C  1.57879087 -0.14498727  0.37292271
  O  2.87052524  0.08259844  0.59738355
  H  2.97163606  1.00812108  0.86406233
  N  0.61239752  0.70756164  0.48324338
  H -2.46454539  0.22883615  0.98195214
  H -1.76592368  1.69330057  0.27333661
  H -2.39448859  0.40429983 -0.77535851
