14
opt_min/./Product_269_0_opt.xyz
  C -0.39386739  1.39446860 -0.26410831
  C -0.07297461 -0.06489568  0.04164673
  C  1.31528440 -0.23401891  0.63888658
  H  2.06544897  0.10746284 -0.07187209
  H  1.40343193  0.35250326  1.55203745
  H  1.50445209 -1.27800575  0.87687753
  C -0.42693283 -1.01787111 -1.07768310
  H -0.15789119 -1.28643936 -2.07194266
  O -1.39446829 -1.57532038 -0.34795585
  C -1.19167212 -0.81782199  0.72867521
  H -1.75868514 -0.84529530  1.62922555
  H -0.30942883  1.99060982  0.64242158
  H -1.40413663  1.49061333 -0.65406375
  H  0.30574227  1.77560780 -1.00504793
