7
opt_min/./Product_1759_0_opt.xyz
  C -0.84524952 -0.06519385 -0.02903198
  N  3.11899725  12.10103693 -14.01032891
  N -2.87036920  5.62641442 -2.60835228
  N  1.34675738 -1.41980121 -2.09392709
  H  15.64607838  5.19229235  22.10251590
  H -16.06146745 -1.44505227 -8.51614335
  H  14.00899259  0.43850221 -2.37092933
