15
opt_min/./Product_8923_0_opt.xyz
  C  2.10396900  0.16847900  0.14564300
  O  1.15114342  0.67041729 -0.76460143
  C -0.03571065 -0.05620023 -0.83878018
  C -0.90793504  0.01165704  0.45809950
  O -1.16751211  1.32482735  0.85669201
  H -1.90240301  1.68826345  0.34772831
  C -2.13702936 -0.81790127  0.21758831
  O -2.14502505 -1.98216938 -0.06530448
  H -3.08558867 -0.23956308  0.32487840
  H -0.33896653 -0.44995695  1.27796294
  H -0.59208017  0.40247472 -1.66098319
  H  0.15265590 -1.11784686 -1.05205508
  H  3.02418383  0.71201030 -0.05533884
  H  2.26925508 -0.90424124 -0.01731417
  H  1.79599523  0.33448484  1.18158769
