16
opt_min/./Product_11127_0_opt.xyz
  C  1.36586700 -0.99946700  0.20280300
  H  1.60106224 -1.36624248  1.19295598
  H  1.63612297 -1.68360752 -0.59175115
  C  0.11377690 -0.14317784  0.01487993
  C -0.96397060  0.15528695  1.04995007
  H -0.80581818  1.05463162  1.64337857
  H -1.15186237 -0.68470627  1.71872020
  C -1.98055501  0.27722742 -0.09738972
  H -2.26722747  1.30761483 -0.29317186
  H -2.87960869 -0.32816893 -0.00023345
  C -0.93018741 -0.24847458 -1.08936329
  H -1.10473796 -1.27724496 -1.40380711
  H -0.74404843  0.36968577 -1.96592177
  C  1.43518260  0.44895734 -0.06909129
  N  2.07275477  1.49758566 -0.27085736
  H  3.09055518  1.39740218 -0.23267603
