10
opt_min/./Reactant_5553_0_opt.xyz
  O  2.22530100 -0.31823600 -0.37055300
  C  0.89786012 -0.23373684 -0.19437684
  N  0.14268116 -1.29930608  0.00592815
  N -1.10654382 -0.82857156  0.13345310
  H -1.86130501 -1.47409727  0.29259319
  C -1.15608092  0.51270055  0.01597983
  H -2.08242572  1.04441928  0.09465009
  C  0.12764662  0.94744224 -0.19706384
  H  0.48722882  1.94378306 -0.33708078
  H  2.48908674 -1.24087324 -0.27422047
