11
opt_min/./Product_2741_0_opt.xyz
  C -1.51861100  0.21583200  0.94045700
  H -2.54810647 -0.15296851  1.05832595
  N -1.28799979  1.03943856 -0.13382862
  H -2.06346524  1.26439833 -0.76769483
  C -0.63995414 -0.31336121 -0.21580983
  C  0.73198263 -0.39481742 -0.19872108
  O  1.72233807 -1.16480832 -0.66733874
  C  2.06948015  0.00414420  0.11626619
  H  2.55306729  0.79756206 -0.43838358
  H  2.48334881 -0.20549436  1.09366504
  H -1.11037982 -1.06606000 -0.84745960
