12
opt_min/./Product_7797_0_opt.xyz
  C -1.74274500 -0.16577400 -0.14695500
  C -0.27117017 -0.04985253 -0.04477454
  C  0.68919395 -0.98329267 -0.02711503
  H  0.61245790 -2.04787531 -0.09252094
  C  2.00370536 -0.26487468  0.09602993
  O  3.10286166 -0.72594105  0.18110169
  N  1.70889992  1.14340988  0.17967210
  C  0.44931091  1.25066640  0.08657371
  H -0.04136761  2.20990235  0.11192075
  H -2.01333666 -0.85854018 -0.94224704
  H -2.19979433  0.79770268 -0.35431989
  H -2.15506011 -0.55704220  0.78153748
