13
opt_min/./Product_5998_0_opt.xyz
  C -0.45565800 -0.78066600  1.99196400
  N -0.31846851 -0.06537735  0.78098810
  C -0.59721534  1.15427019  0.08995985
  H -0.08167499  2.05790524  0.41200468
  H -1.61358182  1.32925047 -0.25492989
  C  0.18597173  0.02415538 -0.46562461
  C  0.89605942 -0.55008109 -1.41293006
  O  1.15919307  0.00718602 -2.65080559
  H  0.73451853  0.87179240 -2.68962078
  H  1.32623057 -1.53036078 -1.30215977
  H  0.29606723 -0.48518973  2.73912382
  H -1.44774529 -0.60591339  2.41617073
  H -0.34339994 -1.84699955  1.79256452
