12
opt_min/./Product_5674_0_opt.xyz
  N  2.01622900  0.51993500  0.23423900
  C  1.50106870 -0.65214711  0.47479029
  C  0.05897989 -0.78964920  0.11034482
  H -0.11294724 -1.77170231 -0.32911211
  C -0.75447293  0.33174676 -0.49571098
  H -0.56533705  1.12887597 -1.19223364
  N -1.45622373  0.41736772  0.64755796
  H -2.18790011  1.05738841  0.93954447
  C -0.80766716 -0.54575782  1.34298860
  H -1.27598324 -1.23881211  2.01613472
  H  1.51781818  1.30819661 -0.18410874
  H  2.97114153  0.70062817  0.50612715
