10
opt_min/./Product_11073_1_opt.xyz
  C -2.02168100 -0.20930800  0.06213900
  C -1.00172197 -1.02828385 -0.21980034
  H -0.88802240 -2.08838849 -0.21081447
  C  0.03370548 -0.00813139 -0.14876712
  N  1.38591533 -0.27405532 -0.10054952
  H  1.67982343 -1.07472367 -0.64488112
  H  1.82516648 -0.24872799  0.81167177
  C -0.60460081  1.24039132 -0.03702381
  H -0.16400580  2.21531601  0.04994832
  N -1.94368872  1.06574374 -0.06930842
