14
opt_min/./Product_1854_0_opt.xyz
  C -1.86137200 -0.16673900  0.44938700
  H -2.15394569 -1.04673246  1.02397676
  H -2.74733258  0.43880159  0.24548021
  O -1.17055300 -0.50679539 -0.75246339
  C  0.00226269  0.21644375 -0.36167611
  C  1.23562185 -0.62960108 -0.24445554
  C  2.40541631 -0.14077293  0.12647099
  H  2.53200584  0.90725105  0.34245278
  H  3.27302741 -0.76889550  0.22513033
  H  1.10152841 -1.67785327 -0.46266818
  H  0.20142127  1.05567023 -1.03768683
  C -0.65310475  0.61815395  0.98095222
  H -0.81109627  1.67896056  1.12872486
  H -0.17531969  0.17979288  1.85006333
