19
opt_min/./Product_11860_0_opt.xyz
  C  2.96522300 -0.18221300 -0.42258000
  C  1.62432565 -0.55785255  0.11881109
  C  0.72254738  0.30938891  0.55001350
  C -0.62635348 -0.06494043  1.07732927
  C -1.76717136  0.57056118  0.26352176
  C -1.79153257  0.01122622 -1.15915731
  H -2.58098619  0.48537948 -1.73506128
  H -0.84205687  0.19201682 -1.65533163
  H -1.96783779 -1.06243362 -1.14325954
  O -3.01196664  0.39452577  0.90427956
  H -3.16887356 -0.54603758  1.04038808
  H -1.63239660  1.65600244  0.22322163
  H -0.71602054  0.28478843  2.11192322
  H -0.73775029 -1.15187267  1.07477894
  H  0.94043232  1.36861764  0.53612863
  H  1.40264757 -1.61656829  0.13678731
  H  2.98689052 -0.37640905 -1.49559866
  H  3.18304236  0.86638757 -0.24930404
  H  3.74626424 -0.78716786  0.03325304
