17
opt_min/./Product_10385_0_opt.xyz
  C -1.87360700 -0.24939000  0.50426300
  C -0.90196327  0.23138525 -0.56572096
  H -1.41718148  0.32342658 -1.52390570
  C  0.33083418 -0.67534266 -0.65797149
  H  0.12399913 -1.72470771 -0.46465709
  H  0.79012626 -0.58855438 -1.64748571
  C  1.24064873 -0.08027982  0.38546326
  C  2.17272757 -0.66795779  1.11872049
  H  2.45921008 -1.68876445  0.97009608
  H  2.66028799 -0.10132014  1.88804144
  O  0.88691521  1.22163825  0.61740601
  C -0.23910676  1.55844250 -0.17223109
  H  0.09317971  2.10900945 -1.06217118
  H -0.89029958  2.20398883  0.42147319
  H -2.72268670  0.42665468  0.57939961
  H -1.37666159 -0.28986875  1.47143048
  H -2.24485114 -1.24293073  0.26412313
