10
opt_min/./Product_1806_0_opt.xyz
  O  2.16576700 -0.23087600  0.60891300
  C  0.86317439 -0.25319199  0.23162479
  C  0.11261087 -1.18565894 -0.48094189
  C -1.21259750 -0.49784474 -0.49078190
  H -1.97968803 -1.11165342 -0.01217882
  H -1.56988609 -0.32180015 -1.50743992
  N -1.13048336  0.76073179  0.20137752
  N  0.09506163  0.81748448  0.58163954
  H  0.42365591  1.62586312  1.10353403
  H  2.58239320 -1.04318267  0.30030040
