10
opt_min/./Product_6313_0_opt.xyz
  C  2.65067800  0.07000700  0.02671800
  O  1.64200488 -0.71362156  0.24462847
  C  0.40314117 -0.30347711  0.63412269
  N -0.42555385  0.13645482 -0.19262853
  C -1.77829487  0.39002620  0.18822051
  H -1.92622689  0.44184648  1.27475963
  H -2.40120444 -0.41324762 -0.21459339
  H -2.08785708  1.32250757 -0.28138229
  H  0.21718004 -0.51406891  1.69965472
  H  3.47803571 -0.61056201 -0.28375858
