9
opt_min/./Product_16_0_opt.xyz
  O -1.16949600 -1.49607700  0.14698000
  C -1.16641048 -0.15295807  0.10708007
  N  0.06603712  0.40031756 -0.14961051
  C  1.21452266  0.03442772 -0.25135456
  N  2.33172486 -0.22736655 -0.59500743
  H  3.21157662 -0.10442418 -0.14326184
  N -2.23114621  0.49222314  0.28077336
  H -2.14611265  1.49856386  0.22768134
  H -2.07863419 -1.78871926  0.30724021
