12
opt_min/./Product_6104_0_opt.xyz
  C  0.12514400  0.89422100 -0.47679800
  H  0.61904465  1.79317414 -0.09528424
  H  0.17819380  0.88146657 -1.57351321
  O -1.22017069  0.91750440 -0.04676611
  C -1.55919057 -0.37832754  0.45793839
  H -2.33825101 -0.82696188 -0.17389531
  H -2.00844000 -0.28103552  1.45460524
  C -0.41437929 -1.27509362  0.50181471
  C  0.73251592 -0.41703948  0.09497321
  O  1.66134106 -1.05374416 -0.73037843
  H  2.50020766 -0.58303221 -0.70327606
  H  1.17459863 -0.20712098  1.09166570
