12
opt_min/./Product_9510_0_opt.xyz
  C -2.25596216  0.51747046  0.20345444
  N -4.44749439  4.26046842 -20.23787946
  C -29.00847347  33.79151033  19.05871849
  C  8.32121667  38.44438052  0.05804966
  O  6.74150062 -21.53565208 -1.74004455
  C  4.59693049  2.58117846  18.55415760
  O -11.26925352  3.59666400  3.57947839
  H -16.64997968  4.11861175 -22.08159720
  H  6.36584097 -22.30200846 -11.83181171
  H -1.34933230  9.43653848  15.57488038
  H -0.77175658  5.94483530  6.34120813
  H -14.92025100  6.84524623  1.98329610
