11
opt_min/./Product_896_0_opt.xyz
  N  2.80093900  0.35551401  0.30088198
  C  1.58679823  0.16968015  0.17302955
  C  0.66322728 -0.95635422  0.04281438
  H  0.75469750 -2.01570068  0.01591887
  C -0.32122508 -0.03783497 -0.02357248
  C -1.78167346  0.00211956 -0.17327552
  H -2.05270079  0.42727891 -1.13956165
  H -2.22711862  0.63248161  0.59397411
  H -2.17370010 -1.00857067 -0.09942340
  O  0.48826523  1.10020761  0.09560615
  H  3.09955202  1.32329620  0.36373292
