15
opt_min/./Product_11081_0_opt.xyz
  C  2.49120800 -0.47004600 -0.26880900
  C  1.19669125 -0.15598843 -0.16444249
  C  0.13719820 -0.90084863  0.49163853
  H  0.29718802 -1.83313698  0.99813225
  C -1.02532503 -0.24185298  0.36638627
  N -2.26498743 -0.56151775  0.85021562
  H -2.42004636 -1.49273368  1.19064488
  H -3.06443772 -0.05303278  0.52129940
  C -0.81067244  1.03603776 -0.40533932
  H -1.08234754  1.91370723  0.20382058
  H -1.41800615  1.06958547 -1.32378582
  N  0.59262695  0.97355688 -0.68372528
  H  1.08575717  1.67807939 -1.20006687
  H  3.18950169  0.16346640 -0.78484412
  H  2.87393067 -1.37294203  0.16662323
