12
opt_min/./Product_2660_0_opt.xyz
  C -1.74085600 -1.20109000 -0.29825800
  N -0.72566808 -0.48191496  0.06099266
  C  0.51545895 -0.27110411  0.42651231
  N  1.73042379 -0.92151558  0.51915863
  H  2.21522673 -1.06652090 -0.36693058
  H  2.35181638 -0.49662784  1.19607494
  C -0.32411678  0.90434905  0.22406159
  O -0.34105975  1.66294699 -0.96647239
  H  0.47234273  2.17387089 -1.03555489
  H -0.73661929  1.47552029  1.05972525
  H -2.66656755 -0.71816439 -0.53727880
  H -1.64024103 -2.26863596 -0.33586434
