11
opt_min/./Product_2066_0_opt.xyz
  C  1.74136901  0.30942573 -0.07810444
  C  9.40167685 -8.26631217 -6.66970975
  C -9.24339075 -9.43988362 -15.80291486
  N -20.60103405 -3.39520891 -0.41633566
  C -18.37253008 -0.95253263  10.79615243
  O  7.52841436  18.25028996 -7.43880163
  H -18.88672554 -26.81420106  18.41506644
  H -14.97799290  8.77126908  6.70099955
  H  7.42645292  20.72592509 -3.78635694
  H -0.72219396 -13.26538833  21.07065686
  H -5.51614834 -18.87205769  18.83787851
