16
opt_min/./Product_11375_0_opt.xyz
  C -1.54231968 -1.65941500 -0.05738671
  C -3.88689347 -10.55258779 -3.95179796
  C  17.52478662 -5.57042021  37.79913034
  H  43.41073641  3.20808569 -1.81394095
  H -12.28567031 -9.95743806  1.74525926
  H -1.18865220  11.11770459  14.06387496
  C -3.23714782 -5.63258131  4.20434141
  N -10.73289494  25.08833607 -16.21537939
  C  4.32878923  14.18016073 -30.26552035
  O -0.51239425 -4.68219372 -31.06518015
  H -11.34875499  3.40335614 -22.06951607
  H  10.09962000 -0.91477011  11.58246416
  H  17.57156480 -21.35602376 -17.90692814
  H -6.03485165 -5.97935442  1.07665004
  H  0.92264606  14.63173382  13.21705167
  H  8.61087867 -43.86551582  15.00176978
