8
opt_min/./Product_1014_0_opt.xyz
  N  1.80898293 -0.01690600 -0.49472252
  C  0.77306315 -0.33258173  0.01609824
  C -0.43595068 -0.73737880  0.54979578
  H -0.51923640 -1.54446921  1.26220761
  C -1.20646434  0.52386020  0.63519112
  H -0.79811519  1.42905941  0.16682415
  O -1.49095016 -0.46557673 -0.33954282
  H  2.31066837  0.85889867 -0.41911872
