13
opt_min/./Product_9685_0_opt.xyz
  C -1.47749100 -0.86516500  0.53278100
  C -0.58651613  0.09540872 -0.21596755
  N  0.81340772 -0.14857534 -0.07666772
  C  1.67615618  0.84764666  0.03236116
  O  2.92996989  0.49885569  0.07914131
  H  3.11440794 -0.46632510  0.01204422
  H  1.10334799 -1.13604246 -0.14240882
  N -1.04540282  0.63080150 -1.53798808
  C -0.98709718  1.43843748 -0.57353892
  H -1.14745515  2.45634841 -0.31651363
  H -1.45023846 -1.85078465  0.06826465
  H -1.14755561 -0.95219723  1.56676643
  H -2.50460535 -0.51055694  0.51899721
