11
opt_min/./Product_4217_0_opt.xyz
  O  1.78441238  1.68726739 -0.32982059
  C  6.53128700 -4.64449663 -3.98532532
  N -2.35336087 -22.54401558 -11.30711517
  C -20.73634146 -19.98595853 -9.23186543
  C  0.77243409 -5.33940806 -10.72607388
  C -9.15639681  0.93183801 -7.05126749
  H  6.66049783 -0.88606181 -16.69002997
  H -12.13467666 -5.90650030 -3.54033625
  H -8.38955280  20.05400767  1.02436479
  H  8.32372633 -0.04487038 -2.54717645
  H -16.92867601 -24.69679762  2.92443463
