9
opt_min/./Product_6320_0_opt.xyz
  O  2.31654300 -0.29352700 -0.13281000
  C  0.99597703 -0.18823117 -0.06404585
  N  0.20648752 -0.81378012  0.74597357
  C -1.04617294 -0.35997656  0.41379012
  H -1.92518111 -0.70197997  0.91836549
  C -0.93161820  0.53646322 -0.59240235
  H -1.64414013  1.11885393 -1.13810885
  O  0.39089660  0.65159243 -0.90710847
  H  2.61396856 -0.92275174  0.53860854
