12
opt_min/./Reactant_4512_0_opt.xyz
  O  1.45234300  1.10139500 -0.31536700
  C  1.02749803 -0.07993069  0.26685521
  H  1.80226527 -0.60934668  0.82103681
  C -0.35628136 -0.16579783  0.85411607
  H -0.58534646 -0.46869740  1.85644105
  C -1.27116420  0.59506923 -0.09964720
  H -1.04055910  1.64808693 -0.25839090
  H -2.33499761  0.45477657  0.09959653
  O -0.86547239 -0.22476988 -1.20723464
  C -0.00357406 -0.97390851 -0.37376728
  H  0.11809230 -2.03044971 -0.54431842
  H  1.79969594  0.92218423 -1.19755001
