15
opt_min/./Product_9051_0_opt.xyz
  N  1.36499594  0.01049805 -1.07300405
  H  1.07322397 -0.53233066 -1.89154968
  H  2.25789369  0.48001498 -1.19799125
  C  1.10441948 -0.63231083  0.23573892
  C  2.14663675 -0.57076042  1.20252095
  N  2.98459875 -0.51125181  1.98129975
  H  0.69170126 -1.64264200  0.13670215
  C  0.37133378  0.63619484 -0.13221188
  C -1.04685226  0.36258653 -0.58979992
  C -1.95484983  0.20711269  0.62776785
  H -1.71596621  0.97763638  1.35694791
  H -3.00367935  0.29897701  0.35285983
  H -1.80581204 -0.76456637  1.09600153
  H -1.12925384 -0.54348565 -1.22145275
  H -1.38547608  1.21296144 -1.18840888
