14
opt_min/./Product_10982_0_opt.xyz
  O  2.74046200 -0.62963400  0.72130300
  C  1.78747092 -0.48978585  0.01217006
  C  0.89815485  0.72921098 -0.01150215
  C -0.54158928  0.34144754  0.06311630
  C -1.25491985 -0.77192402  0.71630479
  H -2.14054653 -0.55421346  1.30706501
  H -0.69063134 -1.62899743  1.04977476
  N -1.31474088 -0.59653000 -0.73258302
  C -1.73198630  0.80034047 -0.67682274
  H -2.63286170  1.05434776 -0.12775172
  H -1.59327382  1.34625220 -1.59702386
  H  1.08051788  1.24775541 -0.95884048
  H  1.15265809  1.40084319  0.81201878
  H  1.47042698 -1.26415539 -0.71306570
