14
opt_min/./Reactant_10982_0_opt.xyz
  O  2.23678900 -1.09180200 -0.78946300
  C  1.71442974 -0.19249102 -0.19315064
  C  0.24738739 -0.01364962 -0.02325984
  C -0.92303297 -0.85617606 -0.54683034
  H -1.05663225 -1.84784245 -0.11923226
  H -1.11776312 -0.85635974 -1.61577619
  N -1.61973618  0.23735013  0.22015993
  C -0.57130231  0.03230454  1.27913562
  H -0.67369568 -0.89780096  1.83408358
  H -0.43303586  0.88346900  1.94211298
  C -0.63811659  1.17996386 -0.41839945
  H -0.50268959  2.11935378  0.11460765
  H -0.80204770  1.34517708 -1.48129148
  H  2.30631161  0.60695321  0.30090518
