13
opt_min/./Product_3639_0_opt.xyz
  O -0.24784800  2.13140700 -0.59454800
  N -0.28307794  0.77971438 -0.31748586
  C  0.68160855 -0.10375911  0.09350667
  C  1.97282281  0.00680666  0.35995836
  H  2.49535721  0.93934327  0.26023815
  H  2.53156620 -0.85500498  0.67509276
  C -0.35665006 -1.21355317  0.11752283
  H -0.55154063 -1.59942047  1.11358510
  H -0.17093077 -2.02933533 -0.57131861
  C -1.37662263 -0.15962919 -0.36049680
  H -2.19882515  0.06218378  0.32608514
  H -1.78352612 -0.31826131 -1.36288708
  H -0.38040971  2.63362329  0.22742609
