15
opt_min/./Product_11154_0_opt.xyz
  C -1.77828200 -0.89625500  0.43314000
  C -0.83833887 -0.29417671 -0.60852077
  C  0.00103612  0.81899950  0.00567182
  C  1.32841857  0.61353314  0.11676503
  C  2.51723321 -0.17058120 -0.12375426
  H  2.97297714 -0.18889801 -1.10464399
  H  2.78357192 -0.97655131  0.54707138
  O  2.46909305  1.14030799  0.49287245
  C -0.47813990  2.06389987  0.47789248
  H -1.54383251  2.17897968  0.20649963
  H -0.19079819 -1.07096999 -1.02037708
  H -1.42528992  0.13360668 -1.42482615
  H -2.32806282 -0.10653267  0.94297731
  H -2.49506158 -1.56805123 -0.03165733
  H -1.21184664 -1.44725521  1.18152647
