9
opt_min/./Product_4706_0_opt.xyz
  C -0.90972200  0.30807100  0.61218700
  C -0.07330051 -0.61582118 -0.21202012
  O -0.37991348 -1.73066979 -0.55007644
  C  1.28636647 -0.04166284 -0.62721032
  O  1.63871640  1.08126982 -0.40439935
  H  1.91923786 -0.76970751 -1.16919580
  H -1.95816482  0.02938747  0.54879332
  H -0.59087426  0.21772717  1.65099160
  H -0.75079281  1.33772856  0.30427558
