12
opt_min/./Product_876_0_opt.xyz
  C -0.82025800  0.71671300 -0.33880700
  H -0.71199412  1.07958601 -1.36037836
  H -1.63521182  1.24042044  0.15563625
  C -0.88767223 -0.80467277 -0.12138111
  H -1.78733932 -1.15969208  0.37651976
  H -0.69185623 -1.41691328 -1.00425642
  N  0.26339470 -0.76343990  0.81626460
  C  1.40035177 -0.31313680  0.03525163
  H  2.34165890 -0.38302011  0.55996095
  H  1.43902843 -0.54621025 -1.02171681
  C  0.42672667  0.67651094  0.52579690
  H  0.67747864  1.40833134  1.27960790
