17
opt_min/./Product_11517_0_opt.xyz
  C  3.09515900 -0.26492800  0.01462600
  C  1.69649102 -0.37257325 -0.47558023
  N  0.88831090  0.58048952 -0.36952345
  C -0.46522392  0.44335706 -0.81870387
  C -1.39623737  0.62474579  0.36319283
  H -1.16068746  1.50603467  0.95947426
  C -2.80051934  0.17519306  0.29470827
  H -3.56349381  0.72901055  0.83477047
  H -3.14964191 -0.29594784 -0.61775856
  N -1.81357416 -0.58850340  1.02866556
  H -1.89439609 -0.49953644  2.03858769
  H -0.65954997 -0.53653353 -1.28230932
  H -0.65443272  1.24379655 -1.54461966
  H  1.41640867 -1.34440203 -0.91234112
  H  3.18544943 -0.81917264  0.95168465
  H  3.35831763  0.77378969  0.20577042
  H  3.78780579 -0.70126976 -0.70341225
