15
opt_min/./Product_8837_0_opt.xyz
  C  1.50788400 -0.68005900 -0.29871400
  C  0.21872914 -0.02693630  0.11513285
  C -0.02746079  1.45490734 -0.14947749
  H  0.50557264  1.81894494 -1.03310954
  H  0.27484053  2.07221235  0.69645975
  C -1.51505993  1.62062584 -0.37039925
  N -2.02538601  0.41616506 -0.29218429
  H -3.02254540  0.25767656 -0.35061908
  C -1.12144257 -0.65549367  0.02396326
  H -1.35851625 -1.64391398 -0.34967248
  N -0.48894145 -0.45392171  1.31668149
  H -0.12573479 -1.30598314  1.73573411
  H  1.36479750 -1.73825740 -0.51488141
  H  2.24506032 -0.58800763  0.50176069
  H  1.91100105 -0.19464908 -1.18599427
