9
opt_min/./Product_213_0_opt.xyz
  O -0.38602589 -1.42679502 -0.10239410
  C -0.51110197 -0.15259058 -0.66519515
  C  0.35656988  0.94008409 -0.05085803
  O  0.33786424  2.08782547 -0.38644224
  N  1.14800923  0.49163256  0.98653701
  C  1.81365090  0.09383060  1.86197994
  H -1.54942640  0.20790793 -0.65531922
  H -0.20333883 -0.25153944 -1.70902754
  H -0.76735627 -1.44220314  0.78090591
