8
opt_min/./Product_5448_0_opt.xyz
  N  0.10203000  0.96523600 -0.26032600
  H  0.13163047  1.59182596  0.53586632
  C  0.70338688 -0.32770953 -0.03200646
  H  1.15109092 -0.52943172  0.93112113
  H  1.21809010 -0.74081858 -0.88285369
  C -0.76577975 -0.17494601 -0.09802226
  H -1.34633050 -0.29444867  0.80759679
  H -1.27194753 -0.46516449 -1.00660343
