11
opt_min/./Reactant_1565_0_opt.xyz
  C -1.58333700  0.39729800  0.04435600
  C -0.27956254 -0.38450551 -0.07088447
  O  0.81598424  0.51261687  0.17171546
  C  2.02441136  0.00197497  0.07306674
  O  2.30956463 -1.12922451 -0.18886810
  H  2.76895227  0.79223511  0.27731462
  H -0.15122423 -0.82147500 -1.06682991
  H -0.22198509 -1.19985161  0.65708958
  H -1.35692527  1.46007589  0.03397936
  H -2.24460132  0.17875644 -0.78774861
  H -2.10003101  0.16639908  0.97088534
