15
opt_min/./Product_6349_0_opt.xyz
  C  2.37717000 -0.24010900 -0.13092500
  C  0.90460829 -0.59824184 -0.06897179
  O  0.17903957  0.60537668  0.17022940
  C -1.17314566  0.59471295 -0.07300955
  O -1.64096492  1.88024524 -0.10182214
  H -1.52043084  2.29663779  0.75967868
  C -2.06502140 -0.49760266  0.36255621
  H -1.66510434 -1.39893491  0.80658331
  H -3.09314719 -0.25862667  0.60448145
  O -1.70813336 -0.26205512 -0.99319118
  H  0.56220971 -1.03656469 -1.01399090
  H  0.70910460 -1.31296941  0.74085952
  H  2.97958146 -1.14266701 -0.18644700
  H  2.57671325  0.38674797 -0.99520877
  H  2.65465463  0.31452405  0.76284304
