14
opt_min/./Product_9995_0_opt.xyz
  O  0.90567300 -1.13391900  1.24481200
  C  0.58480894 -0.39673049  0.10618100
  C -0.83104232 -0.62321581 -0.36426497
  H -0.96567038 -1.33572538 -1.16835691
  C -1.86402185  0.39819042 -0.17769418
  H -1.60339477  1.34638112  0.27344248
  H -2.71290945  0.42704919 -0.84860362
  O -1.78545920 -0.71520672  0.65570517
  C  1.28966171  0.89613517 -0.10482829
  H  0.81770027  1.70525525 -0.64208912
  H  2.00568180  1.19708215  0.64771215
  N  1.56845887 -0.27809256 -0.91252386
  H  2.44094811 -0.75098209 -0.72178380
  H  0.15459013 -1.10913586  1.84858185
