14
opt_min/./Product_7294_0_opt.xyz
  O  2.07850200 -0.40881800  0.86020300
  C  1.58541373 -0.08462232 -0.43695487
  H  2.39669890 -0.04760819 -1.16930284
  C  0.47290494 -1.04008010 -0.82950078
  H  0.06455415 -0.76099808 -1.80775129
  N -0.57645715 -0.63742271  0.22768344
  H -1.47738497 -1.02849961 -0.03962894
  H -0.27319070 -1.05589547  1.10838890
  C -0.54978014  0.83484141  0.31227743
  H -0.53967073  1.22472032  1.33311302
  H -1.39806065  1.26084419 -0.22138398
  C  0.77757197  1.17717917 -0.40477563
  O  0.96124322  2.20056649 -1.01836566
  H  2.35660798 -1.33197036  0.82942219
