12
opt_min/./Product_4774_0_opt.xyz
  C -1.35782700 -0.46116200 -0.35288300
  C -0.11863499 -0.28677620  0.49546366
  H -0.06861960 -0.95875215  1.34295980
  C  0.45309001  1.12077329  0.70952010
  H -0.03531908  1.93317143  0.19506310
  H  0.85771440  1.37933204  1.67433777
  C  1.15733042  0.14359607 -0.10776638
  N  2.15851960 -0.06808430 -0.81038635
  H  2.21603567 -0.99707236 -1.22626580
  H -1.23432918  0.02111146 -1.31931957
  H -1.56896685 -1.51426781 -0.51984178
  H -2.22199967 -0.01997549  0.14066657
