17
opt_min/./Product_11518_0_opt.xyz
  C -1.91576800  0.82874900  0.73971200
  C -1.67725764 -0.63198935  0.45144055
  H -2.21345124 -1.31103744  1.11458309
  N -1.50427783 -1.01237646 -0.92482270
  H -1.90718022 -1.90496588 -1.19002291
  C -0.35025222 -1.11212298 -0.05499995
  C  0.75012410 -0.16538943 -0.28394633
  N  1.80607862 -0.24717731  0.39561051
  C  2.89158038  0.65532123  0.14316053
  H  2.55823331  1.64893272 -0.17916470
  H  3.53158487  0.24072269 -0.63863497
  H  3.47936884  0.74131192  1.05625932
  H  0.58170627  0.59651852 -1.05795382
  H -0.01182210 -2.08361090  0.29718824
  H -1.59528675  1.42674619 -0.10957491
  H -2.97411781  1.00981212  0.91884981
  H -1.35440451  1.13540389  1.62060893
