19
opt_min/./Product_10819_0_opt.xyz
  C  2.33252900 -0.62322200 -0.21393400
  C  1.22534875  0.16971321  0.45124386
  C -0.02502906  0.47108562 -0.28506924
  C  0.91563307  1.58083675 -0.02139789
  H  1.48528843  1.97370874 -0.85255472
  H  0.64955125  2.32212123  0.71875197
  C -0.75524521 -0.08588881 -1.44582198
  H -0.58269192 -1.12018666 -1.71049222
  H -0.96115851  0.55297216 -2.29294919
  C -1.46914392  0.19579282 -0.13624314
  C -1.93665127 -0.96359951  0.70901084
  H -1.18024001 -1.74533871  0.72856804
  H -2.85815443 -1.38306539  0.30442003
  H -2.13011727 -0.64073287  1.73100928
  H -2.14362627  1.04652811 -0.12837688
  H  1.12587103  0.00049605  1.51778692
  H  3.04239844  0.03869302 -0.70852645
  H  1.92875036 -1.30060522 -0.96547800
  H  2.87699119 -1.21289783  0.52008338
