10
opt_min/./Product_5176_0_opt.xyz
  N  2.18105400  0.23533000  0.11563900
  C  1.18856282 -0.62486824  0.13577321
  N  0.76779980 -1.82881112  0.19731983
  N -0.15058319 -0.61624229  0.20071773
  C -1.35413509 -0.06710814  0.24488871
  N -1.46259686  1.20184547  0.19231163
  H -2.42022984  1.53328267  0.23220727
  H -2.16276795 -0.80072630  0.32390151
  H  1.96565143  1.21224242 -0.01041575
  H  3.12399903 -0.08522988 -0.03176069
