19
opt_min/./Product_10394_0_opt.xyz
  C -1.43452500 -0.54662800  0.06322300
  C -0.00671443 -0.57920602 -0.45839022
  H  0.24776771 -1.60103457 -0.74435210
  C  0.31575065  0.47062924 -1.54428875
  H -0.52407451  1.10295048 -1.82854964
  H  0.76614922  0.07228237 -2.45115469
  C  1.29470770  1.10739002 -0.59612136
  C  2.06230240  2.17436384 -0.66587893
  H  2.08697984  2.80050840 -1.54234710
  H  2.70030166  2.46432162  0.15273557
  C  1.04685921  0.07401797  0.46939450
  H  0.65549387  0.46486354  1.40634586
  H  1.91041807 -0.54936074  0.69310154
  C -1.64485058 -1.54520384  1.19661958
  H -1.57443525 -2.56466332  0.82197979
  H -0.89323575 -1.40911415  1.96854629
  H -2.62859568 -1.42258211  1.64283192
  H -2.12230346 -0.77113546 -0.75541835
  H -1.67191436  0.46120318  0.41511674
