13
opt_min/./Product_6173_0_opt.xyz
  C -0.61346769 -0.30859405 -1.30900313
  C  0.22116450  0.56967192 -0.41129431
  H  0.79461445  1.31973812 -0.93477061
  C -0.28970577  0.91747471  0.95453319
  H -0.08235607  1.89776175  1.35406768
  H -1.24171384  0.52297644  1.26821450
  C  0.87668792 -0.02510466  0.81762069
  N  0.70555007 -1.35772761  1.10526722
  C  0.55818049 -2.48591872  1.35857880
  H  1.86039765  0.32374731  1.10569538
  H  0.00323354 -0.76455159 -2.07840118
  H -1.38114260  0.28243936 -1.80204827
  H -1.09726806 -1.09277441 -0.73504646
