11
opt_min/./Product_3137_0_opt.xyz
  C  0.19701800  0.31157500  0.98060300
  H  0.16813683  0.41273055  2.04158877
  C -0.86387261  0.44281001 -0.11129934
  H -1.67417389  1.15305208 -0.03471959
  C -0.95613480 -0.87541611 -0.77983449
  H -1.82533247 -1.29609413 -1.24907205
  N  0.16862223 -1.46591670 -0.70478530
  C  0.99066960 -0.52756183 -0.00574970
  H  2.02115041 -0.79304145  0.17958759
  C  0.57714763  0.91230989 -0.26899359
  H  1.07088833  1.76155599 -0.68607796
