14
opt_min/./Product_4325_0_opt.xyz
  C -0.38041500  1.52641900  0.24678200
  C -0.29603744  0.03695672  0.54296455
  C  1.05215741 -0.55139590  0.10968707
  O  2.06905960  0.09419011  0.83582257
  H  2.91805134 -0.29745535  0.60365508
  H  1.18184740 -0.39853620 -0.97205038
  H  1.04194370 -1.63185883  0.31143307
  O -1.32189249 -0.63745822 -0.20091519
  C -1.96667455 -1.57401528  0.42387478
  H -2.69120359 -1.96159286 -0.32888280
  H -0.43495198 -0.15999284  1.61264145
  H -1.30607789  1.93689899  0.64236903
  H -0.35345876  1.69178994 -0.82765039
  H  0.46323551  2.02584821  0.71181804
