13
opt_min/./Product_7856_0_opt.xyz
  N -1.61382000 -1.41219600 -0.21921700
  C -0.69213053 -0.33669330 -0.12382160
  O  0.51798751 -0.78399662 -0.66678000
  C  1.67528888 -0.13418988 -0.54479409
  N  1.91112338  0.81836759  0.23975142
  H  2.85678085  1.17561282  0.19133901
  H  2.39486769 -0.60950216 -1.22822076
  C -0.82484543  0.72853187  0.88033974
  H  0.04459884  1.25152590  1.24893943
  H -1.69303303  0.72606938  1.52790715
  O -1.12796279  0.91873180 -0.49420403
  H -1.76014416 -1.88988144  0.65703356
  H -2.48948679 -1.12456291 -0.62860226
