14
opt_min/./Reactant_3352_0_opt.xyz
  O  2.22052000 -0.95196600  0.18404900
  C  1.02110594 -0.69532645 -0.50465324
  C  0.28775971  0.52070089  0.02379250
  H  0.95228587  1.34290792  0.26422359
  C -1.07186534  0.88072624 -0.52967724
  H -1.49287082  0.21010623 -1.26801291
  H -1.28820688  1.92159083 -0.71947600
  C -0.95777849  0.40039676  0.87606883
  O -1.46267713 -0.82513039  1.28415092
  H -1.65065663 -1.36892581  0.50978341
  H -1.08115829  1.11337184  1.68296484
  H  0.42526811 -1.60082324 -0.37017964
  H  1.22556450 -0.55865992 -1.57949517
  H  2.76870937 -0.15870511  0.17671356
