13
opt_min/./Product_2832_0_opt.xyz
  C  1.29978800  0.80501100  0.48444500
  H  1.31349994  0.98623388  1.54814687
  H  1.43915156  1.70228508 -0.09908107
  C  1.87769284 -0.49011612 -0.04879683
  H  2.28734239 -1.20323168  0.64932213
  H  2.40065815 -0.45838687 -0.99347841
  C  0.43511172 -0.24727291 -0.04819190
  C -0.77518684 -0.66687080 -0.32060737
  C -2.01291117  0.13633872 -0.03188892
  H -2.81416130 -0.13494160 -0.71070409
  H -2.35336403 -0.04502180  0.98502420
  H -1.80945635  1.19804109 -0.13290032
  H -0.91384706 -1.64451096 -0.76427391
