19
opt_min/./Reactant_10188_0_opt.xyz
  C  2.14109900 -0.16480900 -0.44172100
  C  0.98972239 -0.25253857  0.55495736
  C -0.31127581  0.29912359  0.00754705
  C -0.37304394  1.81077519 -0.05813929
  H  0.52321395  2.20576492 -0.53085606
  H -1.23517277  2.14187932 -0.62877240
  H -0.43438438  2.22095997  0.94760875
  C -1.03401540 -0.50203924 -1.04431446
  H -1.55567480  0.01666807 -1.83290588
  H -0.59953502 -1.44192435 -1.35066067
  C -1.58697894 -0.42445084  0.35066997
  O -1.57326276 -1.53495216  1.19239540
  H -1.81594826 -2.32376163  0.69446868
  H -2.47583509  0.18527453  0.50214081
  H  0.83846783 -1.29461776  0.84306300
  H  1.24543417  0.28989048  1.46704929
  H  2.38581443  0.87402743 -0.65648755
  H  1.87519736 -0.63991589 -1.38246809
  H  3.03120121 -0.64075056 -0.04267894
