10
opt_min/./Product_6533_0_opt.xyz
  O  1.22809200  2.09071700  0.03879400
  C  0.29165331  1.36409225  0.05578349
  N  0.61629501 -0.23062376  0.01768967
  N  1.77511762 -0.69831725 -0.01685395
  H  2.45903493  0.07043304 -0.03006862
  C -0.57864093 -0.80796091  0.04934335
  H -0.72097323 -1.86928062  0.02528505
  C -1.52784971  0.21743291  0.09506924
  H -2.59517173  0.08596123  0.12520231
  N -1.02355892  1.44253360  0.09723283
