12
opt_min/./Product_7037_1_opt.xyz
  C  0.10534009  0.70233616 -0.25597774
  C  0.37967312 -0.43298616  0.36766351
  C -1.03486550 -0.58194651  0.91486317
  H -1.12841610 -0.53819450  1.99672699
  H -1.58785916 -1.43641536  0.53185456
  C -1.34479610  0.77939344  0.17001338
  H -1.59601649  1.61083935  0.82279874
  H -2.07538804  0.70491333 -0.63098703
  C  1.80056017 -0.31198500 -0.17268952
  H  2.11037403 -1.04473811 -0.91325358
  H  2.58523158 -0.12010391  0.55435750
  O  1.37237942  0.93338044 -0.81565084
