17
opt_min/./Product_11921_0_opt.xyz
  C  1.16161900 -0.15044500  1.40961700
  C  0.83415655  0.97312948  0.44825892
  H  1.23122397  1.93424492  0.75372293
  C  0.79305555  0.78785448 -1.03796384
  H  1.28427655  1.48084116 -1.70179347
  C  0.29953227 -0.61751696 -1.38828976
  H  0.89635404 -1.44101150 -0.99766639
  H  0.13390636 -0.77270993 -2.45227648
  C -0.96661851 -0.30206589 -0.62068066
  C -2.06657952 -0.98539701 -0.37714299
  H -2.88675245 -0.55414454  0.17439394
  H -2.21516577 -1.98355439 -0.75370956
  C -0.49039057  1.05993623 -0.26575757
  H -1.09045245  1.95592863 -0.26686943
  H  1.95138380 -0.78605223  1.01253386
  H  0.28770735 -0.76720960  1.60714249
  H  1.50744946  0.25679789  2.35684275
