10
opt_min/./Product_7899_0_opt.xyz
  C -1.55652600 -0.28874000  0.07051300
  C -0.27342412  0.36913859 -0.15300745
  C  0.67626557  1.22998357  0.04816629
  H  1.16747098  2.02308295  0.55118144
  N  0.96906408  0.17300713 -0.90784669
  O  1.80341262 -0.86972345 -0.37965758
  H  1.76210649 -0.89962873  0.58995023
  H -1.82890080 -0.89141537 -0.79346919
  H -1.49634854 -0.94144698  0.94328846
  H -2.32422907  0.46082038  0.25594296
