9
opt_min/./Product_11146_1_opt.xyz
  C -0.40016500 -0.08801500 -0.57557000
  C  0.84508356  0.05498366 -0.32723210
  C  2.11230010  0.19782375 -0.08643572
  H  2.61669498  1.13895881 -0.24070206
  H  2.71528999 -0.61384209  0.28944553
  C -1.81338171 -0.07112032 -0.26073968
  H -2.33814039  0.87721223 -0.21643706
  H -2.23714716 -0.87775474  0.32783520
  O -1.30483155 -0.43621631 -1.53301008
