10
opt_min/./Product_2948_0_opt.xyz
  O -2.40772086  0.30138716  0.13750486
  C  13.38294169  88.09440269 -68.56872260
  C  3.85164670 -210.12940929  12.74682528
  C -104.33713658 -9.77282691 -64.39304072
  C -6.78046870  57.32198251 -24.59235340
  C  85.76838037 -111.63889927  96.67404625
  H  19.91631910  12.11626467 -14.71642221
  H  5.17329726 -179.16707767  4.18025757
  H  46.37734177 -205.82448881  13.69916621
  H  12.64792759 -90.19908789  71.59742447
