15
opt_min/./Product_9208_0_opt.xyz
  C  0.32520220  1.42280984  0.19753203
  C  1.01472710  2.60856291 -4.49904621
  C  32.40276155  1.37834273 -22.24590209
  C  6.91002749  7.52187946 -4.67969331
  H  15.79477845  3.19056215  2.16249983
  H  16.23383789  4.42231151 -0.10152402
  C -9.71683384 -15.23149846  3.89513697
  C -3.30460310 -13.05468061  9.49947041
  O  18.32768595  2.52208406  7.33299378
  H  11.95487155 -9.75623621  11.82600899
  H  3.46242716 -8.97953900  5.95579279
  H -30.72043409 -11.75116095 -15.25283110
  H -16.96702084  3.77973464 -3.28728108
  H -6.29920750  17.58407713 -18.24270273
  H  3.14741545 -13.28081878  18.43328895
