11
opt_min/./Product_1615_0_opt.xyz
  N  1.81608100 -0.61243200  0.02461300
  C  0.61328764 -0.01010752  0.20973235
  O  0.69587041  1.02117014  1.06968060
  H -0.15244101  1.47964742  1.12634849
  C -0.51579009 -0.39508129 -0.44863862
  C -1.79247580  0.23022195 -0.31755610
  O -2.80892427 -0.10643476 -0.88646699
  H -1.83033541  1.09428864  0.38999237
  H -0.44997697 -1.23724224 -1.11781991
  H  2.54054957 -0.37636597  0.68298467
  H  1.85519469 -1.52122545 -0.39897237
