10
opt_min/./Product_10476_1_opt.xyz
  C  0.04438889  0.06539936  0.69072206
  O -0.25290707 -0.26891327  1.80367658
  C -0.90073966  0.05631965 -0.50904395
  O -2.18334528 -0.35015315 -0.11364141
  H -2.69653990 -0.62089610 -0.87762770
  H -0.46886179 -0.60600322 -1.26784920
  H -0.91889235  1.07443677 -0.93076310
  C  1.36425480  0.51885373  0.32930537
  C  2.47098899  0.89865437  0.06066554
  H  3.44070113  1.22767205 -0.17147043
