15
opt_min/./Product_10498_0_opt.xyz
  C  2.41034600 -0.48264400  0.00864500
  C  0.99889320 -0.00011436 -0.06163428
  C  0.55526086  1.24025031 -0.49123577
  H  1.14514838  2.07096051 -0.83716031
  N -0.78860523  1.35119699 -0.43021588
  C -1.18137051  0.15879778  0.02842983
  N -2.65951693 -0.02666728  0.19671756
  H -2.84639294 -0.59304495  1.02767411
  H -3.03039523  0.92437923  0.29538188
  H -3.07989008 -0.46981000 -0.62903349
  C -0.15738623 -0.72524596  0.28791334
  H -0.23452767 -1.72691450  0.66737982
  H  2.81413837 -0.65682044 -0.99119779
  H  3.04976821  0.24853066  0.50557791
  H  2.46321063 -1.41639688  0.56842042
