20
opt_min/./Reactant_3533_0_opt.xyz
  C  2.07570300  0.30628300  0.06119600
  C  0.91747073 -0.45095172 -0.57154894
  C -0.47938891 -0.03120300 -0.07840916
  C -1.51052401 -1.00717477 -0.66252470
  H -1.52616561 -0.94162199 -1.74988925
  H -2.50942955 -0.77407468 -0.29962566
  H -1.27053139 -2.03239361 -0.38872771
  C -0.55765438 -0.08539717  1.45010893
  H -0.24281577 -1.06161377  1.81489405
  H  0.05541223  0.68477558  1.90777858
  H -1.58636419  0.06852136  1.77751753
  C -0.82831584  1.38123937 -0.55496913
  H -1.84380811  1.62778852 -0.24317541
  H -0.15401921  2.12448286 -0.14254425
  H -0.79968062  1.44058892 -1.64238561
  H  0.94885623 -0.33766107 -1.65697644
  H  1.05215985 -1.51633592 -0.35374888
  H  2.18105501  0.05760342  1.11606214
  H  3.00986643  0.03055456 -0.42977841
  H  1.95797471  1.38304369 -0.02279523
