12
opt_min/./Product_4406_0_opt.xyz
  C -0.16056754 -1.34378467 -0.49355455
  C -0.24092044 -0.07699998  0.38120362
  C -1.35564814  0.80170612 -0.14854076
  O -1.28036268  1.93881525 -0.50471810
  H -2.31686838  0.24263086 -0.18697217
  C  1.02885514  0.62024027  0.43758928
  C  2.07728617  1.19506291  0.48785893
  H  2.99725172  1.69590926  0.53286524
  H -0.52964860 -0.36222667  1.40010630
  H -0.86313014 -2.09980231 -0.15473006
  H  0.84510609 -1.75219325 -0.46551967
  H -0.39658298 -1.10150502 -1.52901638
