13
opt_min/./Product_4154_0_opt.xyz
  C -0.44274063 -0.89351581  0.95775587
  C  0.53924594  0.09446085  0.32174480
  C  0.06783948  0.57060853 -1.06903214
  O  0.10119116 -0.44761598 -2.02610353
  H -0.58808274 -1.09492480 -1.82768107
  H  0.75363001  1.34428632 -1.43247509
  H -0.94012882  1.00559789 -0.98142722
  N  0.69176392  1.20909890  1.15853491
  C  0.76867953  2.14518252  1.84388570
  H  1.52113351 -0.38111984  0.20597726
  H -0.14670425 -1.10617499  1.98421197
  H -1.45127296 -0.47542086  0.97338955
  H -0.44320585 -1.82880032  0.39838727
