12
opt_min/./Product_11056_1_opt.xyz
  C  1.26400500  0.78319300 -0.84315500
  C  1.39441380 -0.47038641 -0.43838576
  O  0.50196376 -1.34448000  0.07353170
  C -0.80354585 -0.99971032  0.47270894
  H -1.34374844 -1.93883163  0.56309102
  C -1.51235539  0.26537343  0.15637551
  H -2.01359637  0.82716822 -0.59380901
  C -1.09452251  0.14454352  1.38567393
  H -0.95664236  0.55199712  2.35618902
  H  2.34974979 -0.97730957 -0.51618154
  H  0.34897105  1.34175026 -0.78367491
  H  2.11675799  1.30353441 -1.23769205
