15
opt_min/./Product_3102_0_opt.xyz
  C  2.52917400  0.50186800  0.14189300
  C  1.31439340 -0.36230014  0.04321788
  C  0.12774039  0.07753017 -0.35574299
  N -0.99681371 -0.71940284 -0.55880700
  C -2.28463950 -0.15749426 -0.31277681
  O -2.54326776 -0.04990322  1.08144021
  H -3.11130323  0.70356837  1.26078700
  H -2.32708736  0.82846493 -0.79310561
  H -3.04144614 -0.81452858 -0.76785069
  H -0.89317897 -1.64133489 -0.15266041
  H -0.02106659  1.11529299 -0.62312748
  H  1.44376612 -1.40334069  0.30608776
  H  2.33328429  1.49883905 -0.24423807
  H  3.35144264  0.06470577 -0.42499344
  H  2.85198713  0.59006498  1.18023863
