14
opt_min/./Product_11473_0_opt.xyz
  C  2.68444355  0.09050693  0.10815627
  C -26.76615855 -12.76863140  10.76214612
  C -9.79821741 -47.14945414 -5.42422837
  N -18.84272945 -23.89684901  23.79086904
  C -3.34636083  6.95970070  7.04599528
  O  4.28796326 -7.99315308  4.72137224
  C  8.84346881  8.97452930 -8.16535212
  H  2.57494762  24.91376291 -6.68176406
  H  10.99261158 -1.60364002  10.69752772
  H  12.33532400  14.96785158 -11.47653867
  H -78.89107884 -19.54292021  59.04906085
  H -57.00689110 -24.62168655  30.20045357
  H  2.61734011 -15.28071035  7.43544011
  H -30.06016352 -10.16263340  6.40196799
