15
opt_min/./Product_11385_0_opt.xyz
  C -1.00258000 -0.88812300 -0.80439400
  C -0.10639355  0.05505177 -0.03351028
  C -0.84539480  1.21656077  0.59220038
  H -1.61709494  0.84301561  1.26296437
  H -0.17310206  1.85838492  1.15834782
  H -1.32435963  1.81746501 -0.18066437
  C  1.31395989  0.31335524 -0.39581603
  H  1.78431177  1.26846345 -0.54342051
  O  1.86525800 -0.86309003 -0.99863962
  C  1.70115523 -1.61242997  0.08675120
  C  1.02648284 -0.49748153  0.84786200
  H  1.13524117 -0.27079920  1.89177652
  H -0.43821077 -1.44513156 -1.55109530
  H -1.77586259 -0.31885855 -1.31912010
  H -1.47940784 -1.59775451 -0.13320071
