14
opt_min/./Product_649_0_opt.xyz
  O  2.21431200 -0.65404400 -0.34343900
  C  1.12429448 -0.19833490  0.33677654
  C  0.62445353  1.20070370  0.18070515
  H  0.84415127  1.85428109  1.02466986
  H  1.12424761  1.62670365 -0.69290228
  C -0.82666536  1.05719296 -0.02457263
  H -1.49545119  1.53191938  0.68162893
  C -1.13490059 -0.40231370 -0.36820618
  H -2.13839753 -0.68883805 -0.06615397
  H -1.04691035 -0.54225114 -1.45205126
  C -0.05592476 -1.17112026  0.37034251
  H  0.20675278 -2.11507725 -0.09805901
  H -0.33200711 -1.35462923  1.41448585
  H  2.88534863  0.03404560 -0.40789934
