8
opt_min/./Reactant_4383_0_opt.xyz
  N  1.28775800 -0.02411900 -0.05877600
  H  2.27939008 -0.03490438 -0.23329317
  N  0.58070089  1.07815634 -0.12378192
  C -0.64976347  0.69260594  0.16180318
  H -1.47435587  1.36793309  0.19159081
  C -0.62866177 -0.69332271  0.39793302
  H -1.43057374 -1.34953881  0.65414212
  N  0.61827832 -1.10989562  0.24824162
