12
opt_min/./Product_4251_0_opt.xyz
  C -1.32735100  0.57052700  0.16403100
  H -2.25744227  0.99787120 -0.19177145
  H -1.07007196  0.89125204  1.16709334
  C -1.00228890 -0.82172040 -0.28680161
  H -1.61336678 -1.61580419 -0.65187256
  C -0.25158385  0.33681559 -0.85272674
  H -0.08264093  0.76041887 -1.81823026
  C  0.46970804 -0.71887295 -0.08681101
  O  1.02694139 -0.46657308  1.20655585
  C  1.67297418  0.57734602  1.49617577
  H  1.72274950  1.30922950  0.64750419
  H  1.12242263 -1.40800649 -0.61937026
