14
opt_min/./Product_6283_0_opt.xyz
  C -1.20000000 -0.94561600  0.15452900
  C -0.68831317  0.44934408  0.34479743
  C -1.48182225  1.51161134  0.42768105
  H -1.07506542  2.49432871  0.57412218
  H -2.54667195  1.40940546  0.36194726
  O  0.66448248  0.65532973  0.46656551
  C  1.56685652 -0.39369015  0.23067742
  O  2.83735831  0.06038318  0.53096426
  H  2.88200809  0.99140662  0.28097791
  H  1.50619836 -0.72019273 -0.82855961
  H  1.37266653 -1.25671274  0.88218806
  H -0.94885609 -1.57011677  1.00900340
  H -0.77602062 -1.41273659 -0.73225985
  H -2.27726118 -0.92794046  0.05099952
