10
opt_min/./Product_603_0_opt.xyz
  N  1.94446900  0.30212100 -0.03353000
  C  0.84872014 -0.29422717  0.39685344
  N  0.27924192 -1.01251024  1.27375026
  C -0.53884768 -0.59457139  0.09637338
  N -1.50970797  0.48518160  0.29492088
  N -1.24106330  1.62368130  0.50157634
  H -2.50493542  0.10949619  0.22676477
  H -0.85511807 -1.34818067 -0.61795374
  H  1.88627586  0.94942068 -0.80247941
  H  2.72959103  0.37372704  0.59409086
