15
opt_min/./Product_10860_0_opt.xyz
  C  2.92222000  0.48642400 -0.40910200
  C  1.81067940 -0.47029256 -0.12034395
  O  0.82087684  0.17822352  0.45245246
  C -0.34824781 -0.58540810  0.75605696
  C -1.50766310 -0.06542222 -0.05672653
  C -2.28706029 -0.83888026 -0.79927040
  H -3.10504281 -0.42075186 -1.35461812
  H -2.13296542 -1.89917157 -0.84778486
  O -1.71487915  1.27819130  0.02137027
  H -0.94538961  1.70179463  0.41975337
  H -0.54874718 -0.43814026  1.82540264
  H -0.17162549 -1.64530897  0.55624168
  H  2.75977754  1.49902071 -0.02872181
  H  3.84397937  0.08047719  0.00249750
  H  3.04341365  0.51420351 -1.49044018
