12
opt_min/./Product_5676_0_opt.xyz
  N  2.01111300  0.54691400 -0.78271000
  C  0.76062028  0.05658451 -0.30399499
  C  0.36738300 -1.29524156 -0.19524453
  C -1.00681984 -1.20980318  0.37255531
  H -1.69014602 -1.68337296 -0.34239679
  H -1.11203815 -1.73389973  1.32361662
  N -1.32744216  0.20317352  0.50313798
  H -2.04183200  0.55634263  1.12069748
  C -0.24434963  0.90012951  0.14667337
  H -0.24299456  1.97648165  0.18395219
  H  2.73912445 -0.10342142 -0.48817249
  H  2.02067135  0.52936016 -1.80173022
