10
opt_min/./Product_4987_0_opt.xyz
  C -0.50748900  0.81844600 -0.00871100
  H -1.04760321  1.34823698 -0.79483681
  H -0.74634532  1.26282705  0.96430261
  O  0.89532313  0.95610320 -0.24422528
  C  1.39284510 -0.29187585 -0.24086001
  H  2.45933134 -0.38430219 -0.36588399
  N  0.60695220 -1.26436165 -0.10937944
  C -0.73332933 -0.71663358 -0.01564290
  H -1.24334023 -1.07935407  0.87702854
  H -1.29173807 -1.05664727 -0.89485911
