15
opt_min/./Product_9689_0_opt.xyz
  O  2.30762800 -0.80117400 -0.01462200
  C  1.39976298  0.27804043  0.02600400
  C  0.06196739 -0.23256438  0.54629248
  H  0.23041858 -0.78654892  1.47186601
  C -0.81705976 -0.93884895 -0.45889686
  H -0.68622798 -1.85231157 -1.00782226
  C -1.77419259 -0.01730920 -0.37946762
  O -2.98658815  0.19866437 -0.93193672
  H -3.21783004 -0.53088798 -1.52019717
  C -1.06375146  0.83361605  0.63354134
  H -0.78421251  1.82791674  0.28901492
  H -1.55470639  0.90408677  1.60283967
  H  1.26516109  0.70988392 -0.97555114
  H  1.77408901  1.06557466  0.70018644
  H  3.14313188 -0.50029691 -0.38585441
