14
opt_min/./Product_3302_0_opt.xyz
  O  1.51216300  0.87641100 -0.56258100
  C  1.83892960 -0.20942921  0.26566754
  H  2.32194724 -1.04782801 -0.22467114
  H  2.22470108  0.04756715  1.24649184
  C  0.45311467  0.11734936 -0.06527042
  C -0.64594027  0.67524670  0.82517104
  H -0.70657073  1.76143529  0.81459945
  H -0.60378786  0.32583483  1.85564331
  C -1.67809107 -0.05249867 -0.05807881
  H -2.35264740  0.61337310 -0.59041591
  H -2.26189810 -0.80624950  0.46603828
  C -0.54799562 -0.62718431 -0.93380970
  H -0.44687652 -1.71076631 -0.90119910
  H -0.55026768 -0.29683740 -1.97059138
