14
opt_min/./Reactant_775_0_opt.xyz
  C -1.67527300 -0.02321300  0.14757900
  C -0.17223160 -0.01703533  0.14450879
  C  0.80598659 -1.02076551 -0.49963044
  H  0.94658407 -0.98823312 -1.57672751
  H  0.73985035 -2.03735239 -0.12343733
  C  1.59664216 -0.03956536  0.37170635
  H  2.64425594 -0.07015236  0.65727672
  C  0.79646874  1.11680199 -0.23767174
  H  0.93539721  1.34897383 -1.28994389
  H  0.73154535  2.01033213  0.37669777
  O  0.57863001 -0.16922383  1.40186811
  H -2.04370495 -1.03529585  0.00424611
  H -2.02916029  0.35420359  1.10275198
  H -2.03546054  0.61581464 -0.65440749
