18
opt_min/./Product_2703_0_opt.xyz
  C  2.60163300 -0.37420400 -0.64257700
  C  1.48445529  0.55349470 -0.18532694
  C  0.16450431 -0.19025300 -0.00194008
  C -0.94642606  0.73438041  0.48585884
  C -2.29476374  0.01292323  0.54328031
  C -2.75110116 -0.60011188 -0.68834866
  H -3.82310141 -0.85702969 -0.60422709
  H -3.02766351  0.59499364  1.12392542
  H -2.15945250 -0.93551355  1.10258244
  H -0.70447551  1.12701627  1.47705221
  H -1.03504330  1.58292077 -0.19676407
  H  0.30932097 -1.00352493  0.71533652
  H -0.14787675 -0.63188406 -0.95060262
  H  1.35302896  1.34858537 -0.92510127
  H  1.76776866  1.02607796  0.76015456
  H  2.33261459 -0.85980899 -1.57853570
  H  2.78690444 -1.14487911  0.10480728
  H  3.52298611  0.18540908 -0.79675907
