15
opt_min/./Product_11838_0_opt.xyz
  C  3.06416900 -0.00886800  0.15830200
  C  1.79109394 -0.22261126  0.02073416
  C  0.53203245 -0.38601536 -0.11087076
  C -0.58711534 -1.16359733 -0.68577570
  H -0.81012620 -1.03877079 -1.73736110
  H -0.73125154 -2.17044000 -0.31444997
  C -0.85203437 -0.00974886  0.25955375
  O -1.24131566 -0.31288468  1.56632488
  H -2.13967112 -0.66477794  1.56674239
  C -1.43622597  1.28347653 -0.30248292
  H -0.64687052  1.99363235 -0.53681854
  H -2.08871718  1.72538638  0.44822469
  H -2.01383915  1.08760401 -1.20436290
  H  3.64879139 -0.50119812  0.91609144
  H  3.59097945  0.67156512 -0.49205735
