8
opt_min/./Product_6176_0_opt.xyz
  C -2.13435406  0.07875096 -0.03676548
  C -1.79468017 -5.62422027  1.77515693
  C -6.91784105  0.87186072 -20.72068418
  C  0.06872608  0.67126299 -24.03391927
  N  12.41330778  3.96875708  10.74380363
  H  0.06330459  4.10121202  19.78423559
  H -3.84489804 -0.57198523 -6.90239451
  H -4.05117075  3.00472607 -3.75575521
