12
opt_min/./Product_5077_1_opt.xyz
  C -1.43501500 -0.54034000 -0.44124800
  C -0.37027001  0.54667032 -0.31517338
  C  0.66890055  0.16262752  0.69259610
  C  1.95596556  0.03905130  0.44304697
  H  2.66652144 -0.24511193  1.20268874
  H  2.37494290  0.21684383 -0.53627753
  H  0.27427473 -0.02453066  1.68387667
  H -0.85036212  1.47390642  0.01639610
  H  0.10075049  0.71985355 -1.28592717
  H -1.88758780 -0.73287179  0.53189363
  H -2.21338160 -0.23232043 -1.13526209
  H -0.98676627 -1.46747918 -0.79729486
