13
opt_min/./Product_7357_0_opt.xyz
  C  1.90347000  0.67404300  0.23623100
  H  2.58655777  1.40597118  0.58967885
  C  0.70687514  0.32246805 -0.12945990
  C -0.71258821  0.63360554 -0.35744013
  C -1.58912596 -0.28821650  0.46266699
  H -1.30584552 -0.43860089  1.49751847
  O -3.00920871 -0.13838832  0.28435888
  C -2.53405482 -1.22468370 -0.17846994
  H -0.90660819  1.67806784 -0.08846407
  H -0.95339472  0.49590530 -1.41798869
  C  1.74853414 -0.75423673 -0.21209728
  H  2.13452230 -1.05934884 -1.17849140
  H  1.75339096 -1.55166391  0.52282751
