13
opt_min/./Product_5503_0_opt.xyz
  C -1.62111600 -0.01661200 -0.25223700
  C -0.26666220 -0.57720727  0.17186129
  H -0.39821416 -1.32305693  0.96437190
  O  0.51257900 -1.11604175 -0.91494258
  C  1.60883903 -0.23162617 -0.66635204
  H  2.50503098 -0.76669449 -0.34317168
  H  1.86449884  0.40169632 -1.51693459
  C  0.84880904  0.42176555  0.44733567
  N  1.08999532  1.38055022  1.20384617
  H  0.36157144  1.60751266  1.87506582
  H -2.25847316  0.11419856  0.61650406
  H -2.08969807 -0.71623792 -0.93529651
  H -1.49561987  0.94090877 -0.74913071
