12
opt_min/./Product_5878_0_opt.xyz
  C -0.55377900 -0.86407100  0.61404200
  H -0.22620800 -0.56849592  1.60047946
  H -0.99764669 -1.84439462  0.56986169
  C  0.33527904 -0.44482282 -0.55053589
  C  1.56673707  0.29939640 -0.28615718
  O  2.56928291  0.22500567 -0.94809921
  H  1.53745014  0.96098262  0.60519814
  H  0.41085048 -1.11886894 -1.39311749
  C -1.03479722  0.19854114 -0.30218110
  O -1.17593641  1.51240517  0.08212476
  H -0.66515749  1.68147166  0.88221295
  H -1.80032697 -0.04587083 -1.02688551
