14
opt_min/./Product_11463_0_opt.xyz
  O -2.08818000 -0.11119000 -0.46293700
  C -0.69152962 -0.03037720 -0.56089079
  H -0.47011218 -0.04961714 -1.63475711
  C -0.10224021  1.24465128  0.05568634
  H -0.49305208  1.39234456  1.07089677
  H -0.37712567  2.12328473 -0.53336952
  N  1.34059056  1.20177371  0.12536003
  C  1.92195825  0.09234118  0.07348641
  H  3.00551156  0.06933050  0.09426005
  O  1.41150699 -1.14777695 -0.00063550
  C -0.00272690 -1.23329903  0.10367405
  H -0.28245001 -1.28409111  1.16550695
  H -0.29626611 -2.16853356 -0.38019068
  H -2.34560096  0.00363922  0.46050164
