14
opt_min/./Product_11106_0_opt.xyz
  C -1.74118300  0.36605500 -0.01315100
  H -2.79350340  0.47639255  0.17236396
  C -0.85548032  1.34658664 -0.15588960
  H -1.01386821  2.40599972 -0.05408331
  N  0.40118076  0.87797402 -0.54309348
  C  0.30789518 -0.60990764 -0.68316679
  H  0.46253369 -0.92013444 -1.71807155
  C -1.08174650 -0.98705984 -0.15598832
  H -1.61726122 -1.65391851 -0.83153575
  H -1.02074383 -1.47439258  0.82221836
  C  1.53216280 -0.65684943  0.20222429
  H  2.19199148 -1.45446935  0.47440193
  C  1.51478863  0.67588863  0.30713020
  H  2.09671446  1.44212007  0.78444130
