12
opt_min/./Product_1895_0_opt.xyz
  C -1.62265100  0.24285100 -0.05041500
  C -0.61736366 -0.85621293 -0.37875049
  O  0.39333402 -0.38877385 -1.28688057
  C  1.46896916  0.26009634 -0.94720288
  N  1.66419846  0.55477403  0.33432323
  H  2.51352399  1.02989030  0.58938936
  H  1.04285763  0.31141370  1.10719461
  H -1.10058961 -1.67906894 -0.90998455
  H -0.16323654 -1.25803487  0.53558673
  H -2.21303574  0.48716995 -0.92950989
  H -1.10565428  1.14597459  0.27080524
  H -2.29059842 -0.08182622  0.74486090
