10
opt_min/./Product_3823_0_opt.xyz
  C -1.32462803  0.57423176 -0.79285229
  C -0.16918238  0.16628633  0.00842709
  C  0.86969819 -0.65492453  0.15756558
  C  1.82641981 -1.58886211  0.06635656
  N  2.63508158 -2.41268171 -0.05303962
  N  0.40204646  0.51290674  1.16022453
  H  0.47536893  1.02593175  2.00085688
  H -1.52288973  1.63362881 -0.62696873
  H -1.14792116  0.38885888 -1.85066876
  H -2.19797828  0.00106776 -0.47738813
