12
opt_min/./Reactant_3823_0_opt.xyz
  C -1.09811113 -0.85352692  0.29619274
  C -0.42570867  0.49098158  0.23815037
  H -1.11345276  1.33562407  0.21952851
  N  0.81686496  0.62948488  0.94141081
  H  0.97906159  1.50436927  1.42198217
  C  0.85463721  0.69627266 -0.51034150
  C  1.48064658 -0.39732315 -1.17277207
  N  1.98588226 -1.26833358 -1.71565124
  H  1.00599425  1.65643131 -0.99968364
  H -1.75385394 -0.97875183 -0.56290380
  H -0.35483230 -1.64337222  0.28552944
  H -1.69206952 -0.93985336  1.20117242
