14
opt_min/./Product_10527_0_opt.xyz
  C  2.36905200 -0.21828800  0.12748200
  C  1.04962969 -0.09123936 -0.04574196
  N  0.49473286  1.09818461 -0.45696936
  H  1.00172444  1.96294065 -0.36639684
  O -0.89922553  1.28139285 -0.61180459
  C -1.60173598  0.40629612  0.23549247
  H -1.43777854  0.65733020  1.29319447
  H -2.65431474  0.54478647 -0.01696006
  C -1.14191798 -1.01446836 -0.06163660
  H -1.65752742 -1.74965455  0.55695963
  H -1.31525712 -1.23723748 -1.12436894
  O  0.23671477 -1.15576675  0.22605223
  H  2.77785340 -1.14991179  0.45733237
  H  3.03543745  0.59869819 -0.06216404
