14
opt_min/./Product_10528_0_opt.xyz
  C  2.28599400  0.56008000  0.10506400
  C  0.78689354  0.73460620  0.23124896
  N  0.21508411 -0.32141985  0.87870630
  O -1.12002561 -0.31127429  1.30449335
  C -2.03846541 -0.33559967  0.28501923
  C -3.33208082 -0.24143190  0.52887777
  H -4.04245983 -0.27270443 -0.27350720
  H -3.70268496 -0.12883808  1.53154162
  H -1.62894388 -0.44158067 -0.71011646
  H  0.77294764 -0.96543746  1.41903008
  O  0.16092235  1.65055322 -0.23540035
  H  2.53350722 -0.43143167 -0.26606516
  H  2.66649420  1.31212252 -0.58079840
  H  2.75436701  0.69924676  1.07816583
