13
opt_min/./Product_6410_0_opt.xyz
  O  1.82751500 -1.50027700  0.65952200
  C  1.80944170 -0.30323836  0.65884979
  C  0.68894330  0.60724751  0.24832110
  C -0.61162797  0.00188680 -0.22160909
  C -0.89063389 -1.29676136 -0.32879465
  H -1.86585635 -1.59022170 -0.68323602
  H -0.18339023 -2.06748571 -0.07626142
  C -1.65350158  0.98644356 -0.59251342
  O -2.75541965  0.71695899 -0.99178273
  H -1.33875942  2.04284009 -0.47417320
  H  0.49078006  1.27220514  1.09480050
  H  1.07571321  1.26320111 -0.53834065
  H  2.69677401  0.26530661  1.00577005
