13
opt_min/./Product_2310_0_opt.xyz
  O  3.39598700  0.93566000  0.59006000
  C  2.44171455  0.29413229  0.42988003
  N  1.58746158 -0.49471341  0.20185408
  C  0.19835868 -0.76725145  0.13737448
  C -0.63899741  0.48767847 -0.11554464
  C -2.11343392  0.14220001 -0.25446479
  H -2.70118915  1.04773417 -0.39027655
  H -2.47236453 -0.36502486  0.63973040
  H -2.27544911 -0.50727838 -1.11216743
  H -0.27609329  0.97284257 -1.02602769
  H -0.48696323  1.18739939  0.71098955
  H -0.10270733 -1.24510889  1.07795495
  H  0.05877076 -1.48909888 -0.67423334
