14
opt_min/./Product_6554_0_opt.xyz
  O  2.36142400 -1.05435400 -1.07803900
  C  1.35399650 -0.62757126 -0.24206128
  H  1.59255984 -0.78694976  0.80958466
  N -0.00074154 -0.89256637 -0.69148249
  C -0.88672855 -0.62493352  0.43733199
  H -1.06267086 -1.37068113  1.19504828
  C -0.46455835  0.83268242  0.51679843
  H -0.26231980  1.49311362  1.34578554
  C -1.84692730  0.45382152  0.05854748
  H -2.11375290  0.57078033 -0.98074116
  H -2.64828288  0.65547370  0.75361606
  C  0.48703847  0.51531017 -0.60729363
  H  0.66155942  1.14628050 -1.46740618
  H  2.64901153 -0.33234454 -1.64684069
