16
opt_min/./Product_6979_0_opt.xyz
  C  1.89160400  0.31631800  0.21373200
  C  0.51076784 -0.24428378  0.52546403
  H  0.46858847 -0.58981724  1.56909651
  C -0.67488342  0.69883476  0.24963041
  O -0.30509747  1.63935210 -0.73592755
  H -1.08625337  2.14902229 -0.97329246
  H -0.99109968  1.22610097  1.16073462
  C -1.76282587 -0.27013279 -0.26005183
  H -2.41742482  0.19413274 -0.99501467
  H -2.38130534 -0.63621057  0.56410087
  C -1.03673213 -1.48237684 -0.80281880
  N  0.16915794 -1.37854530 -0.33913612
  H  0.86830324 -2.09483330 -0.48372787
  H  2.57764374 -0.49404483 -0.02885167
  H  1.83216814  0.99641865 -0.63103320
  H  2.28653018  0.85699892  1.07113306
