11
opt_min/./Product_10800_0_opt.xyz
  C  1.78276500  0.11880600  0.12806500
  O  0.48719383  0.28702297  0.63666063
  C -0.54816091 -0.09570855 -0.24950920
  H -0.18016572 -0.37442300 -1.23149319
  C -1.78393106 -0.70190594  0.32384503
  H -2.23326672 -1.53335124  0.81037008
  C -1.88435488  0.53861690 -0.08201759
  H -2.48463491  1.41459206 -0.14679352
  H  1.99793483 -0.93578233 -0.08717556
  H  2.45518966  0.46275798  0.91239404
  H  1.95354860  0.71104214 -0.77649430
