16
opt_min/./Product_666_0_opt.xyz
  C -1.51435500  0.23190800 -1.60401900
  C -0.79940189 -0.08020373 -0.32107305
  C -1.61948888  0.00239568  0.93409218
  H -2.46743620 -0.68069613  0.86189254
  H -2.01039522  1.01230022  1.05936904
  H -1.03351100 -0.26043175  1.81006113
  C  0.45632101 -0.42319826 -0.30089627
  C  1.71606850 -0.73177730 -0.27758024
  C  2.83512826  0.26075299 -0.16242543
  H  3.46751574 -0.00058943  0.68680505
  H  3.45198477  0.23188392 -1.06122838
  H  2.46299611  1.27208377 -0.02459279
  H  2.03770463 -1.76343407 -0.34643356
  H -1.94402629  1.23244578 -1.56313161
  H -0.84304006  0.17192198 -2.45634884
  H -2.32724353 -0.48125811 -1.74996059
