12
opt_min/./Product_4515_0_opt.xyz
  O -1.10456100 -1.36246200  0.96438900
  C -1.12193258 -0.45120677 -0.07431849
  H -1.88633273 -0.64544164 -0.82450803
  C -0.77776764  0.97640924  0.23131850
  H -1.31827856  1.76962491 -0.25501912
  H -0.47044319  1.16251532  1.24939804
  C  0.18096416  0.14729176 -0.56638901
  O  1.37356375 -0.33663456  0.00327153
  C  1.48984145 -0.33173931  1.29880710
  H  2.46855808 -0.81198644  1.50242991
  H  0.33653981  0.30228561 -1.62428983
  H -0.47630816 -2.06911896  0.77652383
