14
opt_min/./Product_4592_0_opt.xyz
  C -0.30239600  1.32599800  0.30187500
  N  0.04110646 -0.00951709 -0.18284130
  C  1.44875725 -0.37088241 -0.02241674
  H  1.75795200 -0.93706013 -0.89788329
  H  2.07416586  0.51215315  0.06291101
  H  1.58979105 -0.98697958  0.86431102
  C -0.66545161 -0.69427773 -1.31488405
  H -1.43305780 -0.00009517 -1.70172011
  C -0.93740478 -1.06212639  0.09563640
  H -1.79301642 -0.72292921  0.68018613
  H -0.50851008 -1.97803976  0.48432675
  H -0.61580672  1.29956010  1.34716629
  H -1.12117413  1.72604926 -0.29228578
  H  0.54306397  2.00222667  0.20644244
