12
opt_min/./Product_1066_0_opt.xyz
  N  2.19054500 -0.85035000 -0.01119900
  C  1.03157187 -0.32983363 -0.00329684
  C  0.57964051  1.07746047 -0.00109530
  H  1.25750610  1.91114940 -0.00672179
  C -0.75081247  1.11521229  0.01043360
  H -1.38036953  1.98375010  0.01946661
  C -1.30121236 -0.27802770  0.00182563
  H -1.94498291 -0.48564671  0.86649336
  H -1.91010020 -0.45279391 -0.89895096
  N -0.10614756 -1.07151758  0.00776549
  H -0.11361397 -2.07215179  0.01918394
  H  2.94636869 -0.17791180 -0.01806922
