13
opt_min/./Product_8353_0_opt.xyz
  O -2.12966500 -0.10152000  1.57022600
  C -1.80025354 -0.18527046  0.20937133
  H -2.65224647  0.17488959 -0.35612787
  C -0.40335780 -0.03151899 -0.28952956
  C  0.68949098  0.87074563 -0.50105824
  C  1.93700275  0.48772730 -0.44040999
  C  3.15293263  0.05737476 -0.37735309
  H  3.67339289 -0.28021982 -1.26064729
  H  3.71327852  0.07219268  0.54345364
  H  0.43980366  1.91239388 -0.68592336
  C -0.89438925 -1.25207718 -0.32287394
  H -0.76362629 -2.28579042 -0.52807393
  H -1.32210255 -0.11465306  2.09776073
