12
opt_min/./Product_5867_0_opt.xyz
  C -1.94674700  0.24746000  0.27675300
  C -0.47149229  0.26634611  0.03790446
  C  0.28173951 -0.81916962  0.09636587
  O  1.65329740 -0.86246767 -0.13813761
  C  2.45639687  0.07660790  0.33889029
  O  2.16382366  1.03332351  0.98844347
  H  3.48931276 -0.18291371  0.04143028
  H -0.10724054 -1.80731856  0.30231406
  H -0.01737434  1.22259147 -0.17880317
  H -2.15991696  0.01620923  1.31993788
  H -2.38366579  1.21446463  0.04607785
  H -2.42844902 -0.51246221 -0.33708220
