13
opt_min/./Product_2758_0_opt.xyz
  C  2.35084800 -0.44420800  0.34499000
  N  1.06374735 -0.17969022  0.29624040
  C  0.40811250  0.84548578 -0.23314161
  C -1.04616421  0.93519222 -0.10010278
  H -1.45679668  1.89907157 -0.39391137
  C -1.95432815 -0.22011969 -0.21927241
  H -2.96356915 -0.07144783 -0.58996179
  H -1.55092507 -1.21420800 -0.38610342
  O -1.67607135  0.35294147  1.02878162
  H  0.96772784  1.70936467 -0.54208445
  H  0.45685982 -0.88043454  0.72108614
  H  3.05548577  0.24768118 -0.07570736
  H  2.69705075 -1.32168953  0.85101239
