12
opt_min/./Product_11493_0_opt.xyz
  C -1.50210700  0.05552300  0.57821900
  H -2.46401091 -0.03388125  1.04478566
  C -0.55587139  0.99595654  0.60100044
  H -0.46556594  1.95714821  1.06769800
  C  0.35117835  0.20149788 -0.27455917
  C -0.75035950 -0.87296194 -0.34528994
  H -1.18771659 -0.99495476 -1.33306210
  H -0.48478332 -1.84706058  0.06221839
  C  1.80761719  0.03595979 -0.24723028
  H  2.40511720  0.69768866  0.36919509
  H  2.23931030 -0.93851193 -0.44472697
  O  1.14537129  0.64190247 -1.32604224
