12
opt_min/./Product_1935_0_opt.xyz
  O  0.01893100 -1.22162200  0.39197400
  C -1.20532955 -0.62150555  0.02394263
  H -1.57139560 -1.06341460 -0.90947676
  H -1.92684116 -0.80958045  0.82033758
  C -0.86613122  0.87327577 -0.14425585
  H -1.20729125  1.27697923 -1.10263415
  H -1.27579779  1.48616005  0.66424272
  O  0.54625018  0.92329116 -0.08868855
  C  1.04612362 -0.39152610 -0.02444132
  O  2.06899314 -0.47256833  0.88257916
  H  2.64722215  0.28775594  0.75274261
  H  1.38897626 -0.68803774 -1.04534465
