14
opt_min/./Reactant_2819_0_opt.xyz
  C  0.12448500  1.46809100  0.23673300
  C  0.12779634 -0.02856653  0.02434193
  C  1.44980118 -0.64275985 -0.20144933
  O  1.65744338 -1.82105067 -0.33225213
  H  2.28002923  0.09016629 -0.25227978
  C -0.91033186 -0.89210177  0.70345085
  H -0.58380106 -1.86798101  1.03122333
  H -1.61972504 -0.40836867  1.35589236
  C -1.01126774 -0.66800527 -0.76078719
  H -0.72021869 -1.47034127 -1.42198952
  H -1.76933740 -0.00380407 -1.14494059
  H  0.40615489  1.98730097 -0.67847117
  H -0.86469531  1.80797652  0.53180666
  H  0.83051358  1.74582086  1.01717388
