10
opt_min/./Product_4926_1_opt.xyz
  O  1.12561000  2.01260800  0.47371000
  C  0.66219852  0.90617630  0.27649116
  C  1.29079751 -0.37355731  0.29127345
  H  2.30338909 -0.64358145  0.51537248
  O  0.42281964 -1.34374338  0.03902322
  C -0.76908488 -0.89935670 -0.18941613
  H -1.55947627 -1.59520144 -0.38799973
  C -0.79670341  0.57547147 -0.10102991
  H -1.52739962  0.96351478  0.60693802
  H -1.01199158  1.04017370 -1.06900654
