11
opt_min/./Product_10263_0_opt.xyz
  C  2.30202300 -0.06453800  0.06551600
  C  1.01498818 -0.04864825  0.01305712
  C -0.29345130 -0.00771011 -0.00677462
  C -1.20004953  1.10504127  0.29130786
  H -0.92153994  2.09757330  0.58812150
  N -2.41937607  0.73620200  0.15308723
  N -2.46421196 -0.58624565 -0.23434371
  C -1.27295241 -1.04697686 -0.33713204
  H -1.05867605 -2.05745539 -0.62586635
  H  2.82631140 -0.33376595  0.96760265
  H  2.91600970  0.17914254 -0.78462155
