10
opt_min/./Product_1752_0_opt.xyz
  C -1.71030554 -0.38513351  0.31061866
  N -1.24618223  0.96608013  0.43588989
  N -0.10065601  1.31307420  0.25270220
  N  0.86017348  0.47386998 -0.14106548
  C  2.02832172  0.22781704  0.01885953
  N  3.22484135  0.06877791  0.04331446
  H  3.73148193 -0.78356998  0.19385116
  H -2.16029316 -0.66864955  1.26361728
  H -0.92027804 -1.09404737  0.03653745
  H -2.49902342 -0.39241196 -0.44371310
