7
opt_min/./Product_6038_0_opt.xyz
  O -2.22383139 -1.17734051  0.01517892
  C -1.49131462 -0.31344566  0.43748685
  C -0.17265395 -0.06584763  0.04814381
  N  0.93249256  0.18415575 -0.26112861
  N  2.05749398  0.60234408 -0.41152145
  H  2.62280116  0.12276260 -1.10198052
  H -1.81586615  0.40239347  1.22256815
