13
opt_min/./Product_8761_0_opt.xyz
  O  3.10130700  0.70941800 -0.46737300
  C  2.25837777 -0.09303120 -0.10268486
  C  0.85693798  0.11222051 -0.08823940
  O  0.31455821  1.25212423 -0.48547651
  C -0.96422494  1.26642678 -0.41318727
  H -1.51132822  2.13846296 -0.71389289
  C -1.51806233 -0.03497034  0.08750866
  H -2.12859573  0.10782120  0.98169800
  H -2.15597446 -0.50036440 -0.66886523
  C -0.23244313 -0.84383795  0.36060407
  H -0.11677380 -1.09134901  1.41765120
  H -0.19821202 -1.77672557 -0.20373678
  H  2.54201809 -1.10077701  0.26412960
