12
opt_min/./Product_7316_0_opt.xyz
  O  2.66025300 -0.75404300 -0.04099800
  C  1.81528618  0.33098162  0.02583078
  C  0.46217309  0.18662873 -0.01860523
  N -0.44891396  1.19648563 -0.04332725
  N -1.72156754  0.54799371 -0.07774246
  H -2.30930690  0.81316421  0.73195233
  H -2.26055277  0.81768226 -0.91976389
  C -1.36278492 -0.93787289 -0.06287818
  H -2.12143412 -1.69056907 -0.07990792
  N -0.11729647 -1.07910369 -0.03420173
  H  2.25271663  1.31692435  0.04147191
  H  3.50756800 -0.50778997  0.34519304
