11
opt_min/./Product_1211_0_opt.xyz
  C -1.39295308  0.49056191  0.74306621
  C  7.32557999 -4.07094934 -28.76564954
  C -26.69110842  5.52644376  1.85422426
  C -5.05008777 -5.15656418  10.10666782
  O -3.30196037  4.34161338  3.29072987
  H  1.70675798  7.00177843  11.28036852
  H  0.52754803  4.19300473  6.10181390
  H  18.09488429  10.38233187 -49.48560419
  H -8.88097170 -11.67400778  2.89007306
  H  8.76570416  2.63878042 -3.72353609
  H  5.92698111 -4.60383422 -3.67793694
