16
opt_min/./Reactant_9352_0_opt.xyz
  C  1.68338200  1.01690100 -0.39994500
  N  0.28210513  0.65735496 -0.42294565
  C -0.28952497  0.54818587  0.92109898
  H -0.18287724  1.31674820  1.66855259
  C -1.48162956 -0.37521315  0.80642190
  H -2.32736084 -0.34249036  1.47322133
  C -1.49927121 -0.82704450 -0.64158188
  H -1.89384955 -1.83561178 -0.75031324
  H -1.93353720 -0.15480698 -1.37759367
  C  0.03129696 -0.80186150 -0.52354817
  H  0.66140655 -1.38303556 -1.19216350
  C -0.09928878 -0.93928203  1.02317739
  H  0.34712562 -1.58953588  1.74782452
  H  2.04917380  1.03695189 -1.42739974
  H  2.29904960  0.32054574  0.18676048
  H  1.78900435  2.01560323  0.02183699
