16
opt_min/./Product_11704_0_opt.xyz
  C  2.63744700 -0.01482900  1.06285000
  N  1.66385140 -0.60942733  0.54037298
  C  0.87347548  0.03286051 -0.42404100
  H  1.25362396  0.97179283 -0.83840608
  C  0.01978315 -0.84368528 -1.33034822
  H -0.10260664 -0.57230417 -2.36836477
  H  0.08873698 -1.90813349 -1.14768660
  C -0.61128054 -0.04085120 -0.26795029
  C -1.68571576  0.97035169 -0.13429363
  H -2.48135218  0.97250194 -0.86623550
  H -1.42016537  1.95204295  0.23058748
  C -1.59632462 -0.19958231  0.82164981
  H -2.32470505 -0.99478740  0.72950098
  H -1.27310361 -0.02631619  1.83882433
  H  2.96429736  0.99680306  0.79874488
  H  3.20919259 -0.53359232  1.81905858
