9
opt_min/./Product_7322_0_opt.xyz
  C  2.22376800 -0.23026800  0.04201100
  C  0.82205638 -0.03271611  0.05061338
  N  0.00116104 -0.88568559 -0.57031250
  N -1.19874137 -0.41193820 -0.36850510
  H -2.00968645 -0.88472197 -0.74312548
  C -1.12175777  0.73464986  0.37711157
  H -1.98123889  1.30387592  0.67019644
  N  0.11100113  0.99059292  0.65162810
  H  2.70483690  0.58054355  0.61113715
