14
opt_min/./Product_10193_1_opt.xyz
  C -0.11622100  1.21470400  1.25438000
  C  0.25049680  0.15837524  0.40291324
  C  1.64743902 -0.42331429  0.26616573
  H  1.72718095 -1.08527922 -0.59407357
  H  2.37555977  0.37875096  0.15228287
  H  1.90242070 -0.99199442  1.16029104
  C -0.92022130 -0.83068779  0.12277840
  H -1.79618645 -0.70300679  0.74101596
  H -0.61665797 -1.85384200 -0.03101765
  C -0.64309557  0.16698009 -0.90580975
  O -1.47680154  1.21223042 -1.17066016
  H -1.82131053  1.53711278 -0.32235473
  H -0.10719961 -0.11959559 -1.80299252
  H  0.74269228  1.58460533  1.83818977
