12
opt_min/./Product_11941_0_opt.xyz
  N -2.11588700 -0.66356000 -0.08489100
  C -0.81923190 -0.34870517 -0.01881775
  N  0.15575369 -1.18619059 -0.18602913
  C  1.29328240 -0.40388339 -0.05548236
  O  2.47658887 -0.98805212 -0.17424874
  H  3.16353633 -0.32197522 -0.04495540
  N  1.13281921  0.85062517  0.17846110
  C -0.29220316  1.05331660  0.22582843
  H -0.58995051  1.46944132  1.19111009
  H -0.60724499  1.74321630 -0.55933027
  H -2.81952858  0.01896559  0.12772358
  H -2.38082240 -1.62422341 -0.20911035
