12
opt_min/./Reactant_11941_0_opt.xyz
  N  2.25983900 -0.53603500 -0.00372100
  C  0.95293589 -0.08165134  0.01915625
  C  0.44368257  1.14200528 -0.30731475
  H  0.90021637  2.06560188 -0.58787326
  N -0.93794932  1.00945014 -0.20647972
  H -1.63123914  1.72496241 -0.34271763
  C -1.16220064 -0.25828641  0.18178992
  O -2.41248284 -0.71012304  0.37871580
  H -2.34503496 -1.64640131  0.60681784
  N -0.06682573 -0.94932744  0.32815728
  H  2.40188201 -1.32198160  0.61389079
  H  2.95231991  0.19128765  0.09974409
