9
opt_min/./Product_8552_0_opt.xyz
  C -0.02344000 -0.53955900 -1.40942200
  C  0.05296359 -0.22639005 -0.07461462
  N  0.41140509 -1.13208401  0.87406657
  O  0.37894726 -0.48780786  2.04340413
  C  0.01524701  0.78163526  1.89224628
  C -0.21300944  1.03834468  0.56797803
  H -0.51659775  1.95392776  0.11078078
  H -0.31092944  0.20470570 -2.13045650
  H  0.20161866 -1.53224361 -1.75493868
