15
opt_min/./Product_10974_0_opt.xyz
  C  2.19294300 -0.06093500  0.12493700
  C  0.70764177 -0.08104625  0.02843246
  C -0.09197147 -1.07316125 -0.36963907
  H  0.24129920 -2.05153252 -0.67531628
  C -1.54020129 -0.70918178 -0.36889732
  H -1.93982642 -0.75441659 -1.38484382
  H -2.12375358 -1.40584523  0.23620739
  C -1.56355047  0.71328274  0.19354294
  H -2.05712787  0.76519557  1.16404601
  H -2.06145335  1.42565658 -0.46322303
  C -0.10468745  1.10331408  0.37742141
  O  0.30211644  2.17662438  0.75102840
  H  2.49148640  0.60083815  0.93563991
  H  2.62302945  0.32778100 -0.79770913
  H  2.58964850 -1.05849667  0.29832722
