13
opt_min/./Product_9064_0_opt.xyz
  O  0.20177900 -1.31244100 -0.57165500
  C  0.86389032 -0.24077102 -0.02509986
  C  2.17927822 -0.21755370  0.10350907
  H  2.67023960  0.63223130  0.53423908
  H  2.78852829 -1.04151902 -0.21747987
  C -0.12043929  0.83317883  0.37957942
  H  0.10785952  1.77209052 -0.12273123
  H -0.05801501  1.01683223  1.45197458
  C -1.47003885  0.25527566 -0.03974587
  H -1.95542692  0.83629157 -0.82319068
  H -2.17156882  0.14041820  0.78308206
  C -1.12982406 -1.11908330 -0.60224456
  O -1.88905146 -1.93108773 -1.03886707
