14
opt_min/./Product_3254_0_opt.xyz
  C -1.74056900 -0.21500100  0.24784500
  C -0.51372349  0.00736699 -0.63813578
  H -0.83641406  0.44745804 -1.58438789
  C  0.59795470  0.83853989  0.05289641
  H  0.24113653  1.27508992  0.98343624
  H  0.93681996  1.63941724 -0.60246592
  C  1.70364152 -0.18251277  0.29988850
  H  1.82739413 -0.45679060  1.34933974
  H  2.67146954  0.09630450 -0.11854589
  O  1.26894682 -1.38877803 -0.39162150
  C  0.11603804 -1.33835558 -0.91398228
  H -2.47542897 -0.81801458 -0.27731894
  H -1.46637657 -0.73483293  1.16418006
  H -2.18671867  0.74182861  0.51364775
