14
opt_min/./Product_393_0_opt.xyz
  C -2.04441200  0.22583500  0.50799500
  C -0.78990437 -0.42576716 -0.05550996
  C  0.46725133  0.27292772  0.40227108
  O  0.48506161  1.29478921  1.04454866
  C  1.77681139 -0.36117237 -0.03107821
  O  2.86465367  0.19436619  0.64848673
  H  2.55907611  1.05361535  0.98817956
  H  1.77319179 -1.44316782  0.13177158
  H  1.87493738 -0.17728317 -1.11586580
  H -0.80242487 -0.38277447 -1.15013098
  H -0.72288303 -1.47599362  0.23847064
  H -2.00527620  0.21931541  1.59503535
  H -2.93081621 -0.31341786  0.17933072
  H -2.11013917  1.25940937  0.17571240
