11
opt_min/./Product_8699_0_opt.xyz
  O -2.55053700 -0.44533000  0.29013000
  C -1.41811189 -0.19232600  0.59842231
  C -0.38488040  0.25350258 -0.41160065
  C  0.98655314  0.47982647  0.12592635
  H  1.06175801  1.35795245  0.76153588
  N  2.19049681  0.13743796 -0.70765661
  C  1.93871054 -0.60788876  0.26571219
  H  2.25031017 -1.47179173  0.80247967
  N -0.66053384  0.42513883 -1.62746211
  H -1.64108786  0.23903833 -1.85173258
  H -1.05872065 -0.27438535  1.64461878
