14
opt_min/./Reactant_6201_0_opt.xyz
  C  0.98592400  0.60168500  0.80231100
  H  1.41617712  0.46551652  1.77952036
  H  0.52404130  1.56057677  0.63987429
  C  1.65762625 -0.05329553 -0.36548997
  H  2.55168125 -0.63209900 -0.19660706
  H  1.65232737  0.46991253 -1.30576237
  C  0.35155087 -0.58726943  0.14653417
  C -0.88601078 -0.42595910 -0.68584202
  H -0.96560850 -1.12349853 -1.51602305
  C -2.11590668  0.10427332 -0.09665333
  H -2.10647845  0.42386719  0.93848012
  H -3.08314308 -0.20361437 -0.47630544
  O -1.33310936  0.86684607 -0.96714496
  H  0.38405765 -1.52290877  0.68875605
