16
opt_min/./Product_9349_0_opt.xyz
  C  2.41421100 -1.00156500  0.14120300
  N  1.23293860 -0.99531224  0.54603240
  C  0.16059600 -0.69116878 -0.35310105
  C -0.37370887  0.70456414 -0.01688443
  H  0.43190483  1.43689159 -0.13215951
  C -1.69927444  1.10887457 -0.71788516
  H -1.66386437  2.05600864 -1.25709907
  H -2.12174757  0.33892881 -1.36429032
  C -2.27780808  1.17464502  0.66676613
  H -3.27100424  1.43276231  0.99298106
  C -1.14767970  0.82719328  1.26993296
  H -0.82141242  0.65858030  2.28004224
  H  0.48248506 -0.71384292 -1.40901091
  H -0.63264952 -1.42340203 -0.19282436
  H  3.20460548 -1.20586034  0.84876391
  H  2.71661349 -0.81931419 -0.89854587
