7
opt_min/./Product_5310_1_opt.xyz
  C  1.54769038 -0.15280000  0.03555505
  O  8.23533160  2.55080345  0.31585093
  N -2.35028107  3.39505925 -2.34519955
  C -14.52434093  3.42423689  4.75330743
  H -1.80841176  6.94660628 -2.44527142
  H  0.81676660 -2.56047907  0.05128895
  H -4.95051278  8.67903404  1.52388188
