17
opt_min/./Product_11914_0_opt.xyz
  C  2.26718600  0.47222900  0.29439700
  C  1.58134122 -0.51012967 -0.25936149
  C  0.17888732 -0.40085825 -0.75281696
  H  0.17699799 -0.58406047 -1.83428670
  C -0.89014988 -1.30299736 -0.07294564
  H -1.36041906 -2.00255460 -0.76279271
  H -0.54468050 -1.84435073  0.80698643
  C -1.71373055 -0.05792753  0.22346523
  H -2.78521700 -0.00044691  0.14810724
  C -0.91038171  0.85616733  1.08991280
  H -0.18067840  0.44124466  1.77124984
  H -1.41152123  1.73928628  1.46129058
  C -0.65491859  0.82118045 -0.38609733
  H -0.75568095  1.69413912 -1.00847640
  H  2.02906351 -1.48881902 -0.39419153
  H  1.84109884  1.45016088  0.42281655
  H  3.28480770  0.34418423  0.62683084
