14
opt_min/./Product_1529_0_opt.xyz
  C -0.25379100  1.52236500  0.24030500
  C  0.13603436  0.08707976 -0.02118314
  O  1.54726776 -0.00704007 -0.13931919
  C  2.08011392 -1.19263146 -0.19620577
  H  3.17038047 -1.00797599 -0.29424485
  C -0.63024638 -1.05239714  0.58119401
  H -0.05689462 -1.89746814  0.92660754
  H -1.49237367 -0.80190834  1.17763741
  C -0.69797496 -0.80696586 -0.89649335
  H -1.60610589 -0.41893256 -1.32744116
  H -0.14943807 -1.48129678 -1.53814416
  H  0.26042687  2.16798476 -0.46894226
  H -1.32365410  1.65308919  0.11633425
  H  0.02874721  1.81712339  1.24798920
