9
opt_min/./Product_3606_0_opt.xyz
  N  2.91275700 -0.28841501  0.23933199
  C  1.86693399  0.10633482  0.00025530
  C  0.53285501  0.56497823 -0.29493466
  N -0.44392210 -0.54121103 -0.13840338
  C -1.50870959 -0.58879297  0.57263736
  H -1.64534622  0.34482508  1.14855503
  H -0.21004848 -1.34747048 -0.71099057
  H  0.50290941  0.93669267 -1.32628022
  H  0.26482189  1.36888489  0.39917287
