17
opt_min/./Product_11162_0_opt.xyz
  C  2.16627700  0.53230300  0.18904700
  C  1.92665177 -0.68432751 -0.26686882
  C  0.59936219 -0.77328315 -0.94365596
  H  0.65999674 -1.21867008 -1.93673777
  C -0.55176323 -1.31697877 -0.06862638
  H -1.19049811 -2.04066259 -0.57066969
  H -0.22183312 -1.73381631  0.88060923
  C -1.14213173  0.09868165  0.02833042
  H -1.17192477  0.50578848  1.03764693
  H -2.12565269  0.20207737 -0.42250418
  C  0.00752491  0.65551420 -0.83262690
  C  1.05932025  1.50313530 -0.10279471
  H  0.66647712  1.92959166  0.82252854
  H -0.31904855  1.11875407 -1.76181009
  H  2.56587569 -1.54628114 -0.17746489
  H  3.04713342  0.86201984  0.71484440
  H  1.42207900  2.33287011 -0.71275390
