13
opt_min/./Product_8764_0_opt.xyz
  O  2.64369900  1.15844500 -0.01787400
  C  1.79538626  0.34261494  0.21091752
  C  0.12552984 -0.83730567 -1.31821143
  H  0.29046880 -0.88827298 -2.38213363
  O  0.17798103 -2.01544680 -0.57364552
  C -0.99713129 -1.26452033 -0.48138556
  C -0.75562080 -0.12244329  0.51095305
  C  0.42109483  0.35777517 -0.38232918
  H  0.22554426  1.31196761 -0.87416723
  H -0.46113901 -0.46118473  1.50410328
  H -1.57454547  0.58564446  0.56767647
  H -1.93209285 -1.73051761 -0.74193441
  H  1.97679371 -0.52088599  0.87521511
