10
opt_min/./Product_5710_0_opt.xyz
  O  1.37940700  0.70493200  1.33985000
  C  1.57642682  0.45336216 -0.00494452
  O  1.44410108 -0.86273651 -0.41061853
  C  0.16891407 -1.23672623 -0.10762882
  C -0.60250499 -0.24275003  0.34862672
  C  0.26880999  0.94070025  0.48552483
  H -0.08931067  1.95862176  0.43072294
  H -1.63733795 -0.27973156  0.61400528
  H -0.06396176 -2.26989949 -0.28643758
  H  2.35216241  1.00053630 -0.51978348
