15
opt_min/./Product_10864_0_opt.xyz
  C  0.62155600  1.49657000  0.31280100
  C -0.03641839  0.11562573  0.29348211
  C  1.00397444 -1.02141961  0.24455017
  O  1.83269393 -0.90109546 -0.86967895
  H  1.27830279 -0.86341269 -1.65770107
  H  1.64000224 -0.96381409  1.12761369
  H  0.47633591 -1.98552698  0.25168852
  C -1.08733274 -0.07784236  1.36084975
  C -2.00122549 -0.24723676  0.19522452
  H -2.45244603 -1.24249236  0.15799781
  H -2.79723826  0.49702756  0.15060509
  O -0.99311881 -0.04811996 -0.78733375
  H  1.67754444  1.41003782  0.53891049
  H  0.14884137  2.13418808  1.05408982
  H  0.50360859  1.94725683 -0.66667509
