15
opt_min/./Product_11884_0_opt.xyz
  C -2.09616500 -0.36009100 -0.54729000
  C -1.24163659  0.74368167 -0.04004658
  N  0.06421940  0.61322173  0.06058352
  C  0.98251385  1.52959467  0.45565728
  H  0.72651927  2.52636893  0.74720394
  N  2.23261420  1.04821354  0.46197442
  C  2.20189849 -0.18461161  0.07722526
  H  3.07228795 -0.79828069 -0.03412987
  C  0.78965732 -0.61097226 -0.23732920
  H  0.67464883 -0.89835352 -1.28687744
  H  0.42682796 -1.43177525  0.38912291
  H -1.66349362  1.70422062  0.19531036
  H -1.96967444 -0.49514303 -1.62799160
  H -1.84997939 -1.31063796 -0.06940336
  H -3.14293868 -0.14099646 -0.35554270
