12
opt_min/./Product_7777_0_opt.xyz
  C -2.00934400  0.23747200  0.19431900
  C -0.63063783 -0.28289196  0.06909391
  N -0.27979030 -1.45887154 -0.33894622
  N  1.06465744 -1.55735759 -0.29770671
  C  1.52878767 -0.43424349  0.14750491
  O  2.81201001 -0.15219734  0.35574511
  H  2.95344978  0.79330735  0.46610422
  N  0.49688895  0.44205172  0.40053098
  H  0.54866207  1.38099630  0.75596351
  H -2.37183861  0.09105986  1.20990661
  H -2.03855272  1.30142789 -0.02761703
  H -2.65739086 -0.29736940 -0.48748792
