8
opt_min/./Product_1237_0_opt.xyz
  N  0.28265100 -0.81371300  0.46146400
  C  1.19833639  0.01437842  0.14659583
  H  2.23694896 -0.12594409  0.35827962
  N  0.71085810  1.15821240 -0.50914320
  N -0.51651040  1.04121411 -0.61509398
  C -0.91787944 -0.20800085 -0.01522916
  H -1.62385070 -0.02226550  0.79388714
  H -1.41311478 -0.83960882 -0.75421401
