8
opt_min/./Reactant_1237_0_opt.xyz
  N  0.03864500  0.70161500  0.16425600
  H  0.05414735  1.70668858  0.16518995
  C -1.05738981 -0.10422447  0.26084270
  H -2.05955894  0.25156872  0.35168297
  N -0.69880442 -1.34926928  0.22573598
  N  0.63527352 -1.39414906  0.10582702
  C  1.07731408 -0.17559714  0.06892697
  H  2.10467518  0.10654650 -0.02270054
