11
opt_min/./Product_6562_0_opt.xyz
  C -1.69778300 -0.49032500 -0.54761300
  C -0.90056867  0.73508214 -0.55222454
  H -1.17731779  1.77340868 -0.55942536
  C -0.27012431 -0.12244380  0.59944218
  H -0.69632427 -0.30585777  1.57700238
  C  1.08074319  0.31476258  0.09368858
  H  1.91254102 -0.38062723  0.20932766
  H  1.38207702  1.34132583  0.30645552
  N  0.33391130  0.16409141 -1.19386881
  C -0.35911323 -1.06080212 -0.65540427
  H  0.01461073 -2.05962526 -0.78715002
