9
opt_min/./Reactant_2063_0_opt.xyz
  O  0.01372800 -1.35138000 -0.41230000
  C  1.07852332 -0.53579125 -0.34308546
  H  2.04831187 -0.99295334 -0.31461335
  C  0.68832925  0.76521054 -0.32236453
  H  1.32176805  1.62662869 -0.27035295
  C -0.72919212  0.74418895 -0.38383505
  H -1.39071176  1.58551155 -0.38800491
  C -1.07643316 -0.56826952 -0.43655032
  H -2.03059103 -1.05556431 -0.49155640
