15
opt_min/./Product_9607_0_opt.xyz
  O  2.27402300 -1.89019800 -0.71896700
  C  1.50869571 -1.20108170 -0.09708413
  C  0.84496286 -0.00552485 -0.62438914
  H  1.11435177  0.21789032 -1.64730894
  C -0.55192469  0.40926372 -0.19566371
  C -1.38247223 -0.45280032  0.74341926
  H -1.00524560 -1.46822699  0.80021746
  H -2.40125517 -0.50091232  0.36574393
  H -1.40545482 -0.02860683  1.74473003
  O -1.28083953  0.99563663 -1.23061587
  H -1.88044333  1.65636911 -0.86447688
  C  0.62579056  1.16826382  0.32038726
  H  0.92379008  1.04589931  1.34928891
  H  0.81647281  2.14994242 -0.08466868
  H  1.29325023 -1.42965358  0.96644349
