14
opt_min/./Product_3976_0_opt.xyz
  C -2.22576600  0.46785900  0.89467100
  O -0.82731482  0.59003222  0.87071743
  C -0.24064189  0.00005319 -0.25989431
  C  1.27232587  0.08183017 -0.12712791
  O  1.73429876 -0.95791980  0.76994737
  C  2.93169546 -1.31894286  0.86639504
  H  3.62521763 -0.77027186  0.17336576
  H  1.55323951  1.04389378  0.30929054
  H  1.75645800 -0.05079099 -1.09974173
  H -0.54363360 -1.05281714 -0.35429799
  H -0.55232850  0.53673678 -1.17351742
  H -2.53598485 -0.58364779  0.91334754
  H -2.67767278  0.94939007  0.01668602
  H -2.56258438  0.96667216  1.80050240
