13
opt_min/./Product_454_0_opt.xyz
  O  1.20984700 -1.25074300 -0.60702800
  C  1.55861740  0.01386120 -0.12116367
  H  2.59460668  0.27970719 -0.01399384
  C  0.38193150  0.94825953 -0.41549358
  H  0.11492568  0.99540973 -1.46982365
  H  0.48713749  1.94794745 -0.00708868
  C -0.52473755 -0.01124240  0.43781123
  N -1.64922006 -0.67494701 -0.14476011
  H -1.35997087 -1.19628355 -0.96625838
  H -2.37779291 -0.02103565 -0.40603923
  H -0.83564020  0.46613962  1.36989420
  C  0.71113293 -0.90175284  0.65353308
  H  0.91803087 -1.53874106  1.49494049
