14
opt_min/./Product_8408_0_opt.xyz
  C  1.17879100 -0.83941000  0.13771900
  H  1.91976870 -1.61436974  0.28617876
  C  1.47777693  0.45302029  0.25576120
  H  2.47084176  0.78553976  0.51728501
  C  0.46093376  1.46204832  0.02280211
  H  0.78330539  2.48529511 -0.10027343
  C -0.82773796  1.12852154 -0.01476833
  H -1.60003664  1.87161540 -0.14978254
  C -1.25443411 -0.29143907  0.21855693
  H -2.21187325 -0.48930110 -0.26493181
  H -1.40049076 -0.43033291  1.29779581
  C -0.19347260 -1.26792023 -0.29112954
  H -0.41247281 -2.27763497  0.05796774
  H -0.22161472 -1.28801374 -1.38777914
