20
opt_min/./Product_9132_0_opt.xyz
  C  2.10287800 -0.37357500  0.07161500
  C  1.31651212 -0.25317965 -1.20575606
  N  0.11652531  0.00771883 -1.44464724
  C -0.96038602  0.24412922 -0.50598461
  C -1.25290413 -0.96364164  0.39404175
  H -2.21544500 -0.83075884  0.88165126
  H -0.50430535 -1.08943214  1.17030158
  H -1.29067366 -1.87008469 -0.20518245
  C -0.68820310  1.49187749  0.34851162
  H  0.18874365  1.36083973  0.97524984
  H -0.52809105  2.35215776 -0.29464850
  H -1.54240479  1.69151216  0.99156782
  C -2.19121516  0.49535942 -1.39479240
  H -1.99899957  1.32680641 -2.06480507
  H -2.39153431 -0.38571399 -1.99648280
  H -3.06733455  0.72218584 -0.79338885
  H  1.92526921 -0.38529656 -2.09706889
  H  2.83337994 -1.17518471 -0.02616758
  H  2.65458930  0.55353504  0.22400836
  H  1.48809400 -0.56371022  0.94225796
