15
opt_min/./Product_6675_0_opt.xyz
  C  2.39409300  0.42199000 -0.21661200
  C  1.15483517 -0.43561181 -0.27899040
  O  1.18858227 -1.60438350 -0.57075881
  C -0.12878760  0.28426584  0.06516800
  C -1.34355435 -0.63776729  0.02584098
  C -2.61537595  0.06730672  0.38604340
  O -2.70737019  1.22171009  0.69840030
  H -3.51401343 -0.58094035  0.34003211
  H -1.20382540 -1.47270298  0.71560465
  H -1.45683189 -1.07574733 -0.96871295
  H -0.26278477  1.11276195 -0.63393537
  H -0.03024334  0.73117772  1.05705525
  H  2.93944120  0.33442724 -1.15319133
  H  3.04587087  0.04417098  0.56788396
  H  2.16587926  1.46517291 -0.02119776
