11
opt_min/./Product_105_0_opt.xyz
  C -1.77723700 -0.22418400  0.00752200
  H -2.59002811 -0.76383294  0.42574272
  C -1.26326367  0.88948267 -0.42412767
  H -1.34726179  1.93272225 -0.60731834
  C -0.36511778 -0.30989314 -0.49484657
  C  0.76683853 -0.47706097  0.47911468
  H  0.48924803 -0.79426417  1.48151245
  N  2.07764935 -1.00998167 -0.04185731
  C  2.03490656  0.19911415  0.28448662
  H  2.62400905  1.08472754  0.32205191
  H -0.16775797 -0.77377736 -1.46000626
