12
opt_min/./Product_7524_1_opt.xyz
  C -0.04956640 -0.01037526 -0.18147396
  C -2.03372667 -0.38737845 -3.04036261
  H -8.53106948  0.87865740 -6.08784720
  H -2.16501523  0.20818551 -3.95207465
  H -4.24839415  7.93299477  0.06674484
  C -1.18111358 -0.17031115  0.20893511
  H -1.25317222  1.89627711  2.81223136
  H -2.04347531 -1.45282952 -3.26510524
  H -8.53707506 -0.68144878 -5.30475640
  C  1.20442874  0.02214551 -0.71421127
  N  2.26814972  0.08297414 -1.14043530
  H -3.05345631  11.19720660 -8.48128804
