12
opt_min/./Product_3037_0_opt.xyz
  O  1.03841100  0.02897200  0.56769900
  C -0.12006918 -0.09490556 -0.23306428
  H  0.09230133 -0.40807640 -1.24753798
  C -1.37124730 -0.56691772  0.43808661
  H -2.03034836 -1.22064348 -0.10981603
  H -1.30570650 -0.78209730  1.49247130
  C -1.24028460  0.86711431  0.01574950
  H -1.10783431  1.61059886  0.78415684
  H -1.79630281  1.20867484 -0.84286309
  C  2.20594489 -0.18718806 -0.00026471
  O  2.42432466 -0.47566161 -1.14015223
  H  2.99735063 -0.05171379  0.75806332
