9
opt_min/./Product_1474_0_opt.xyz
  C  2.16327700  0.06031195  0.01625992
  C  0.86553774  0.02615101  0.00712330
  C -0.41146090  0.05552257 -0.02774736
  C -1.75625688  0.57427420 -0.27179207
  O -2.49403197  1.42078969 -0.64465323
  N -1.62419246 -0.64195042  0.25255083
  H -1.99144365 -1.49958483  0.61924885
  H  2.75581573 -0.28025005 -0.81827093
  H  2.71971230  0.41665281  0.87025191
