10
opt_min/./Product_599_0_opt.xyz
  N  2.02310400  0.49349000  0.01792800
  C  0.87858906 -0.01539679 -0.04744039
  C -0.43644783  0.70696419  0.18562007
  H -0.51502128  1.12784740  1.18957471
  H -0.59171943  1.50659262 -0.54145540
  N -1.33794661 -0.40407897 -0.02320450
  H -2.33804899 -0.37369411  0.04459909
  N -0.69167963 -1.50673574 -0.31473818
  N  0.54329469 -1.35226358 -0.34583905
  H  2.77254045 -0.16125957 -0.17685172
