16
opt_min/./Product_11376_0_opt.xyz
  C -1.25823624  0.40787462  0.95080083
  C  0.02713186  0.03525309  0.21063960
  C  0.82402284  1.28167985 -0.17479716
  H  1.75857705  1.00096271 -0.65780205
  H  1.04868497  1.87794768  0.70956288
  H  0.23852742  1.88697655 -0.86471755
  C -0.30323203 -0.80997167 -1.04318132
  O  0.82815491 -1.14896849 -1.79254104
  H  1.43876220 -1.64205330 -1.22836686
  H -0.84974717 -1.71436019 -0.73008583
  H -0.94607535 -0.22387213 -1.70610852
  N  0.82063769 -0.76955903  1.05510266
  C  1.47793769 -1.46316920  1.71829614
  H -1.87511532  1.04847147  0.32290123
  H -1.02168409  0.94988673  1.86561995
  H -1.82409355 -0.48551710  1.20956170
