13
opt_min/./Product_2314_0_opt.xyz
  O  1.58520300  1.26760000 -1.02935900
  C  0.69441896  0.86084618 -0.33913265
  N -0.79184860 -0.92413804 -0.83922948
  C -2.05398220 -0.95306296 -0.30353895
  C -2.42209658 -0.57352818  0.91576968
  H -1.74591606 -0.17426947  1.64947388
  H -3.44713388 -0.67187684  1.21916242
  H -2.79702981 -1.32468345 -0.99687312
  C  0.39885116 -0.60319317 -0.08849423
  H  1.23665620 -1.21802469 -0.42760296
  H  0.21727479 -0.78463125  0.97249493
  H -0.66592961 -1.19141927 -1.79850203
  H -0.05360269  1.54366480  0.10408873
