14
opt_min/./Product_563_0_opt.xyz
  C  1.24911900 -0.59506100  0.02037000
  H  2.14036895 -0.84155571 -0.55620431
  H  1.41868655 -0.98486705  1.03108728
  C  0.10506482 -1.43865614 -0.37756866
  C -1.21533741 -0.83206465 -0.11135807
  H -1.42723727 -1.26323737  0.87368490
  H -1.97376944 -1.23750110 -0.78551403
  C -1.28485061  0.69940814 -0.04614553
  H -2.20124238  1.04803819  0.43036507
  H -1.25207074  1.10801179 -1.06770664
  O -0.21210415  1.22531148  0.70344770
  C  1.01965436  0.92053374  0.08787813
  H  1.02694427  1.34282834 -0.92905963
  H  1.79611111  1.42600605  0.66367171
