10
opt_min/./Product_1028_1_opt.xyz
  O  1.24382898 -0.25226194 -0.96487855
  C  0.33787613 -0.31058797  0.03122986
  C -0.25471183  0.76923532  0.81417918
  O  0.04500304  1.72569628  1.46725635
  C -0.78820455 -1.27509822  0.04535350
  H -0.93049476 -1.85808345 -0.86019401
  H -0.94671994 -1.85809221  0.94568111
  C -1.28957474  0.14402560  0.04744291
  H -1.95095828  0.59195655 -0.66779693
  H  1.82982082  0.50607012 -0.84602350
