13
opt_min/./Product_5119_0_opt.xyz
  C  2.04930700 -1.47413900  0.20875700
  O  1.16980726 -0.76929638 -0.64854598
  C  0.19306629 -0.09439049 -0.04078927
  N  0.07361154 -0.08344434  1.20711136
  H -0.68156822  0.45846510  1.59659229
  O -0.54009395  0.52612323 -1.00027653
  C -1.69270876  1.22610705 -0.57808126
  H -2.19214156  1.53894893 -1.49162821
  H -2.35496217  0.57959288  0.00226625
  H -1.43458742  2.11418527  0.00584743
  H  2.74544345 -1.99429577 -0.44597173
  H  1.49750696 -2.18317386  0.82389780
  H  2.59176546 -0.78727322  0.85779251
