17
opt_min/./Product_10880_0_opt.xyz
  C  0.99343200 -0.37810500 -1.78097700
  C  0.89346535 -0.24787192 -0.27349075
  H  1.39155573 -1.09434316  0.21301585
  O  1.41796691  0.99684579  0.22681327
  C  0.21102268  1.35667097  0.88393609
  H -0.18184249  2.31576283  0.53817870
  H  0.32250603  1.38573864  1.97134075
  C -0.50000463  0.08898496  0.33267790
  C -1.58259766  0.29368301 -0.61946514
  H -2.31262113  0.99694912 -0.18192974
  C -1.02109558 -0.87812097  1.39956749
  H -0.21706347 -1.10907135  2.09250618
  H -1.85392894 -0.43668280  1.93965590
  H -1.35617120 -1.79909433  0.92899939
  H  0.21755273  0.21941456 -2.25166869
  H  0.85973150 -1.41274219 -2.07886103
  H  1.96812517 -0.03090580 -2.10734568
