13
opt_min/./Product_8306_0_opt.xyz
  C -0.81486100 -1.36034800  0.18146500
  C -0.14142362 -0.17368190 -0.50674926
  H -0.19968016 -0.30376148 -1.59366390
  C -0.78000096  1.18510494 -0.11341221
  O -1.93346365  1.48062732 -0.25064671
  N  0.21603563  1.97537720  0.44381280
  C  1.30292742  1.28290622  0.43112454
  H  2.23537937  1.65434529  0.81513769
  N  1.22035486  0.05252466 -0.08886704
  H  1.97297917 -0.60513604 -0.15376132
  H -0.48832615 -2.29994418 -0.25274236
  H -1.88796264 -1.27359018  0.04436723
  H -0.59547434 -1.35864614  1.24424633
