14
opt_min/./Product_8374_0_opt.xyz
  O -0.82650800  2.10586100  0.80715100
  C -0.79921810  0.92568290  0.64322910
  C -1.84063546 -0.14146255  0.35139935
  H -2.56771150 -0.28535364  1.15125704
  H -2.36641284 -0.02187000 -0.59709446
  N -0.75811940 -1.13718661  0.24947929
  H -0.84904555 -1.93209590  0.87016524
  C  0.27275929 -0.15615947  0.62996792
  C  1.36100884 -0.03383519 -0.45352435
  O  2.35724530  0.89420807 -0.15139323
  H  2.79741977  0.65206784  0.67193912
  H  1.77342785 -1.04058404 -0.61821032
  H  0.90173200  0.29990939 -1.38572885
  H  0.75043587 -0.31108780  1.60422196
