13
opt_min/./Product_8554_0_opt.xyz
  N  2.45370700 -0.60617300  0.41746000
  C  1.47078848 -0.06156907 -0.11290154
  C  0.68568050  1.07456096 -0.60163946
  H  1.04600480  1.83574606 -1.27819104
  O -0.46808382  1.46179469  0.09375867
  C -1.09903248  0.25851583  0.47993997
  H -0.60921139 -0.13637643  1.38402893
  H -2.14892234  0.45580466  0.68220563
  C -0.81568131 -0.70248515 -0.69364437
  H -0.89846852 -1.75358240 -0.42926863
  H -1.45620010 -0.47164939 -1.54941084
  N  0.52611580 -0.32509801 -1.07646206
  H  3.05303758  0.00892454  0.96234620
