15
opt_min/./Product_7359_0_opt.xyz
  C  1.30303800  0.97028300  0.14023900
  H  1.23820248  1.64766644 -0.69742053
  H  1.59655180  1.44402132  1.06301740
  C  1.73942345 -0.45355443 -0.09564030
  H  2.30069053 -0.93650930  0.68819412
  H  1.97681098 -0.78537192 -1.09494841
  C  0.31488105 -0.14639430  0.21326863
  C -0.92453485 -0.27064565 -0.64857278
  H -1.23144794  0.65632841 -1.14525780
  H -1.00597840 -1.11257292 -1.33048730
  C -1.58762192 -0.58887794  0.75404106
  C -2.27393926  0.63593427  0.50549877
  H -3.23912597  0.38864900  0.02940303
  H -2.05264131 -1.57544502  0.84271722
  O -0.32155371 -0.55784379  1.40791202
