15
opt_min/./Product_7734_0_opt.xyz
  C  2.07602400  0.44553300  0.50021500
  C  0.90244364  0.05255541  0.04681367
  C  0.11806468 -1.21000085  0.07626271
  H  0.50939875 -2.21085722  0.03961491
  C -1.24013744 -0.89571616  0.64990225
  H -1.33604117 -0.08894867  1.36156943
  H -1.88445095 -1.73783292  0.84982287
  C -0.95991829 -0.55545876 -0.77512135
  H -1.50349232 -0.97091164 -1.60534331
  C -0.14639968  0.74279344 -0.81198447
  O -0.77445803  1.90204370 -0.31544829
  H -0.25490196  2.23243914  0.42510820
  H  0.23498050  0.95875530 -1.82020710
  H  2.71913030 -0.21634090  1.05702108
  H  2.43855212  1.44723676  0.33235680
