7
opt_min/./Product_2954_0_opt.xyz
  C  0.24159700  0.47655500  0.02079300
  O  1.44900950 -0.07635849 -0.24098142
  H  1.34093163 -1.02244970 -0.40885173
  C -0.91894804 -0.15887147  0.03383474
  H -0.98367385 -1.21663759 -0.16377126
  H -1.82962368  0.36413378  0.24962801
  H  0.33103742  1.53392734  0.22141648
