16
opt_min/./Product_11566_0_opt.xyz
  C  1.66864300 -0.54887300 -0.87564200
  C  0.19444056 -0.82799666 -0.61119412
  C -0.44030823  0.16432533  0.37439263
  C -0.48561279  1.59736186 -0.15913902
  H  0.51731418  2.00338582 -0.23759847
  H -1.06192466  2.22209177  0.51644848
  H -0.95715393  1.61999476 -1.13825008
  N -1.76305111 -0.24686947  0.70883392
  C -2.74197092 -0.80882537  0.34615322
  O -3.77232543 -1.31951035  0.18884133
  H  0.11945917  0.14450321  1.31679019
  H  0.09402774 -1.82835168 -0.18643458
  H -0.36389653 -0.80004869 -1.54890732
  H  1.81194280  0.41101292 -1.36167314
  H  2.23348886 -0.55731773  0.05325480
  H  2.07481337 -1.31952665 -1.52577453
