17
opt_min/./Product_10324_0_opt.xyz
  C -1.32061800  0.47473700  0.83996100
  C -0.79034212 -0.17184152 -0.44186354
  C  0.64956838  0.29232378 -0.78049076
  O  0.52820396  1.64558682 -1.16616965
  H  1.40353354  1.98362292 -1.38310883
  C  1.64485346  0.11836548  0.38542235
  H  1.86238106  1.08846445  0.82174176
  H  1.22880790 -0.50639334  1.16505027
  H  2.56936637 -0.32777319  0.03947432
  H  0.98645556 -0.29849412 -1.64500799
  C -0.83344604 -1.67580790 -0.31203521
  O -1.42374075 -2.42267630 -1.03725370
  H -0.25744968 -2.05708849  0.55877595
  H -1.41302514  0.10864041 -1.29200836
  H -0.94947164 -0.03103954  1.72681277
  H -2.40346217  0.43739152  0.85355205
  H -1.00502223  1.51167447  0.86897435
