12
opt_min/./Product_6746_0_opt.xyz
  O -1.21192300  0.66686900 -1.62464700
  C -1.48447860 -0.10821122 -0.75786154
  C -0.82893100 -0.19799132  0.59513286
  C  0.45192750  0.63560970  0.67307310
  N  1.45957602 -0.02453186 -0.07515214
  C  2.55018505  0.03907415 -0.53871456
  O  3.57075857 -0.08824237 -1.07283845
  H  0.77450816  0.73822762  1.71492462
  H  0.25859794  1.62791672  0.25145614
  H -1.55853072  0.14508244  1.33300331
  H -0.61540313 -1.24649451  0.81148659
  H -2.29857484 -0.85666897 -0.87820767
