19
opt_min/./Reactant_8666_0_opt.xyz
  C  1.62953400 -0.66030400 -0.15464400
  C  0.56690257  0.41264032 -0.36826745
  O  1.20997521  1.47560097 -1.03920604
  H  0.61101009  2.22975169 -1.07850914
  C -0.06793153  0.84056340  0.96633451
  H -0.47937540  1.84941618  0.87190590
  H  0.67789067  0.87693883  1.76285201
  C -1.17589202 -0.17895189  1.24357236
  H -2.04311703  0.30980792  1.68453599
  H -0.82443242 -0.92741124  1.95280178
  C -1.51329653 -0.83191978 -0.11215358
  H -1.26773203 -1.89330105 -0.07679568
  H -2.57065634 -0.74101602 -0.35183730
  C -0.64240304 -0.12864387 -1.14910096
  H -0.33942138 -0.80107333 -1.95355567
  H -1.16699247  0.70868956 -1.61480286
  H  2.45643676 -0.25728341  0.41767650
  H  1.19508025 -1.51956735  0.34820781
  H  1.99892555 -0.99058772 -1.12482776
