14
opt_min/./Product_5807_0_opt.xyz
  C  2.14483200  0.07367900  0.23980400
  C  0.70522967 -0.19225412  0.62085779
  C -0.29867636  0.03699301 -0.44559784
  H  0.09685023  0.26480025 -1.42437850
  C -1.60709612 -0.71110164 -0.37664674
  H -2.03984292 -1.01768132 -1.31548699
  H -1.73150950 -1.42090190  0.42251239
  C -1.58617707  0.73525152 -0.04679354
  H -1.66473293  1.01939802  0.98958202
  H -2.00749434  1.43536216 -0.74776968
  O  0.39480837 -0.56073652  1.72996893
  H  2.23777998  0.61480496 -0.69455238
  H  2.63354735  0.63027372  1.03367463
  H  2.65618630 -0.88192139  0.14851417
