15
opt_min/./Product_9019_0_opt.xyz
  C  1.99687600 -0.06221800  0.05722900
  C  0.52420725  0.21627049  0.10674510
  O  0.00311453  1.08786301 -0.95942184
  C -1.26564350  1.17598194 -0.25758516
  H -1.92667504  1.93529625 -0.65116351
  C -1.77068720 -0.23420149 -0.05437411
  H -2.26860164 -0.61584095 -0.94908387
  H -2.47511097 -0.27195027  0.77704861
  C -0.44774407 -0.94322105  0.23112317
  H -0.22574325 -1.73839208 -0.48381063
  H -0.39584807 -1.36303668  1.23750125
  C -0.01962876  1.55987276  0.46256621
  H  2.24737933 -0.73166056  0.87532391
  H  2.55009996  0.86747207  0.16638470
  H  2.26133046 -0.53627717 -0.88798038
