13
opt_min/./Product_3669_0_opt.xyz
  C  2.07067800 -0.12028900  0.42415800
  C  0.70222248  0.18865076  0.86996550
  C -0.30966486  0.17239714 -0.19261430
  C -1.72328116 -0.18775660  0.26502248
  O -2.70556729  0.10149248 -0.70352484
  H -2.37445435 -0.17532930 -1.56696846
  H -1.97961031  0.39859507  1.14938372
  H -1.75622477 -1.25585311  0.52738004
  H -0.04443318 -0.36691722 -1.11760877
  H -0.28984348  1.25579233 -0.41598310
  H  2.32369147 -1.04210172  0.95955977
  H  2.75351839  0.63553365  0.81802796
  H  2.23164872 -0.26832439 -0.65026780
