16
opt_min/./Product_11706_0_opt.xyz
  C  1.52989300  0.26573400  1.32414200
  H  2.35808537  0.95566904  1.59053007
  C  0.63180397  0.97659759  0.37506875
  H  0.63605081  2.02033989  0.06755845
  N  1.66285542  0.06650257 -0.16837967
  H  2.44798769  0.35124669 -0.74280160
  C  0.65388018 -0.87599242 -0.67931926
  H  0.64774683 -0.90910632 -1.77209564
  H  0.75687478 -1.87781151 -0.26632967
  C -0.44045731  0.00879123 -0.09383930
  C -1.81092707  0.27272401 -0.62233198
  H -2.15608904  1.29663075 -0.63465604
  H -2.13888765 -0.30167587 -1.47771281
  C -1.63443690 -0.42797494  0.69263344
  H -1.85656790 -1.48254601  0.73878005
  H -1.85687752  0.11316512  1.59843095
