15
opt_min/./Product_2581_0_opt.xyz
  C -1.64464600 -0.82283200  0.07695100
  C -0.89519325  0.47418076 -0.20447204
  O -0.73242424  1.14575650  1.02268779
  H -0.27529321  1.98084779  0.87752260
  C  0.46879835  0.21017993 -0.88211352
  N  1.24062769 -0.69410124 -0.08628991
  C  2.18439364 -0.26317433  0.61039127
  H  2.72527286 -0.95775279  1.23481879
  H  2.51585427  0.78237840  0.62770130
  H  0.97835459  1.18027978 -1.02628709
  H  0.29320098 -0.26069996 -1.85044696
  H -1.48855037  1.09517219 -0.89851742
  H -1.82891241 -1.35832413 -0.84811049
  H -1.05442043 -1.44269788  0.74285054
  H -2.59083689 -0.59184861  0.55808098
