8
opt_min/./Product_3504_0_opt.xyz
  C  0.01426318  0.80795854 -0.13468175
  N  1.11430727  0.67337465 -0.74421968
  N  2.09819175  0.57156914 -1.30212036
  C -0.88006223 -0.27488434  0.20121586
  N -0.58365537 -1.50245839  0.12387672
  N -0.33977971 -2.60903274  0.05404059
  H -1.86360276 -0.02988243  0.56574712
  H -0.31260442  1.80760836  0.09773879
