11
opt_min/./Product_905_0_opt.xyz
  N -1.80924700 -0.47826500  0.11173100
  C -0.47776665 -0.31117425  0.06017605
  N  0.38518210 -1.27026267  0.04566134
  N  1.62771177 -0.61749883 -0.03582607
  H  2.44266589 -1.21436496 -0.05975050
  C  1.66110483  0.68365027 -0.07356069
  C  0.18967806  1.04630836 -0.01710566
  H -0.03399992  1.67548434  0.84273297
  H -0.10222469  1.58367882 -0.91983058
  H -2.18834586 -1.39891941  0.24018950
  H -2.41842866  0.31334828  0.19942336
