10
opt_min/./Product_5705_0_opt.xyz
  C -0.79511500  0.58515700  1.74041800
  O -0.21840980  0.86762709  0.46679969
  C  0.22095472 -0.14871050 -0.23217009
  O  0.20110229 -1.30691276  0.03429151
  O  0.74966619  0.36402031 -1.44129532
  C  1.25175498 -0.39801620 -2.33524150
  H  1.21542208 -1.47122314 -2.04067876
  H -0.01941945  0.62381891  2.50667239
  H -1.25990937 -0.40185175  1.73906917
  H -1.53758883  1.35897956  1.92263801
