15
opt_min/./Product_10485_0_opt.xyz
  C -2.31229400  0.76546000 -0.31968200
  C -1.06808529  0.30332111 -0.19154307
  C -0.62992738 -1.11772939 -0.48333986
  H -1.19717028 -1.84799112  0.10483545
  H -0.75936536 -1.35850620 -1.54721075
  N  0.76535002 -1.12721826 -0.10442526
  H  1.39673199 -1.85381286 -0.38147756
  C  1.16311091  0.14065130  0.23052353
  N  2.49988630  0.40042616  0.46924165
  H  3.02792506 -0.37492520  0.84343514
  H  2.65838286  1.26161461  0.97036817
  C  0.11600435  1.00204822  0.23333017
  H  0.15272117  2.04050711  0.49365316
  H -2.55420703  1.78797821 -0.09358220
  H -3.11812906  0.13414532 -0.65052591
