13
opt_min/./Reactant_1421_0_opt.xyz
  C  2.15232791  1.12356518 -0.07873969
  C  1.33746267  0.25727352  0.04489688
  C  0.32253786 -0.77977615  0.13657872
  N -0.94291616 -0.21790280  0.55705322
  C -2.14484955 -0.89906720  0.16305997
  H -2.07314166 -1.79839143 -0.44229262
  H -2.92108620 -0.92586823  0.91562013
  C -1.77066567  0.39279236 -0.45075108
  H -2.27664320  1.29971166 -0.15217819
  H -1.42767581  0.38726538 -1.48103712
  H  0.25302344 -1.28591442 -0.84734068
  H  0.62503620 -1.52163402  0.88703348
  H  2.87556778  1.87946410 -0.16433174
