11
opt_min/./Product_2691_0_opt.xyz
  C -1.60608402  0.27538281  0.20076779
  C -0.16205874 -0.19542221  0.08324892
  C  0.78241263  0.91223530 -0.19723262
  O  2.02685296  0.71805996  0.18088389
  C  2.50486907 -0.30437410  0.80038261
  N  2.99916959 -1.18334073  1.34069930
  H -0.06541953 -0.81478341 -0.82559267
  H  0.12334004 -0.83185324  0.93282324
  H -2.28603484 -0.57464065  0.17348105
  H -1.75392800  0.79924097  1.14264122
  H -1.84536146  0.95137436 -0.61586733
