15
opt_min/./Product_10513_0_opt.xyz
  C -2.19438700 -0.76199600  0.10109100
  C -0.90519305 -0.18021183 -0.46046317
  C -0.06755085  0.47645751  0.64940233
  C  1.19357499  1.01765316  0.04519687
  O  1.35347282  2.06277277 -0.49228780
  O  2.21768380  0.04904779  0.15492966
  C  3.41118378  0.37652479 -0.28563829
  H  4.02961192 -0.53157780 -0.11342509
  H  0.17344659 -0.26388729  1.41243338
  H -0.62857124  1.30324028  1.09049685
  H -0.31851282 -0.97533448 -0.92803929
  H -1.13121795  0.56653904 -1.22429367
  H -1.98079261 -1.57786384  0.78865757
  H -2.81514052 -1.14462746 -0.70730200
  H -2.75905363  0.00012134  0.63542679
