12
opt_min/./Product_3843_0_opt.xyz
  N  2.19268400  0.31070300  0.15773700
  C  0.96052260  0.13978282  0.04178776
  C -0.08377524  1.03050208 -0.58674222
  H  0.17673532  1.34158927 -1.59467479
  H -0.38382836  1.90511364 -0.00422721
  C -1.05291778 -0.15846885 -0.47914906
  H -1.78256447 -0.46117887 -1.21032982
  C -0.01446350 -0.98853157  0.21962912
  H  0.19145259 -2.04708874  0.20221124
  N -1.21396071 -0.53149133  0.88890274
  H -1.08511503  0.21698740  1.56758756
  H  2.72131735 -0.48169699  0.52379228
