12
opt_min/./Reactant_1047_0_opt.xyz
  C -1.32841800  0.67681900 -0.20959200
  C -0.60505362 -0.41535345  0.53880792
  H -1.06555975 -0.66924230  1.49255710
  O -0.12081773 -1.51068183 -0.16255749
  C  0.84911412 -0.68764187  0.43903573
  C  1.77185785  0.01433221 -0.48884484
  O  2.95192655  0.10483053 -0.29967193
  H  1.30109846  0.42522760 -1.39933961
  H  1.34938850 -1.12543896  1.30073083
  H -2.21087768  0.25048759 -0.68060225
  H -0.71290970  1.12600571 -0.98077355
  H -1.64452454  1.44954157  0.48419009
