14
opt_min/./Product_6025_0_opt.xyz
  C -2.51433300  0.08543800  0.82739600
  C -1.38512945 -0.09632468 -0.08175820
  C -0.31339834  0.94431668  0.03301091
  C  0.97565781  0.74727077  0.25830121
  C  1.70191529 -0.56162973  0.38046616
  O  2.78124750 -0.65122788 -0.52724831
  H  2.46345743 -0.40421751 -1.40366708
  H  2.14406991 -0.65670407  1.37430703
  H  1.01275081 -1.40885063  0.23357582
  H  1.63666290  1.60176532  0.32944948
  H -0.68329260  1.95777389 -0.04084467
  H -1.84248895 -0.02590143 -1.08201639
  H -0.97075510 -1.11681020 -0.05081736
  H -3.16419959 -0.80708240  0.77684390
