15
opt_min/./Product_9029_0_opt.xyz
  C  1.84737100 -0.63268200  0.32507500
  C  0.54036613 -0.18260003 -0.32726239
  H  0.53481931 -0.48943555 -1.38663726
  C -0.69827777 -0.83803510  0.34845979
  H -0.68229174 -0.61307448  1.41422540
  H -0.65814973 -1.91543671  0.19716885
  C -1.84770432 -0.17624251 -0.36628290
  H -2.53051567 -0.72252879 -0.99073287
  C -1.77237537  1.14091760 -0.24008176
  C -0.66631226  1.79904408  0.09849173
  H -0.56390408  2.79072556  0.50652994
  O  0.51663309  1.24919480 -0.31735138
  H  2.63443005  0.08378289  0.09757774
  H  1.73926769 -0.69324269  1.40592023
  H  2.14515410 -1.60773119 -0.05402979
