13
opt_min/./Reactant_4329_0_opt.xyz
  C -1.10163400 -0.44547700 -0.55666301
  C -0.01895488  0.20143119  0.32071774
  C  1.38294535 -0.27732418 -0.09956612
  H  2.13945312  0.22490958  0.49561548
  H  1.55991535 -0.04986430 -1.14660379
  H  1.46574681 -1.35021471  0.04403019
  O -0.24283406 -0.03927770  1.69684951
  H -0.39803312 -0.98046666  1.83296115
  C -0.09217222  1.64977308  0.15156132
  N -0.15123139  2.78152746  0.00867649
  H -1.14377208 -1.51187940 -0.33522860
  H -0.84114199 -0.33426403 -1.60386692
  H -2.07201415 -0.00068886 -0.37235094
