13
opt_min/./Product_3376_0_opt.xyz
  C -1.41504388 -0.04784930 -1.81671309
  C -0.43835771 -0.09594969 -0.68999753
  N -0.84102049 -0.25108091  0.48901440
  C  0.07190913 -0.31926020  1.60187089
  C  1.40238731  0.23731880  1.40013786
  C  2.48034776  0.71834040  1.20200898
  H  3.41952323  1.14716936  1.03241914
  H -0.41039706  0.19947415  2.43566162
  H  0.17135368 -1.37392079  1.88981283
  H  0.62664404  0.03305417 -0.94215314
  H -1.97221166  0.88272425 -1.77444777
  H -2.13155126 -0.85820521 -1.72036240
  H -0.91229753 -0.11014071 -2.77331972
