12
opt_min/./Product_9370_0_opt.xyz
  O -1.95440199  0.41534705 -1.64617300
  C -1.10266551  0.24662907 -0.82919481
  C -0.03780033  1.13549809 -0.22058693
  H  0.71880889  1.45770625 -0.93537687
  H -0.42245439  2.00622135  0.30486109
  C  0.40009871 -0.05828841  0.67008438
  N  1.70591610 -0.47701715  0.44049758
  C  2.79236091 -0.83702901  0.23422316
  H  0.25065057  0.11171747  1.73818194
  C -0.67093691 -0.95201916 -0.00499802
  H -1.42745249 -1.37884366  0.64635858
  H -0.23639351 -1.73176593 -0.63277239
