12
opt_min/./Reactant_9370_0_opt.xyz
  O -1.81263191 -1.80631611 -0.23552894
  C -1.00876668 -0.96798250  0.03540256
  C  0.36431403 -1.01483560  0.68411717
  H  0.39661109 -1.44008540  1.68318878
  H  1.10151245 -1.52009000  0.06214526
  C  0.41387030  0.53519681  0.59951100
  C  1.50529184  1.04523565 -0.17990020
  N  2.36532168  1.43940396 -0.82150644
  H  0.39511685  1.03126486  1.57057524
  C -0.95337909  0.53800994 -0.13173432
  H -1.75382247  1.09754451  0.34339488
  H -0.89506968  0.82469407 -1.18139460
