11
opt_min/./Product_1449_0_opt.xyz
  O -0.24786200  1.40167800 -0.75907600
  C  0.00619644  0.41723084  0.21767485
  C -1.18489197 -0.53680172  0.26444570
  H -1.28888824 -1.05361700 -0.68446435
  H -2.08318177  0.04519491  0.44103410
  H -1.05993189 -1.26141292  1.06335980
  C  1.22755528 -0.35074747 -0.10946650
  N  2.36709823 -0.71350794  0.22067932
  O  1.62062395 -1.11642288 -1.11375939
  H  0.18663188  0.87525295  1.20328952
  H  0.41643990  2.09687000 -0.72159425
