11
opt_min/./Product_4448_0_opt.xyz
  N  0.54640300  1.43678900 -0.06719500
  H -0.40886085  1.71010706 -0.29673848
  C  1.11129197  0.33842484 -0.83843534
  H  2.09765235  0.52726790 -1.23217631
  C  0.58283944  0.22057050  0.67541275
  H  1.26295211  0.10525476  1.50260435
  C -0.53993399 -0.72602902  0.30704676
  O -1.78202194 -0.17226936  0.01243809
  H -1.76444749  0.24610464 -0.85613035
  H -0.68894900 -1.57037410  0.97647778
  C  0.56353956 -0.95474847 -0.70727575
