10
opt_min/./Product_3087_0_opt.xyz
  N  1.81555000  0.05094800  0.34589800
  C  0.51489151 -0.18282266  0.15618106
  N -0.11855052 -1.21009915 -0.30131761
  C -1.40685183 -0.47524999 -0.13183511
  H -2.28899166 -0.60282913 -0.72863134
  C -0.70904251  0.70894042  0.38469065
  H -0.86213669  1.76175675  0.25086860
  O -1.52594263 -0.09831290  1.20310784
  H  2.10267235  0.90096534  0.80293431
  H  2.46826829 -0.71402849  0.28182083
