19
opt_min/./Product_9424_0_opt.xyz
  C  3.04802000  0.24524900 -0.28560500
  C  1.88984852 -0.73529028 -0.37853890
  O  0.70543197 -0.06725887 -0.00648839
  C -0.44379411 -0.87981059 -0.06427070
  C -1.65904521 -0.03851336  0.32041605
  C -2.71273163 -0.75015815  1.00620851
  H -3.64436163 -0.15562750  0.95820048
  C -1.96537951  1.03957660 -0.72785895
  H -2.71419320  1.73681387 -0.36066729
  H -1.06179612  1.58977469 -0.97104750
  H -2.34344840  0.57032822 -1.63302129
  H -1.39605688  0.47540974  1.27840714
  H -0.57728429 -1.27610434 -1.08325549
  H -0.35264945 -1.73434285  0.62382684
  H  1.79387585 -1.12005371 -1.40604108
  H  2.06034275 -1.59283633  0.28917313
  H  2.90812654  1.06225838 -0.98675661
  H  3.98060970 -0.26212513 -0.51228320
  H  3.10099504  0.65693577  0.71715915
