17
opt_min/./Product_11532_0_opt.xyz
  C -3.06235800 -0.26579600  0.31676800
  C -1.87720186  0.06022744 -0.58610643
  N -0.70139702 -0.55817779 -0.05799666
  C  0.37985570  0.07176570  0.03951301
  C  1.58880264 -0.56140489  0.58188578
  H  1.44547070 -1.55284458  0.99905041
  C  2.90599318 -0.26899826 -0.04791453
  H  2.94501035  0.40662536 -0.89932208
  H  3.64586934 -1.05725744 -0.06064269
  N  2.58179310  0.25312258  1.25555851
  H  2.35224812  1.24547962  1.23414725
  H  0.49749292  1.12907946 -0.25184330
  H -2.04953131 -0.37675605 -1.57957268
  H -1.76850867  1.15274588 -0.71255315
  H -3.96282047  0.22366064 -0.05222014
  H -3.22447635 -1.34105280  0.34547540
  H -2.85853865  0.07951063  1.33031755
