11
opt_min/./Product_4449_0_opt.xyz
  N -0.23876300 -0.99172700 -0.66060200
  H -0.38992648 -1.58454720  0.15466632
  C  0.73421769  0.07842973 -0.43043918
  C  1.33880224  0.20470235  0.89855728
  O  2.48772967  0.43305245  1.14571493
  H  0.57480584  0.05126992  1.70355439
  H  1.38522650  0.27170184 -1.27483849
  C -0.73982130  0.34828536 -0.50497153
  C -1.48619409  0.81138501  0.65486921
  H -2.47910740  0.33099116  0.67072271
  H -1.11611271  0.79393090 -1.42976482
