19
opt_min/./Product_8019_0_opt.xyz
  C  2.94422400  0.09556000 -0.44630000
  O  1.67034046  0.38082938  0.06335379
  C  0.88394509 -0.77347171  0.25790559
  C -0.51738897 -0.33985183  0.67661224
  C -1.30288755  0.22227946 -0.51638466
  O -1.54647288 -0.77824001 -1.48313466
  H -2.11124955 -1.45343948 -1.08651048
  C -2.60769980  0.87078621 -0.05518286
  H -3.20097161  0.15383894  0.51212023
  H -2.39523140  1.73060302  0.57455630
  H -3.18219191  1.19672352 -0.92013036
  H -0.67672233  0.95743645 -1.03327824
  H -1.05078568 -1.19538303  1.09927694
  H -0.42261425  0.42964149  1.44360716
  H  0.83052822 -1.35674988 -0.67380472
  H  1.33868490 -1.41056328  1.03454336
  H  3.45730874  1.05071106 -0.55597938
  H  2.88075074 -0.40309126 -1.42252641
  H  3.51327838 -0.55217011  0.23686195
