16
opt_min/./Product_7604_0_opt.xyz
  C -2.37180300 -0.35162900 -0.11537900
  C -0.97906443 -0.17468896 -0.65270255
  H -0.87451377 -0.50038976 -1.69200028
  N -0.34253955  1.14697489 -0.46725439
  H -0.84340666  1.85272555  0.05817694
  H  0.13105237  1.53508413 -1.28606630
  C  0.18097492 -0.06118334  0.27314664
  C  1.48717090 -0.54460729 -0.36238872
  C  2.65220101 -0.07020513  0.44924949
  O  3.09271198 -0.61239535  1.42360226
  H  3.12120368  0.87225822  0.08072219
  H  1.47098231 -1.63286116 -0.34590687
  H  1.60195026 -0.20381460 -1.40993894
  H -2.55978618 -1.40480988  0.05455679
  H -3.12279158  0.02438127 -0.80826138
  H -2.47426913  0.15954567  0.83566577
