11
opt_min/./Reactant_9940_0_opt.xyz
  C  1.53723900 -0.57635000 -0.63425800
  C  0.41483426 -0.47656714  0.35230931
  O  0.34566924 -1.07218007  1.39019166
  C -0.68934526  0.50220916 -0.11427406
  O -0.61739544  1.08545076 -1.16653027
  C -1.89625153  0.72587395  0.79838930
  O -2.08563431  0.21625047  1.85938196
  H -2.60664402  1.43708363  0.32972650
  H  1.14531528 -0.89725832 -1.59882359
  H  1.98012323  0.40817287 -0.77738876
  H  2.28789065 -1.27861180 -0.27759078
