17
opt_min/./Product_8612_0_opt.xyz
  C -2.04301200 -0.34975600  0.16349300
  C -0.59544169 -0.09244308  0.55364824
  H -0.48093154 -0.28387355  1.62665841
  C  0.40685938 -0.97773729 -0.20522267
  H  0.00213160 -1.29058710 -1.17479889
  H  0.66916147 -1.87826057  0.35763122
  C  1.58583485 -0.06778567 -0.41778386
  O  2.78232906 -0.54182247 -0.86402753
  H  2.75730988 -1.50405992 -0.90042124
  C  1.29325174  1.20004690 -0.16108161
  H  1.96176963  2.03244269 -0.26588370
  C -0.13724094  1.35114451  0.26242059
  H -0.24346826  1.99686962  1.13710118
  H -0.72924581  1.79310549 -0.54440104
  H -2.70442491  0.32389955  0.70483558
  H -2.32922186 -1.37326211  0.39910909
  H -2.18533818 -0.18705941 -0.90366437
