10
opt_min/./Product_1085_0_opt.xyz
  N -0.96250700 -1.17424000 -0.05944400
  C -0.69266825  0.04233071  0.00467820
  O -1.66583798  0.96938608  0.06620359
  H -2.51772735  0.50938610  0.05631493
  N  0.55609370  0.68976046  0.01367826
  C  1.76083286  0.05999436 -0.04573930
  O  1.92871693 -1.12704999 -0.11086943
  H  2.59969836  0.78093466 -0.02058189
  H  0.52102016  1.69818484  0.06901064
  H -0.17587915 -1.80998283 -0.11010653
