11
opt_min/./Product_1480_0_opt.xyz
  C  2.76405900  0.29459100  0.26914500
  C  1.48440614  0.04219714  0.16700497
  C  0.26021765 -0.20051170  0.04435977
  C -1.04553410 -0.40080762 -0.01425186
  O -1.57958556 -1.64802794  0.06609975
  H -2.53335288 -1.58875964  0.18258847
  N -1.96750885  0.64685389 -0.12028427
  H -1.52955100  1.54140410 -0.28097957
  H -2.72304981  0.47854556 -0.77362306
  H  3.47579547 -0.49066419  0.45850902
  H  3.14324214  1.29856350  0.17597345
