16
opt_min/./Product_3947_0_opt.xyz
  C -2.20416000  0.28918100 -0.86477700
  C -0.76843896 -0.21872700 -0.82188553
  C -0.11180771  0.12392059  0.51112988
  C  1.34179874 -0.39779139  0.57512734
  C  1.05859368 -1.17550725  1.56650392
  C  2.38019038  0.07637712 -0.36592429
  H  2.20978751  1.12267707 -0.62492465
  H  3.36636747 -0.02520086  0.08322234
  H  2.35339761 -0.51291982 -1.28454947
  H -0.69399650 -0.33470142  1.32882154
  H -0.08855949  1.20177149  0.69303193
  H -0.76099009 -1.30213924 -0.96103246
  H -0.19531903  0.23145472 -1.63583408
  H -2.65824714  0.06013450 -1.82657298
  H -2.22873192  1.36966420 -0.72413766
  H -2.79884620 -0.17282611 -0.08010803
