14
opt_min/./Product_5507_0_opt.xyz
  C  2.11987700  0.49404900  0.41934400
  C  0.85538642 -0.32728360  0.51789721
  O  0.68576272 -1.16256780  1.36494285
  C -0.17856175  0.00985155 -0.55138086
  O -1.37758172 -0.70885008 -0.48226616
  C -2.18152596 -0.38324207  0.63001534
  H -2.40761023  0.69111164  0.64800556
  H -1.70103725 -0.66190539  1.57134900
  H -3.10467729 -0.94580269  0.51392001
  H  0.25784635 -0.22669531 -1.52729003
  H -0.36664878  1.09739333 -0.51736329
  H  2.97361986 -0.18010992  0.38135439
  H  2.12345409  1.14315503 -0.45041081
  H  2.22203687  1.09391606  1.32191170
