11
opt_min/./Product_757_0_opt.xyz
  C  1.88453100 -0.02499400 -0.16717000
  C  0.40750850 -0.04946520 -0.04917863
  C -0.42958177 -1.23504948 -0.06848739
  N -1.62244336 -0.70046116  0.07789880
  H -2.51683788 -1.15736948  0.14862903
  N -1.54984725  0.69446517  0.24260978
  H -2.31337538  1.34186849  0.11823302
  N -0.29387970  1.05028271  0.11106218
  H  2.19584358 -0.57719949 -1.05118018
  H  2.33517830 -0.50574358  0.70030443
  H  2.23355991  1.00259200 -0.23064663
