13
opt_min/./Product_6686_0_opt.xyz
  C  1.90742700  0.69774500  0.51133700
  C  0.85271066  0.05584462  0.02220970
  O  0.93718143 -0.94479123 -0.89710659
  H  1.86020369 -1.07850850 -1.14917296
  C -0.54241707  0.37187767  0.39399641
  H -0.65149100  0.97404615  1.28903599
  C -1.66342858 -0.63362537  0.06969881
  H -2.46047079 -0.77502269  0.78627261
  H -1.35715437 -1.54735566 -0.42260383
  C -1.54396523  0.60711332 -0.67559618
  O -1.93135810  1.34245136 -1.52384119
  H  1.80052643  1.48020895  1.23761283
  H  2.91239962  0.45844331  0.20774666
