17
opt_min/./Product_10882_0_opt.xyz
  C  2.09524200  0.58520900  0.25102900
  C  1.03333581 -0.03165042  0.73717314
  C -0.20720062 -0.31828433 -0.02830269
  C -0.40157947 -1.80129112 -0.28463468
  H  0.39289570 -2.16984229 -0.92852469
  H -0.37177738 -2.35243354  0.64955453
  H -1.35390775 -1.98410352 -0.77371062
  C -1.43528804  0.51254226  0.25093301
  O -1.34687964  1.52545597  1.20438163
  H -1.64705336  2.35571693  0.82077465
  H -2.40133126  0.01647031  0.25252921
  C -0.70779475  0.65467590 -1.05997621
  H -0.16166461  1.56954922 -1.22734073
  H -1.17109547  0.26295458 -1.95007747
  H  1.02518635 -0.39228602  1.75729089
  H  2.12379965  0.94598224 -0.76222133
  H  2.96999047  0.74389083  0.85732511
