9
opt_min/./Product_1434_0_opt.xyz
  C  1.15698532 -0.16280959 -0.30373504
  O  9.28426519  14.12805077  0.39066217
  H  25.74118856  31.10621464  19.98053034
  C  15.58085697 -16.57747451 -4.54489399
  O  1.01791015 -4.15567827  14.64447914
  C -16.14997281  29.93212306 -7.65192275
  H  11.50257573  0.07046791 -18.71392330
  H -6.99636876 -13.32557705  19.99284651
  H  7.64074184  23.88279316  6.65714571
