10
opt_min/./Product_1543_0_opt.xyz
  C -0.10418600 -0.50653000  0.35475000
  C -1.24292898  0.26801358 -0.29706070
  H -1.14063394  1.32218817 -0.05989834
  H -1.22889301  0.15548407 -1.37632396
  H -2.20334356 -0.07421699  0.07359843
  O  1.06643122  0.33435101  0.36918011
  C  2.16337373 -0.21470690  0.79529307
  H  2.92050004  0.59770833  0.73136343
  H -0.34630058 -0.77438986  1.38441878
  H  0.12836115 -1.42023843 -0.19697585
