9
opt_min/./Product_4239_0_opt.xyz
  O -0.68867801  1.35644396 -0.86769511
  C -0.16275815  0.26310068 -0.19871587
  C -1.02556110 -0.90754558 -0.12147822
  O -0.75507264 -1.98087166  0.35835939
  H -2.00431108 -0.69586372 -0.58658090
  C  1.08292130  0.21262089  0.24098328
  N  2.09290078  0.19018044  0.89356328
  H  3.00275704 -0.11015347  0.58156337
  H -0.45372861  2.17489965 -0.42225604
