15
opt_min/./Product_10338_0_opt.xyz
  C  0.00681600 -1.57346600  0.05470800
  C  0.17982385 -0.07836733  0.01891298
  C  1.51692815  0.44572223  0.02075502
  N  2.52944423 -0.31788608  0.07342531
  H  3.42680576  0.16148754  0.06364394
  H  1.59614748  1.54627981 -0.03995597
  C -0.92165394  0.71402011  0.00269198
  O -0.92395114  2.07434397  0.02056727
  H -0.03777455  2.40319576  0.22440172
  N -2.19912878  0.20614454  0.02359281
  H -2.90654628  0.91981319 -0.08833330
  H -2.35431372 -0.62701793 -0.52295613
  H -0.57495727 -1.87626886  0.92340157
  H -0.49238279 -1.93719888 -0.84461657
  H  0.99975100 -2.00995173  0.11074078
