15
opt_min/./Product_10971_0_opt.xyz
  C  1.57328700  1.00093300  0.80087400
  C  0.36122273  0.08898078  0.61735390
  H  0.34693833 -0.65109405  1.43538664
  C -0.96120553  0.75406893  0.77883686
  C -1.90097144 -0.06385710  0.03157750
  H -2.89229918  0.31408717 -0.18361415
  C -1.13027694 -0.91963516 -0.94406292
  H -1.50551033 -1.13665362 -1.94054747
  C  0.34524172 -0.67983549 -0.72054369
  H  0.72745191 -0.03380292 -1.51572748
  H  0.93306777 -1.59820906 -0.72051776
  O -1.79367688 -1.47646641  0.11866711
  H  1.40366539  1.93649360  0.27257914
  H  1.71909830  1.23451010  1.85174246
  H  2.47016817  0.52832416  0.41084973
