14
opt_min/./Product_10696_0_opt.xyz
  C  1.47640906  0.61422476  0.58945720
  C  0.21377267 -0.25377207  0.65562443
  C -1.06626438  0.61249651  0.65782748
  C -2.29781688 -0.16031757  0.75966575
  H -3.16032776  0.52911046  0.74547700
  H -1.10559049  1.20970767 -0.26422895
  H -1.01318705  1.34986344  1.46889186
  C  0.17346563 -1.16296725 -0.46822559
  N  0.13253652 -1.85666652 -1.38984570
  O  0.10812356 -2.56642228 -2.34510806
  H  0.22941359 -0.84396572  1.57897693
  H  1.48439238  1.32497747  1.41130966
  H  2.36542008 -0.00471888  0.65638561
  H  1.51039596  1.16508182 -0.34818379
