8
opt_min/./Product_2596_0_opt.xyz
  C -1.91391994  0.49665775 -0.87621126
  C  5.30962275  13.80681760 -15.36304586
  C -7.42644099 -2.23980739  12.55353578
  C  1.40246229  4.17897888  7.33999026
  N  13.01175098  11.91569313 -19.89310934
  H  3.17018476 -13.27653259  3.97770847
  H  24.88759737  14.34701227 -3.70741715
  H -0.59412372  0.55950314 -7.16648187
