16
opt_min/./Product_7622_0_opt.xyz
  C -1.99599500  0.52361800 -0.89018700
  C -1.30626305 -0.30099237  0.16715699
  H -1.93707422 -0.53006606  1.02151419
  N -0.42620356 -1.34141727 -0.31246969
  H -0.45376347 -2.21252453  0.20298133
  C  0.15478297 -0.22829232  0.42094660
  C  1.05716401  0.68453905 -0.32476494
  C  2.35858488  0.45925913 -0.44842908
  O  3.00330991 -0.59638998  0.14211126
  H  3.23624499 -1.25487574 -0.51775544
  H  2.99772214  1.15110135 -0.98965712
  H  0.63046222  1.57353234 -0.76092011
  H  0.50034542 -0.41751395  1.43624695
  H -2.45194495  1.40818541 -0.45219905
  H -1.29152874  0.82563480 -1.65666745
  H -2.77287183 -0.06837341 -1.36381719
