19
opt_min/./Product_10183_0_opt.xyz
  C  2.05071100 -0.79978600  0.17663400
  C  0.69016833 -0.51860901  0.80841075
  C -0.27071925  0.23932100 -0.12552748
  C -0.54009894 -0.53815343 -1.41331763
  H  0.36127276 -0.56469035 -2.02272708
  H -1.32268064 -0.03880058 -1.98345174
  H -0.86305500 -1.55381352 -1.18904428
  C -1.62206558  0.46119223  0.61306595
  C -2.61003929  1.37371741  0.06802463
  H -2.12854244  2.04308952 -0.66918399
  H -2.05640174 -0.49361440  0.92373203
  H -1.42293146  1.01645028  1.55101182
  O  0.27101903  1.49049788 -0.50716727
  H  0.59843190  1.94698494  0.27727256
  H  0.83763952  0.08220009  1.71451993
  H  0.22048836 -1.45929925  1.10724640
  H  1.96610507 -1.56473950 -0.59263941
  H  2.74873874 -1.15294697  0.93458839
  H  2.44890384  0.10809414 -0.27419720
