19
opt_min/./Reactant_10183_0_opt.xyz
  C  2.14109900 -0.16480900 -0.44172100
  C  0.98972240 -0.25253857  0.55495737
  C -0.31127580  0.29912359  0.00754707
  C -0.37304393  1.81077519 -0.05813929
  H  0.52321397  2.20576492 -0.53085607
  H -1.23517277  2.14187933 -0.62877240
  H -0.43438436  2.22095996  0.94760873
  C -1.03401540 -0.50203924 -1.04431446
  H -1.55567479  0.01666807 -1.83290588
  H -0.59953501 -1.44192435 -1.35066067
  C -1.58697894 -0.42445084  0.35066998
  O -1.57326276 -1.53495217  1.19239539
  H -1.81594825 -2.32376163  0.69446867
  H -2.47583508  0.18527452  0.50214081
  H  0.83846783 -1.29461777  0.84306301
  H  1.24543417  0.28989049  1.46704928
  H  2.38581442  0.87402743 -0.65648755
  H  1.87519737 -0.63991589 -1.38246808
  H  3.03120122 -0.64075057 -0.04267894
