15
opt_min/./Product_8179_0_opt.xyz
  C  1.38929700  0.54510600  0.64354300
  H  2.35932133  1.02008405  0.50456080
  H  0.96112003  0.93112822  1.56780887
  C  1.54764156 -0.95266555  0.61746349
  C  0.62182029 -0.99970592 -0.57016815
  H  0.87990047 -1.65351231 -1.39546109
  C -0.83726923 -1.09516965 -0.04130776
  H -0.91361678 -1.40306083  0.99719110
  H -1.47659685 -1.72274534 -0.65216227
  C -1.01421665  0.41828106 -0.23205477
  O -1.44951881  1.07393426  0.93019464
  H -1.40352117  2.02433351  0.78014894
  H -1.66068221  0.66710485 -1.08184545
  C  0.48690074  0.53747517 -0.59505282
  H  0.75062441  1.17462341 -1.43428017
