11
opt_min/./Product_8693_0_opt.xyz
  O  3.22292000 -0.65492500 -0.24782100
  C  2.07526708 -0.44269351 -0.11999163
  C  0.80241241 -0.15423266 -0.19401567
  C  0.25397796  1.20150332 -0.18809463
  H  0.83538485  2.09813451 -0.31310308
  N -1.00265884  1.23235194 -0.03645045
  C -1.49861396 -0.10715375  0.10689211
  H -1.97904697 -0.20965989  1.09406960
  H -2.25467401 -0.30507010 -0.66702731
  N -0.33462902 -0.95529150 -0.04357991
  H -0.33214004 -1.95095612  0.04629779
