9
opt_min/./Product_7790_1_opt.xyz
  C -0.71290200 -1.14557700 -0.37372000
  C -1.26519467  0.10999005 -0.19755769
  H -2.27866837  0.41715287 -0.03085036
  N -0.25806980  0.98716948 -0.42401822
  H -0.33060067  1.99498401 -0.43556256
  C  0.97614253  0.30563701 -0.26536788
  O  2.05504956  0.80580013 -0.48444449
  C  0.62354274 -1.12336819 -0.24403654
  H  1.34935836 -1.89312535 -0.40303882
