19
opt_min/./Product_6727_0_opt.xyz
  C -3.22449100  0.06942100 -0.26685500
  C -1.80121997  0.48106736  0.08662461
  C -0.81367801 -0.67369541 -0.10339928
  C  0.59699797 -0.25710616  0.15707956
  O  1.48567278 -0.48749130 -0.75363302
  C  2.74789830 -0.18420384 -0.74662073
  C  3.41525249  0.55320751  0.36305361
  H  3.00019356  1.56148270  0.47285567
  H  4.47883623  0.63526117  0.15874425
  H  3.28367552  0.04071284  1.32082483
  H  3.27637782 -0.45539327 -1.64335684
  H  0.84466923  0.30299568  1.04659649
  H -0.88162187 -1.05959258 -1.12248934
  H -1.09903463 -1.48687035  0.57897444
  H -1.50258873  1.32530633 -0.53897499
  H -1.76500065  0.81094760  1.12865774
  H -3.32051963 -0.11324679 -1.33541142
  H -3.50679738 -0.83551132  0.26650820
  H -3.92683701  0.85747143  0.00487801
