9
opt_min/./Product_212_0_opt.xyz
  O  2.41511800  0.83156600  0.29906400
  C  2.46080056 -0.57245712  0.18551724
  C  1.29274590 -0.15172606 -0.11123749
  C -0.11592109  0.20813974 -0.25001496
  O -0.59967570  0.84961139  0.90277580
  H  0.02402260  1.54678924  1.14454337
  H -0.71350667 -0.69709145 -0.38753092
  H -0.22765539  0.85724972 -1.13494449
  H  3.25324283 -1.27061916  0.25645943
