21
opt_min/./Product_10816_0_opt.xyz
  C -2.75903000 -1.01566400  0.38196900
  C -1.70397041  0.06119209  0.18440552
  C -0.37517947 -0.31013495  0.70420441
  C  0.71819125  0.66514445  0.46893161
  C  1.64730372 -0.04492942 -0.55087183
  C  2.12078496 -1.41494304 -0.08497444
  H  1.27495147 -2.08943342  0.02161390
  H  2.60366473 -1.33808192  0.88838184
  H  2.82964364 -1.83003442 -0.79832838
  H  1.10311596 -0.14192682 -1.49380240
  H  2.51102902  0.59996038 -0.72493763
  C  0.38883166  2.07716794 -0.03047212
  H  1.29101973  2.68684809 -0.05991504
  H -0.33178440  2.55023102  0.63509954
  H -0.02434454  2.06124540 -1.03816497
  H  1.27931791  0.74525642  1.40640565
  H -1.59830375  0.31131431 -0.88267722
  H -2.02911480  0.99376629  0.66567024
  H -2.43020586 -1.95928002 -0.05238671
  H -2.93857029 -1.18392461  1.44220814
  H -3.69963828 -0.73366095 -0.08966178
