14
opt_min/./Product_956_0_opt.xyz
  C -0.71783000  1.35141400  0.14126300
  C -0.45008248 -0.10560498  0.36463268
  C  0.97323339 -0.54530198  0.14632762
  C  1.44278736 -0.40463590 -1.27827220
  O  0.81603068  0.01201043 -2.20870637
  H  2.48915323 -0.75389274 -1.41502866
  H  1.10522988 -1.59074176  0.43324113
  H  1.65640064  0.04334212  0.76439494
  C -1.39900856 -0.96861238  0.69106044
  H -2.41679484 -0.65918829  0.84132811
  H -1.19642780 -2.01933331  0.82505305
  H -0.76794941  1.54740174 -0.92748991
  H -1.65972290  1.64734951  0.59303332
  H  0.08233382  1.96288753  0.55118398
