10
opt_min/./Product_4469_0_opt.xyz
  O  2.16298400  0.66908700  0.35796600
  C  1.02713209 -0.09868309  0.38261798
  O -0.01004037  0.58741353 -0.29810398
  C -1.23679522 -0.03989089 -0.24847513
  C -2.33304410  0.49460701  0.20181864
  O -3.35117144  0.92614372  0.56089037
  H -1.29346797 -1.05540869 -0.63565831
  H  0.76654418 -0.25227916  1.44044902
  H  1.17472422 -1.08762527 -0.10378862
  H  2.33520902  0.95300163 -0.54945645
