16
opt_min/./Product_6865_0_opt.xyz
  C -1.96199900 -0.76108800 -1.03663300
  N -0.84642250 -0.58758321 -0.14575727
  C -0.82630401  0.56686569  0.70677118
  H -1.63045140  1.29678208  0.63824641
  H -0.45530840  0.39849333  1.70957620
  C  0.11371417  0.44574291 -0.44160299
  C  1.55717429  0.15214707 -0.24424859
  O  2.43039197  1.10343461 -0.70634250
  H  1.94163372  1.84232100 -1.08854711
  C  1.99764891 -0.94692582  0.35241395
  H  3.04861557 -1.12116161  0.48506699
  H  1.29567601 -1.68164979  0.69456372
  H -0.09704370  1.09510750 -1.29927388
  H -2.76986548 -1.24512077 -0.48617103
  H -1.65444201 -1.41525453 -1.85475684
  H -2.33393460  0.18399200 -1.46051304
