13
opt_min/./Product_699_0_opt.xyz
  C  1.71221900 -0.15037700  0.18719000
  C  0.28977541  0.26973007  0.52801702
  H  0.31160597  1.05095448  1.30136967
  C -0.57731734 -0.82478051  1.08065268
  C -1.70683183 -0.79870348  0.24284184
  H -2.55015600 -1.45562632  0.35483097
  C -1.57751649  0.15649419 -0.74753346
  H -2.26533258  0.40929912 -1.54115206
  N -0.41760831  0.79459856 -0.64061795
  H -0.09318139  1.56083652 -1.20594629
  H  2.31069071  0.69693466 -0.14016407
  H  2.16818573 -0.59269737  1.06904606
  H  1.68937991 -0.90517766 -0.59617543
