13
opt_min/./Product_3781_0_opt.xyz
  C -1.15874100 -1.21033700 -0.23443400
  N -0.11799230 -0.26018963 -0.04496351
  C  1.32570974 -0.37638939  0.00573513
  H  1.78243141 -0.70969989 -0.93032067
  H  1.70934038 -0.98793667  0.82453400
  C  1.36029319  1.10521641  0.21685350
  H  2.11756236  1.84311618  0.36258010
  C -0.02639567  1.13398176  0.14174577
  C -0.93986913  2.18227332  0.22710316
  H -1.97885181  1.82027928  0.14422424
  H -1.18706663 -1.95659169  0.56905564
  H -1.05514813 -1.73705927 -1.19220520
  H -2.10798440 -0.67364404 -0.23919942
