17
opt_min/./Product_11022_0_opt.xyz
  C  2.31856800  0.30269700  0.19341200
  C  0.91429558 -0.18335558  0.17626368
  C  0.31541991 -1.03324384  1.00146951
  H  0.70108737 -1.53677707  1.86883753
  O -0.98758025 -1.30917833  0.70683214
  C -1.37774602 -0.43445997 -0.36048362
  C -2.35768967  0.60673789  0.16793788
  H -2.77618322  1.18795839 -0.64757241
  H -3.16483559  0.10501189  0.69655719
  H -1.85070756  1.27144766  0.86484705
  H -1.88443050 -1.06272367 -1.10588695
  C -0.07733155  0.19269053 -0.90115077
  H -0.18430058  1.26770491 -1.04249623
  H  0.21877579 -0.24233098 -1.85888495
  H  2.92035785 -0.21480782 -0.55547676
  H  2.77538139  0.13310792  1.16479885
  H  2.35127677  1.36690967 -0.03543289
