12
opt_min/./Product_8191_0_opt.xyz
  O -2.17686900  0.07381100 -0.10223700
  C -0.97951111 -0.44408767  0.39947205
  C  0.23349639 -0.15654922 -0.46534606
  H  0.25576546 -0.65997306 -1.42734107
  C  0.69352011  1.33031343 -0.55926169
  C  0.54487222  2.53332949 -0.91319583
  C  1.47251514  0.28608680  0.11713332
  N  2.54311051  0.23360659  0.72537255
  H  2.84162175 -0.65869327  1.10530862
  H -0.85468486  0.01310788  1.38548035
  H -1.04606832 -1.53896276  0.52166879
  H -2.30700680 -0.20668539 -1.01622881
