16
opt_min/./Product_7603_0_opt.xyz
  C  0.25327800 -1.14708000  0.12126200
  H  0.59325418 -1.58541657  1.06028193
  H  0.32758618 -1.90317872 -0.66092990
  C -1.17942920 -0.67402893  0.26869393
  H -1.85210405 -1.25007364  0.88758872
  N -1.79675978 -0.04254070 -0.87620783
  H -1.27606701 -0.09541063 -1.74312024
  C -1.23167082  0.79592451  0.15130067
  H -1.94583129  1.41213999  0.68019328
  C  0.16910895  1.34097360 -0.04420738
  H  0.46858459  1.88544106  0.85044782
  H  0.22795520  2.01540097 -0.89695651
  C  1.09515027  0.11656526 -0.20641951
  O  2.18481609  0.28168334  0.67242825
  H  2.78679423 -0.45929318  0.56601324
  H  1.47178427  0.06145826 -1.24153852
