14
opt_min/./Product_2144_0_opt.xyz
  C -2.01926000  0.27100900  0.35978400
  C -0.67726872 -0.43912750  0.23012555
  C  0.45435816  0.52786366  0.47225703
  H  0.33500611  1.16138596  1.35703989
  C  1.90973765  0.18774604  0.17001503
  C  2.10137954 -1.11073654 -0.36239204
  H  2.92622502 -1.61852105  0.16005562
  H  2.62090183  0.69815459  0.83388214
  O  1.11102624  1.09498945 -0.57504233
  H -0.61140426 -1.25403667  0.95508522
  H -0.55228384 -0.85921918 -0.76986345
  H -2.82942813 -0.44850409  0.26574858
  H -2.12505249  1.02611939 -0.41666061
  H -2.10346857  0.76031992  1.33032516
