9
opt_min/./Product_1760_1_opt.xyz
  N  1.29978600 -1.13154300  0.00551900
  C  0.33463293 -0.32693649  0.00514625
  C  0.22680771  1.15877213 -0.14084427
  H  1.03778488  1.84393774 -0.28286163
  N -0.98950732  1.52525390 -0.07361296
  N -1.81584277  0.39921548  0.11583399
  C -1.10711783 -0.65556298  0.16462465
  H -1.50872204 -1.63902858  0.30230774
  H  2.22064849 -0.71661449 -0.11778292
