14
opt_min/./Product_3990_0_opt.xyz
  C  1.67669700 -0.42031200  0.23927500
  C  0.54896418  0.20777453 -0.56489920
  N -0.78589291  0.16978503  0.03294171
  C -1.69283610  0.89058924 -0.59958645
  H -2.70693505  0.89965875 -0.25587747
  H -1.44017946  1.39776639 -1.50885258
  C -1.00375550 -0.54544294  1.12037675
  H -0.21975830 -1.09217113  1.59403697
  H -1.99197142 -0.59287312  1.53184392
  H  0.80404060  1.25105459 -0.76589878
  H  0.48652057 -0.30152713 -1.53612402
  H  2.61189497 -0.25797992 -0.29640788
  H  1.54365158 -1.49059546  0.36576107
  H  1.78054346  0.04802369  1.21689453
