13
opt_min/./Reactant_8342_0_opt.xyz
  O -0.36483100  1.18886300  0.27365399
  C -0.39542918 -0.06872633 -0.38616122
  C  0.67897266 -1.00287517  0.22351134
  C  2.00052173 -0.42779937  0.10041523
  C  3.08649721  0.05982789 -0.01544913
  H  4.04039096  0.48819768 -0.10824335
  H  0.64038108 -1.97063213 -0.28329555
  H  0.44616862 -1.15623976  1.27991430
  C -1.69517413 -0.70893097 -0.28872329
  C -2.77719632 -1.21027587 -0.17881174
  H -3.72106373 -1.65052943 -0.07588415
  H -0.16547797  0.09752641 -1.45141776
  H -1.24926194  1.41430490  0.57418399
