15
opt_min/./Product_9054_0_opt.xyz
  N -1.54142300  1.03079300 -0.34285399
  C -1.57053786 -0.40131473 -0.11857831
  C -0.17498978 -0.98899383 -0.38493513
  C  0.83330523 -0.38595570  0.52803453
  C  1.87974698  0.33350983  0.12358204
  C  2.80082721  0.89297744  1.02598023
  N  3.55207018  1.34809446  1.76439314
  H  2.07408218  0.51892382 -0.92573649
  H  0.66518121 -0.54298081  1.58531066
  H -0.21659564 -2.06850373 -0.22616776
  H  0.10225439 -0.79991415 -1.42484744
  H -2.29936770 -0.93933911 -0.74640077
  H -1.83574404 -0.56658734  0.92843913
  H -2.40499049  1.46429644 -0.03953737
  H -1.40824029  1.24424715 -1.32497878
