16
opt_min/./Product_6470_0_opt.xyz
  C  0.23515900  1.64530000 -0.01894800
  C -0.06526900  0.21662577  0.41677423
  C -1.46815411 -0.21354847 -0.01975483
  O -1.69848262 -1.54023224  0.41644857
  H -2.61178399 -1.77023048  0.22101600
  H -2.20227651  0.47233605  0.42116885
  H -1.54448084 -0.15917331 -1.11563351
  N  0.89559265 -0.70244609 -0.16223935
  C  2.19939243 -0.47880829 -0.13999367
  O  2.93311046 -1.51420573 -0.45694143
  H  2.44123257 -2.35495828 -0.60159652
  H  0.53940875 -1.66695260 -0.20322586
  H -0.01643793  0.14590631  1.51310272
  H  1.29300603  1.83487860  0.13270847
  H -0.35477057  2.35325149  0.55559837
  H  0.00837512  1.77043274 -1.07500372
