9
opt_min/./Product_11247_1_opt.xyz
  C  0.22560197 -0.54322392 -0.60774532
  C -0.93279125  0.39564238 -0.26180542
  H -1.86173218 -0.16958405 -0.24836867
  H -0.77540312  0.82716871  0.72730398
  H -1.00377901  1.20863041 -0.97977185
  C  1.48791831  0.15821697 -0.58133126
  N  2.47577121  0.73312816 -0.53693967
  H  0.27347254 -1.36545223  0.11023525
  H  0.09803753 -0.94787126 -1.61821325
