13
opt_min/./Product_682_0_opt.xyz
  C  1.56784100 -0.39353400 -0.96622500
  C  0.31615204 -0.03804668 -0.24628581
  C -0.26074863 -0.72055773  0.76224484
  H  0.00988770 -1.63755569  1.24374315
  N -1.45424581  0.01039092  1.17363647
  H -1.39726033  0.34511530  2.13661345
  H -2.30907079 -0.54126109  1.09260806
  C -1.57614995  1.26872731  0.27315518
  C -0.47604796  1.13612903 -0.51868174
  H -0.20465204  1.83484018 -1.29010988
  H  1.81571203 -1.44380629 -0.82159646
  H  1.46436334 -0.18864025 -2.02934664
  H  2.39621720  0.20984644 -0.59507182
