17
opt_min/./Product_9656_0_opt.xyz
  C  0.54541900  1.45989700  0.38597500
  C  0.02622312  0.06403297  0.07814958
  C  1.08831662 -0.73027898 -0.69877979
  C  2.40045071 -0.77241909 -0.07144230
  H  3.11832923 -1.23266172 -0.77611937
  H  0.80014387 -1.79289293 -0.68303816
  H  1.07417208 -0.42541581 -1.75433812
  C -1.39627766 -0.00259516 -0.52248153
  H -1.88179406  0.96191210 -0.62624128
  H -1.48989450 -0.56091464 -1.44883056
  C -1.75724231 -0.76897973  0.75307172
  H -2.02772251 -1.81876967  0.62028151
  H -2.49247670 -0.29301634  1.40383818
  O -0.42783802 -0.63297907  1.25983476
  H  0.59290205  2.05026928 -0.52524560
  H -0.11018438  1.95045862  1.09983704
  H  1.53907005  1.37527001  0.81841069
