14
opt_min/./Product_6650_0_opt.xyz
  C  1.17839500  0.29594900  1.00556800
  H  1.57188827 -0.52418756  1.59135712
  H  1.29684940  1.25539349  1.48885589
  N  1.56813068  0.26977931 -0.42492179
  H  2.05691302 -0.55347572 -0.75690277
  H  1.81136392  1.13622954 -0.88943550
  C  0.14295858  0.12917375 -0.01489926
  C -0.87471847 -0.83665274 -0.53424070
  H -0.83579946 -1.93501957 -0.59170525
  C -1.96082706 -0.00688059  0.14523108
  H -1.94970537  0.02412474  1.23110340
  H -2.94734272 -0.12826551 -0.28165666
  C -1.02722502  1.02366046 -0.63727960
  O -0.97245002 -0.09050105 -1.74555527
