14
opt_min/./Product_9418_0_opt.xyz
  O  2.68764000  0.31010000 -0.63149000
  C  2.43209993 -0.36617323  0.46717148
  C  0.91620153 -0.52668535  0.59106387
  N  0.39527813  0.78012234  0.90991843
  C -0.63223102  1.31406064  0.44358625
  O -1.61644799  0.91264458 -0.39242910
  C -2.01190130 -0.44416380 -0.48588023
  H -1.69231311 -0.86677632 -1.44175038
  H -3.10488576 -0.44807208 -0.43819275
  H -1.62220706 -1.04837919  0.33221277
  H -0.80365584  2.35283030  0.71087687
  H  0.52544637 -0.94270113 -0.35055988
  H  0.70574205 -1.21287152  1.41787425
  H  3.64187661  0.45974812 -0.73245807
