16
opt_min/./Product_7248_0_opt.xyz
  C  2.31196800 -0.32121400 -0.62890900
  C  0.95952445  0.04165987 -0.13897175
  N  0.00093836  0.39277296 -0.87866380
  C -1.14727226  0.66201712 -0.07111234
  C -2.32109403 -0.25237546 -0.44731302
  H -1.95108667 -1.13115108 -0.96575453
  H -2.82350296 -0.55986158  0.46274961
  H -3.02629479  0.26344146 -1.08424183
  H -1.43405064  1.71353220 -0.20685700
  O -0.76177663  0.46674814  1.30691928
  C  0.58100060  0.04723745  1.32874620
  H  0.67974211 -0.94835241  1.78094646
  H  1.19740854  0.75127408  1.90192549
  H  2.22826373 -0.93816881 -1.51747344
  H  2.85342730  0.58170410 -0.90396141
  H  2.87309557 -0.84730492  0.13487617
