16
opt_min/./Product_1250_0_opt.xyz
  C  2.50639600  0.25418100  0.03624900
  C  1.39784635 -0.55860513 -0.62380303
  C  0.01691953 -0.00257211 -0.28938445
  O -0.94797309 -0.80714238 -0.93590126
  C -2.24495011 -0.45457098 -0.80760305
  C -2.76920953  0.53497630 -0.09835643
  H -3.83106983  0.68961767 -0.09158991
  H -2.18148311  1.21926095  0.48538239
  H -2.87004822 -1.12395682 -1.38409671
  H -0.13997453 -0.01547676  0.79785834
  H -0.07090032  1.03569871 -0.63879816
  H  1.44634456 -1.59477254 -0.28894171
  H  1.52428632 -0.55223805 -1.70661838
  H  2.45568127  1.29515486 -0.27443457
  H  2.41563330  0.21880376  1.11901051
  H  3.47769367 -0.14184566 -0.24258354
