10
opt_min/./Reactant_3199_0_opt.xyz
  O -0.46965900  1.04950400 -1.06439400
  C -0.06022829  0.35903047  0.09240409
  C -1.02337405 -0.78913579  0.39208350
  O -1.01376869 -1.45624048  1.37872749
  H -1.73913870 -0.93659351 -0.43894428
  C  1.32770816 -0.24159713 -0.12145471
  O  1.99046807 -0.76280442  0.71964030
  H  1.64456002 -0.14659068 -1.17812672
  H -0.01140290  0.99300218  0.98528619
  H -0.69263172  1.96002985 -0.85286886
