11
opt_min/./Product_5941_0_opt.xyz
  N  0.54191000  1.41893300  0.14132800
  H  0.21824729  1.93377791 -0.67124790
  C -0.36498339  0.45290068  0.73127958
  H -0.62573955  0.50589622  1.76892832
  C -1.12326878 -0.27681990 -0.38215328
  H -1.55837452 -1.21287381 -0.02726255
  H -1.84012776  0.26864580 -0.99928296
  O  0.10444686 -0.55308498 -1.07544320
  C  0.86906459  0.06226708 -0.03091674
  O  2.07946229 -0.42387743  0.27728940
  H  2.04476904 -1.38782675  0.33008989
