11
opt_min/./Product_637_0_opt.xyz
  O -2.23522180 -0.36730477 -0.51301934
  C -1.27721106 -0.32254987  0.47948651
  C  0.05950847 -0.92789105  0.21355401
  C  1.12378605 -0.21832040 -0.00192803
  C  2.15364504  0.53832128 -0.20415483
  H  2.78356059  0.84890859  0.61273286
  H  2.43973265  0.84107520 -1.19836855
  H  0.09255712 -2.00895370  0.20230154
  H -1.66066724 -0.47139040  1.49148331
  N -1.68319705  0.88915959 -0.12452455
  H -1.02666674  1.18827731 -0.85306672
