9
opt_min/./Product_2671_0_opt.xyz
  C -1.80197898  0.63243099  0.34266207
  C -0.83963838 -0.11322070 -0.09198914
  C  0.14614330 -0.84335629 -0.53892182
  C  1.39133297 -0.29128328 -0.91346721
  C  2.45561307  0.16325270 -1.23481384
  H  3.37878027  0.57644633 -1.51281292
  H  0.05118086 -1.92230418 -0.60900983
  H -2.53393323  1.05540357 -0.32906748
  H -1.91580830  0.85294983  1.39278910
