8
opt_min/./Product_5287_0_opt.xyz
  C -0.68706400 -0.68837099  0.06133993
  H -1.41513673 -1.46518606 -0.05730499
  C -0.74372925  0.61981693  0.27216795
  H -1.52043445  1.34750734  0.39585802
  C  0.81145173  0.69019500  0.27010121
  H  1.51368189  1.48958120  0.39258736
  C  0.86780487 -0.61808879  0.05925670
  H  1.63934217 -1.35120038 -0.06525798
