10
opt_min/./Product_5477_0_opt.xyz
  C -1.41035400 -0.04201000 -0.03406500
  C  0.04989880 -0.25201475 -0.05247966
  N  0.66730975 -1.36556117 -0.20695277
  O  2.02031388 -1.04799604 -0.11823930
  C  2.21639623  0.22325488  0.07247055
  N  0.97235947  0.76350094  0.12143588
  H  0.78997426  1.74081418  0.26380200
  H -1.90352979 -0.84323751 -0.57170836
  H -1.65804306  0.91244708 -0.48923996
  H -1.76512087 -0.04230758  0.99434489
