14
opt_min/./Reactant_5732_0_opt.xyz
  C -1.64555600  0.05280500  0.37345700
  C -0.42016222  0.04607238 -0.53902324
  H -0.75255909  0.15201417 -1.57421258
  C  0.75023043  0.97067812 -0.13917398
  H  0.56035798  1.62294897  0.70693166
  H  1.12760943  1.56209649 -0.96963378
  C  1.62938062 -0.26234161  0.16534648
  H  1.90836706 -0.38708328  1.21032052
  H  2.53185415 -0.35993766 -0.43630232
  C  0.48528706 -1.14547196 -0.28190596
  O  0.34542974 -2.32837096 -0.38033305
  H -2.25034987 -0.82955972  0.16590849
  H -1.34072954  0.00329029  1.41440067
  H -2.25261914  0.93544062  0.20180468
