11
opt_min/./Product_7337_0_opt.xyz
  N -1.63812900 -0.33871900 -0.01752200
  C -0.19688008  0.01619809  0.01733424
  C  0.43305696  1.19301612  0.23687274
  H  0.11488164  2.19147697  0.44757156
  O  1.76060794  0.92466203  0.14475194
  C  1.87550164 -0.46908929 -0.14328314
  O  2.95666045 -0.97712904 -0.27522034
  N  0.64696703 -1.00531290 -0.21567331
  H -2.03840606 -0.35771074  0.92690612
  H -2.17485568  0.29107731 -0.62308511
  H -1.60920624 -1.29468580 -0.40032285
