9
opt_min/./Product_120_1_opt.xyz
  N  2.21003700 -0.24897700 -0.30738600
  C  0.96601666 -0.28176402 -0.32191059
  C  0.10625770 -1.50303749 -0.22883348
  O -1.08750538 -1.09009283 -0.28184057
  C -1.18770702  0.34615190 -0.42048208
  H -1.75358872  0.73750970  0.43231286
  H -1.71800253  0.56828405 -1.35506382
  O  0.10610904  0.81208466 -0.44471973
  H  2.62951940  0.67189749 -0.38900291
