10
opt_min/./Product_2786_1_opt.xyz
  N  2.76481995  1.16004000 -1.37556594
  C  1.95351485  0.44020758 -0.98539860
  C  0.98240819 -0.45610746 -0.55973740
  N -0.17086739 -0.04948613 -0.08762365
  C -1.02703499  0.87139827  0.21371529
  H -1.21148477  1.90846473  0.15787881
  C -1.44199679 -0.51882291  0.43026271
  H -1.44557395 -0.94545848  1.43225435
  H -2.10191012 -1.02822787 -0.26870586
  H  1.19342976 -1.51330741 -0.57333627
