17
opt_min/./Product_10102_0_opt.xyz
  C  1.92760800  0.44245300 -0.06751300
  C  0.92389138 -0.13087345  0.90189261
  H  1.35918956 -0.28744378  1.88494441
  C -0.52843805  0.23987326  0.96802668
  H -1.00828105  0.57773634  1.87371564
  C -0.11354439 -1.15466332  0.55322538
  H -0.20784255 -2.08603106  1.08815367
  C -0.68068165 -0.92634721 -0.84265557
  H  0.01427843 -1.01935592 -1.67473008
  H -1.56520782 -1.52754729 -1.03692113
  C -1.10173567  0.49873631 -0.42943876
  O -2.49849189  0.63384966 -0.47824453
  H -2.75488099  1.41301977  0.02649937
  H -0.62687281  1.32629401 -0.97808088
  H  2.74904367 -0.26160755 -0.18836664
  H  1.49581228  0.61514841 -1.05120943
  H  2.34649473  1.37474026  0.30613763
