19
opt_min/./Product_7726_0_opt.xyz
  C -2.09735800  0.67623100 -0.36519100
  C -1.80225068 -0.51889674  0.53355167
  C -0.64091797 -1.39380908  0.05483142
  C  0.71906881 -0.69716324  0.08807099
  C  0.94013801  0.24980686 -1.04807437
  O  1.93573318  1.06622591 -1.11511787
  C  2.88963830  1.25895552 -0.26242500
  H  3.56129459  2.06021350 -0.49801831
  H  2.95934776  0.73843625  0.67552248
  H  0.34526821  0.21029674 -1.94350742
  H  1.50888859 -1.46327544  0.07604205
  H  0.82255754 -0.15623814  1.03675055
  H -0.84001994 -1.75867815 -0.95408131
  H -0.58773871 -2.25991171  0.72005233
  H -1.57602962 -0.16008738  1.54060071
  H -2.69539345 -1.14481120  0.59801735
  H -1.27134279  1.38192609 -0.35652780
  H -2.26145278  0.35176987 -1.38987987
  H -2.99158893  1.18993909 -0.01943550
