11
opt_min/./Product_6002_0_opt.xyz
  C  1.75007800  0.80164500  0.29435400
  N  0.71603116  0.07943135  0.07592395
  C  0.27016329 -1.26695729 -0.22712082
  H  0.50611421 -1.64853124 -1.21712151
  H  0.37835203 -2.00268035  0.56533701
  C -0.58827284 -0.08330184 -0.05454805
  C -1.83305005  0.54567366 -0.01851955
  O -2.02721689  1.73018866  0.20819617
  H -2.66898187 -0.15419331 -0.22162387
  H  2.72791460  0.35442433  0.27646090
  H  1.63195385  1.85070636  0.49618247
