14
opt_min/./Product_9801_0_opt.xyz
  C -1.80213000 -0.01213600  0.71238300
  C -1.08615011  0.43978862 -0.55793820
  C  0.42421507  0.56257418 -0.34995907
  N  1.00070811 -0.73298258 -0.14570823
  C  1.74302044 -0.95250298  0.83411345
  H  2.17532041 -1.93585945  0.95747225
  H  2.02528158 -0.20805772  1.58978154
  H  0.64284316  1.25920459  0.47727576
  H  0.87674751  0.96379494 -1.26554339
  H -1.26438851 -0.28928239 -1.34993470
  H -1.47921944  1.40492151 -0.88092785
  H -1.43377506 -0.98734704  1.01930919
  H -2.87223480 -0.08296964  0.53586938
  H -1.63191821  0.69365305  1.52265887
