14
opt_min/./Reactant_281_0_opt.xyz
  C -1.88528700 -0.24188500 -0.16317800
  C -0.51326317 -0.29825126  0.51752096
  H -0.62762132 -0.65862515  1.55255311
  O  0.34176859 -1.19419048 -0.19521383
  C  1.58068600 -0.56859966 -0.47561627
  H  1.80896128 -0.68832425 -1.54214968
  H  2.38802126 -1.04272694  0.10226306
  C  1.39801163  0.86374625 -0.07950805
  H  2.14910613  1.61189919 -0.25218168
  C  0.22017385  1.01407457  0.49628912
  H -0.20964661  1.91298651  0.89614212
  H -1.89877932  0.52933942 -0.93060070
  H -2.67311646 -0.04252491  0.56006423
  H -2.07301744 -1.20081895 -0.63877704
