15
opt_min/./Product_8445_0_opt.xyz
  C  2.33496600  0.24307600  0.31873900
  C  1.62891316  0.09172498 -0.78539312
  C  0.13131238  0.26186891 -0.86178973
  H -0.12617979  0.75791756 -1.81214068
  O -0.49055913 -1.03149858 -0.82379747
  C -1.50789324 -1.05151234  0.16240040
  H -2.49415325 -1.16726935 -0.31043173
  H -1.33766789 -1.91643753  0.81781931
  C -1.39138722  0.25470238  0.88313412
  H -2.00581175  0.50078108  1.72883498
  C -0.46991292  1.00093664  0.30159808
  H -0.16717161  1.99530350  0.57119735
  H  2.10614320 -0.21668752 -1.70402294
  H  1.89489655  0.52632358  1.26448101
  H  3.40298024  0.08406332  0.33034225
