14
opt_min/./Product_7131_0_opt.xyz
  N  2.75835200  2.26292801  1.68468698
  C  2.39500876  1.49170070  0.92057419
  O  2.03041018  0.62252308  0.06917580
  C  0.65365238  0.63007934 -0.35467949
  C -0.28607385  0.38159566  0.78166451
  C -1.18821143 -0.58636564  0.83288617
  C -1.45393420 -1.60179847 -0.23435736
  H -2.29518617 -2.22923884  0.04163236
  H -1.67746682 -1.12563779 -1.18634416
  H -0.58587578 -2.24395143 -0.37428925
  H -1.80583790 -0.65987445  1.71600839
  H -0.17491392  1.06071041  1.61693831
  H  0.44049836  1.60027414 -0.82201186
  H  0.59881008 -0.15816797 -1.10671129
