16
opt_min/./Product_6478_0_opt.xyz
  C -1.74644600 -0.76913200 -0.81185000
  C -0.41562366 -0.03014662 -0.67195952
  C -0.72261126  1.38594876 -0.23669595
  O -0.92657713  2.30421216 -0.98145762
  H -0.73749130  1.50686835  0.86309661
  N  0.42484013 -0.66214475  0.32760154
  C  1.82162395 -0.28486908  0.24444283
  O  2.03980711  1.01242701  0.70412397
  H  1.70162576  1.65343776  0.06587546
  H  2.39125799 -0.93816667  0.91079317
  H  2.21477869 -0.39298775 -0.79092836
  H  0.33163963 -1.67219270  0.29087561
  H  0.07833589  0.01616202 -1.66477170
  H -2.23269075 -0.83806094  0.15962014
  H -1.57814262 -1.77431211 -1.19384621
  H -2.39807891 -0.23550587 -1.49875356
