16
opt_min/./Product_4901_0_opt.xyz
  C  1.81495700  0.15566700 -0.84696000
  C  0.40958944  0.72538086 -0.70709293
  C -0.39521994  0.02728055  0.38540579
  C -0.68062468 -1.43586950  0.07008208
  H  0.23886156 -2.01163080  0.09328092
  H -1.36351542 -1.84474603  0.81147552
  H -1.13996822 -1.52494112 -0.91052523
  O -1.65353325  0.69826145  0.62479870
  C -2.31693934  1.09203511 -0.42022474
  H -3.24024169  1.54966618  0.00069477
  H  0.13166137  0.10246108  1.34386410
  H  0.46835823  1.78854969 -0.46320560
  H -0.12690465  0.62953635 -1.65126910
  H  1.79562411 -0.79936326 -1.36212459
  H  2.43234529  0.84131017 -1.41941095
  H  2.27199392  0.01739661  0.12971336
