12
opt_min/./Reactant_722_0_opt.xyz
  C -1.71248401 -0.90683699  0.68010998
  C -0.37723757 -0.67016769  0.01100663
  O  0.07506215 -1.41665786 -0.81442012
  C  0.31411912  0.60990606  0.45709457
  C  1.57723592  0.83254262 -0.21137291
  C  2.61990249  0.99852742 -0.77327110
  H  3.53003520  1.15170406 -1.26464898
  H  0.47841298  0.56529325  1.53722517
  H -0.35021965  1.45874389  0.27086085
  H -1.94814319 -1.96447479  0.65266235
  H -1.72363527 -0.55226355  1.70463904
  H -2.47984343 -0.37365507  0.12764010
