11
opt_min/./Product_3993_0_opt.xyz
  N  2.24240600  0.39599400 -0.21223000
  C  0.98593375  0.19074261 -0.14415986
  C -0.07070795  1.11890716 -0.03434305
  H -0.01554990  2.18285113  0.01341601
  N -1.24563865  0.43592564  0.01063056
  H -2.15201392  0.86924472  0.08560004
  C -1.03605956 -0.87144820 -0.06426065
  H -1.78732298 -1.63258959 -0.05188550
  N  0.30280018 -1.06207114 -0.16405003
  H  0.75466165 -1.95793429 -0.23156988
  H  2.79953459 -0.44889972 -0.28192602
