10
opt_min/./Product_3201_0_opt.xyz
  O -0.69489500 -0.84231800 -1.01141300
  C  0.40644171 -0.74827414 -0.12266908
  C  1.29564890  0.41098744 -0.31062448
  O  0.90774706  1.49896650 -0.66201326
  H  2.35518533  0.22499404 -0.06781389
  H  0.84923376 -1.69350656  0.16742413
  C -1.01803554 -0.43680310  0.26144578
  O -1.42667135  0.82590449  0.48392504
  H -0.78601241  1.43882030  0.05724052
  H -1.55985940 -1.15071661  0.87449799
