17
opt_min/./Product_11524_0_opt.xyz
  C  0.74316800 -1.25656800  0.42457900
  H  0.93511566 -1.91284909  1.25717273
  H  0.49791128 -1.75573716 -0.49635773
  C  1.52651193  0.02438508  0.32267604
  N  2.01357746  0.44299726 -0.96637744
  H  1.41657963  1.14104942 -1.39125894
  H  2.94324972  0.82772922 -0.89102992
  H  2.21575210  0.22359370  1.13668684
  C  0.06527179  0.06689431  0.68372831
  C -0.97829969  0.55891037 -0.27209572
  H -0.60335091  0.99074958 -1.19587612
  C -2.29257518 -0.12317132 -0.35815293
  H -2.48521492 -0.96833199  0.28256029
  H -2.79455792 -0.14795856 -1.31840688
  N -2.15105885  1.13455918  0.33275587
  H -2.55182009  1.94312063 -0.12495294
  H -0.17924350  0.29836042  1.70898415
