11
opt_min/./Product_1841_0_opt.xyz
  N  1.82642100 -0.12758100  0.06450400
  C  0.46513462 -0.15235027  0.08858055
  C -0.51958928 -0.85610628  0.66666581
  H -0.60939599 -1.62388520  1.40303794
  C -1.59411170 -0.00541395 -0.01782362
  H -2.56964825 -0.27664510 -0.37707702
  C -0.52090735  0.75795226 -0.65836632
  H -0.47144921  1.20340321 -1.63661561
  O -1.34609518  1.34226391  0.31859844
  H  2.24680237  0.73230213 -0.24764594
  H  2.29988476 -0.59306439  0.82134407
