12
opt_min/./Product_930_0_opt.xyz
  O -2.04695500 -0.85116400 -1.05700900
  C -1.37696512 -0.79264505 -0.06344510
  C -0.39892310  0.32752295  0.20968871
  C  0.92951067 -0.25384094  0.61248009
  C  2.03334868 -0.11721288 -0.09602408
  H  2.96946944 -0.54490748  0.21744666
  H  2.02994292  0.44574465 -1.01299119
  H  0.90687822 -0.80558307  1.54191800
  O -0.28768963  1.17666717 -0.89194038
  H -1.09261930  1.07170510 -1.42669186
  H -0.82133578  0.86838596  1.08528765
  H -1.42886464 -1.54521408  0.73894127
