12
opt_min/./Product_5670_0_opt.xyz
  N -1.87482700 -0.21358100  0.07883000
  C -0.37670946 -0.17678171  0.06180765
  C  0.39081555 -1.29413810  0.40906425
  N  1.65119588 -0.75950148  0.24800975
  H  2.48774829 -1.29220463  0.42824145
  C  1.67630239  0.54383694 -0.16914983
  H  2.59393886  1.07818171 -0.32944761
  C  0.38036357  0.95865227 -0.30747261
  H  0.02895301  1.92720262 -0.61178633
  H -2.25631909  0.67402519  0.41585318
  H -2.26256558 -0.41652655 -0.84875367
  H -2.11584128 -0.97880386  0.71423277
