17
opt_min/./Product_11542_0_opt.xyz
  C  2.53410500 -0.58767800  0.10987000
  O  1.31569435 -0.05314105  0.56122525
  C  0.45126602  0.29053800 -0.48702887
  C -0.89185005  0.77123123  0.10735787
  C -1.60347187 -0.39170921  0.73079812
  C -2.74502740 -0.89471500  0.30704261
  H -3.21587548 -1.74044561  0.77811260
  H -3.25738248 -0.45264177 -0.53153470
  H -1.05718179 -0.80651537  1.56822674
  O -1.69436265  1.36467436 -0.88392383
  H -1.22589956  2.12318926 -1.25377921
  H -0.64460655  1.49356728  0.90339842
  H  0.26599359 -0.56975650 -1.15278776
  H  0.88591887  1.09937057 -1.10330942
  H  3.07916759  0.13427619 -0.51172697
  H  3.11897171 -0.82265294  0.99882384
  H  2.37145926 -1.50050646 -0.47810775
