14
opt_min/./Product_8370_0_opt.xyz
  O -0.93928800  1.53312400 -0.49080500
  C -0.67103675  0.15535653 -0.41268480
  C  0.28383412 -0.22449489  0.72765554
  N  1.66775755  0.02442644  0.33593746
  C  2.03284598 -0.08042095 -0.89518787
  H  3.11477164  0.11759140 -0.99361840
  H  2.26456707  0.26052298  1.13440639
  H  0.04279339  0.34319007  1.63275399
  H  0.15035560 -1.29425313  0.93302089
  C -1.93369003 -0.66445588 -0.37731372
  O -2.00634395 -1.82134069 -0.06068948
  H -2.83011658 -0.09483963 -0.69054293
  H -0.10400425 -0.08577162 -1.33494952
  H -1.40321614  1.81784562  0.30448562
