10
opt_min/./Product_3937_0_opt.xyz
  O  2.44689300 -0.06828599  0.15058093
  C  1.13987224  0.12595159  0.24961986
  N  0.31985891 -0.68115820 -0.25949407
  C -1.10513381 -0.49672251 -0.13295214
  C -1.53496179  0.87938308  0.00057791
  N -1.84049812  1.97753904  0.09165727
  H -1.47001869 -1.06190468  0.73493984
  H -1.56407047 -0.92778995 -1.03137432
  H  0.90777731  1.04239203  0.80379871
  H  2.60053680 -0.88173937 -0.35847214
