11
opt_min/./Product_10781_0_opt.xyz
  O  1.83962800 -0.94753700 -0.35217100
  C  1.08849061 -0.16880006  0.35850515
  C -0.24424150  0.06562188  0.11707260
  C -0.87208009 -0.59707707 -1.00437831
  O -0.28524407 -1.36236837 -1.75299584
  H -1.94189963 -0.37782584 -1.14879141
  C -1.00081972  0.96378877  0.98268977
  O -0.54358045  1.57548426  1.91373706
  H -2.05803583  1.08315382  0.67475485
  H  1.57985121  0.31800978  1.19698288
  H  1.27696516 -1.34864843 -1.08010208
