13
opt_min/./Product_4830_0_opt.xyz
  C  2.31251300 -0.28778700  0.61103800
  C  1.28350211  0.19009222 -0.08033975
  N -0.03281607 -0.06784491  0.18564633
  C -1.11980469  0.48294595 -0.55687517
  C -2.44269479  0.00131764 -0.02902780
  O -2.57508197 -0.71831321  0.92029160
  H -3.31307057  0.38017618 -0.59735656
  H -1.14000553  1.58540155 -0.50599106
  H -1.06011932  0.21855927 -1.62343280
  H -0.26719547 -0.64621140  0.97862361
  H  1.44027916  0.84101117 -0.93134244
  H  2.17184430 -0.93380689  1.45992569
  H  3.32330419 -0.05041940  0.34289627
