14
opt_min/./Product_11489_0_opt.xyz
  C -1.26141893 -0.99732109  0.08407598
  C -0.60978071  0.39193383  0.17742447
  C -0.38691691  0.70610755  1.57329364
  N -0.24810600  0.92546542  2.68628611
  C  0.67963355  0.44889280 -0.61898545
  O  0.52039944  0.45101656 -1.98001697
  H -0.41853929  0.44149747 -2.19998717
  C  1.88818506  0.47619939 -0.08174730
  H  2.75949151  0.50707773 -0.70902035
  H  2.03071020  0.46188903  0.98186995
  H -1.30035280  1.15535676 -0.21403236
  H -2.18560946 -1.01107731  0.65946902
  H -0.58832886 -1.74761466  0.49263692
  H -1.48888835 -1.25641257 -0.94881683
