11
opt_min/./Product_10664_0_opt.xyz
  O  2.78252167 -0.00917489  0.84426721
  N  1.89470282 -0.49222365  0.15942772
  C  0.60396166 -0.11066550  0.18107557
  C -0.13912783  0.98307170 -0.13589080
  H  0.13075316  1.99147303 -0.39304628
  C -1.43493321  0.23982808 -0.16464040
  H -2.14166026  0.51977292  0.61544156
  H -1.94954288  0.21704278 -1.12571309
  C -0.60173573 -1.03312336  0.12436080
  H -0.58898214 -1.75171062 -0.69039400
  H -0.81854530 -1.53968585  1.06240755
