13
opt_min/./Product_9728_0_opt.xyz
  C -1.96706000 -0.48556400 -0.20079600
  C -0.54010486 -0.11558460 -0.13346745
  C  0.62137439 -0.63297204 -0.67871104
  N  1.37170599  0.65059445 -0.44905951
  C  0.14736193  1.15298972  0.23674010
  H -0.18439099  2.08985873 -0.21163587
  H  0.29473141  1.27988387  1.31178504
  C  1.90986271 -0.60912840 -0.00295187
  H  2.78165396 -0.89224219 -0.57645234
  H  1.95391988 -0.87562481  1.05214941
  H -2.59931305  0.35586653  0.07552170
  H -2.17674211 -1.31946794  0.47264685
  H -2.23773036 -0.81179927 -1.20553585
