16
opt_min/./Product_10362_0_opt.xyz
  C  2.98322800  0.62448300 -0.83444500
  C  1.56186020  0.81034712 -1.14443860
  C  0.66978379 -0.05385751 -0.36404445
  O -0.67452965  0.38598651 -0.42913162
  C -1.64320433 -0.39040876  0.11377909
  C -2.98873980  0.25555417 -0.04524056
  H -3.41331628 -0.04038227 -1.00300699
  H -3.65131039 -0.07681091  0.74782958
  H -2.88001676  1.33616611 -0.03256682
  N -1.54120242 -1.50632757  0.67913361
  H -0.60908397 -1.90842865  0.74173112
  H  0.75982214 -1.03226581 -0.87843533
  H  0.97019795 -0.21845696  0.68874695
  H  3.56535494  0.57084580 -1.75328845
  H  3.24395090 -0.20152383 -0.15639903
  H  3.27228087  1.56219085 -0.34824468
