15
opt_min/./Product_7169_0_opt.xyz
  C -1.60610100  0.65097000 -0.08669500
  C -0.30922578 -0.07173342  0.10597034
  C -0.21313163 -1.53767579  0.32960997
  H  0.45478524 -1.93492365  1.08793277
  H -1.12953353 -2.09102222  0.17234784
  N  0.33758617 -0.98532259 -0.88429718
  C  1.67542843 -0.45394994 -0.51923517
  H  2.30957090 -1.18086414 -0.00690936
  H  2.20672968 -0.04500317 -1.37578893
  C  1.01701247  0.56726592  0.37107106
  N  1.44326193  1.64314028  0.84638117
  H  0.73895158  2.22927327  1.29529513
  H -2.08134297  0.82958274  0.87836203
  H -1.43578611  1.60778459 -0.57666657
  H -2.27539858  0.05677910 -0.70570606
