15
opt_min/./Reactant_7169_0_opt.xyz
  C -1.91898390  0.76907503 -0.34525451
  C -0.47590674  0.56704672  0.04227636
  H  0.19631954  1.35777278 -0.28713241
  C -0.08508733 -0.13699589  1.28418473
  H -0.84297571 -0.54398272  1.94037604
  H  0.82857193  0.16683460  1.78595055
  N  0.01115401 -0.79168576  0.00214175
  C  1.31048777 -1.09707551 -0.56150505
  C  2.32419062 -0.08203289 -0.36464426
  N  3.07335985  0.76091549 -0.17167663
  H  1.65536236 -2.03796928 -0.11443957
  H  1.17556673 -1.26103569 -1.63834479
  H -2.19505693  1.81418698 -0.22740532
  H -2.06898522  0.48835781 -1.38585844
  H -2.57169444  0.15765546  0.27163723
