15
opt_min/./Product_6679_0_opt.xyz
  C -0.91695300 -0.98521800  0.77458600
  C -0.17325619 -0.05438994 -0.18822154
  O -0.46483237 -0.37501028 -1.54001513
  H -1.42223375 -0.38299856 -1.65144642
  C -0.50292643  1.42058600  0.09462013
  H -0.18627827  1.69350889  1.09751387
  H -1.57572875  1.58291941  0.00810407
  H  0.00722073  2.05671161 -0.62405219
  C  1.27864041 -0.24491543 -0.02447311
  C  2.51762917  0.03752808 -0.11754617
  H  3.47425327  0.45778458 -0.22518944
  O  2.11648047 -1.25499503  0.54029413
  H -0.66123496 -0.74150983  1.80192750
  H -0.63129577 -2.01530502  0.57895852
  H -1.99254890 -0.87789603  0.64335148
