11
opt_min/./Product_1451_0_opt.xyz
  O  2.51963100  0.76697100  0.57182400
  C  1.48171226 -0.06522812  0.35817148
  C  0.22128230  0.46926002  0.14358587
  N -0.77722263 -0.51568742 -0.06877495
  C -2.02938022 -0.21063442 -0.29316712
  H -2.28414420  0.83461599 -0.31188606
  H -2.76738176 -0.97345682 -0.45089503
  H -0.49416029 -1.48890320 -0.04136161
  O -0.06762146  1.67544582  0.12079556
  H  1.72615733 -1.11283138  0.36798198
  H  2.14967717  1.66799204  0.53584202
