14
opt_min/./Product_7422_1_opt.xyz
  C -1.27349500  0.74944100 -0.17392600
  H -2.15139652  1.26933042 -0.51588748
  C -0.32069953  1.23192341  0.61137144
  H -0.28746715  2.21037762  1.05766156
  C  0.77830400  0.25426041  0.78923699
  H  1.31451493  0.21052882  1.72420159
  C  0.36258617 -0.95562434 -0.01549045
  H  0.60307209 -1.96162962  0.29485960
  C -1.02852604 -0.68652576 -0.55417982
  H -1.75560043 -1.31844647 -0.03084243
  H -1.13925134 -0.88022197 -1.62077338
  C  1.47636546 -0.08140332 -0.50392362
  H  2.48016018 -0.47697298 -0.44995558
  H  1.28811797  0.55544921 -1.35468758
