16
opt_min/./Product_2772_0_opt.xyz
  C  2.18473800 -0.78761200 -0.08167100
  C  1.00995773 -0.26476459 -0.78606358
  C -0.20841238 -0.17362300  0.03528895
  C -0.20878012  1.31361171  0.44404803
  H  0.58174886  1.51362061  1.16337928
  H -1.17414531  1.54153646  0.89052352
  H -0.06774845  1.93957246 -0.43358268
  C -1.48433180 -0.47516077 -0.77253453
  O -2.65922437 -0.25597262 -0.03312582
  H -2.65452328 -0.83078918  0.74295745
  H -1.54598117  0.19149122 -1.63414120
  H -1.43873823 -1.51267232 -1.13296428
  H -0.22741848 -0.78883070  0.95788543
  H  3.09463512 -0.25922580 -0.36435026
  H  2.27559456 -1.78857147 -0.52413658
  H  2.12303526 -0.90598325  1.00927037
