13
opt_min/./Product_10744_0_opt.xyz
  O -1.55297700 -0.98781100 -0.09697100
  C -0.72758096 -0.25345954  0.83434813
  H -0.98413233 -0.24738859  1.88913748
  C -0.66605413  0.99063204 -0.11391287
  H -1.56357507  1.58594158 -0.24688088
  C  0.64055319  1.63892558 -0.05248168
  C  1.53800625  0.45969095  0.14221086
  H  2.30738475  0.41907530 -0.63035049
  H  2.05611393  0.57233988  1.09991083
  C  0.55691825 -0.69938904  0.11518175
  H  0.90215176 -1.72278602  0.21185485
  C -0.54246759 -0.35892095 -0.90888958
  H -0.57578759 -0.47552121 -1.98783422
