13
opt_min/./Reactant_10744_0_opt.xyz
  O -1.53406300 -0.53647000  0.96696400
  C -1.12178349  0.04584508 -0.29349511
  H -1.82622067  0.25736586 -1.09461705
  C -0.07898108  0.94161536  0.41461305
  H -0.40237254  1.81024019  0.97727679
  C  1.12955385  1.01524990 -0.47638767
  H  1.73794422  1.88558297 -0.62440072
  C  1.22785409 -0.20183066 -0.99549222
  H  1.94430594 -0.60969830 -1.68073865
  C  0.06990175 -0.95208313 -0.39733232
  H -0.10636983 -1.99202707 -0.64831309
  C -0.09367563 -0.47456245  1.06621318
  H  0.45981979 -0.74115401  1.96353393
