9
opt_min/./Product_4891_1_opt.xyz
  O  1.56888700  0.07106400  1.21562500
  C  1.25275714  0.31025070  0.08562131
  C -0.03145251 -0.10438214 -0.55122467
  H -0.13003889  0.08543668 -1.61607807
  C -1.26014687 -0.10443335  0.27208855
  H -1.17208638  0.18604777  1.31037966
  H -2.20755897  0.10159433 -0.21081267
  O -0.63138411 -1.28078412 -0.08987304
  H  1.91972769  0.89030206 -0.58571407
