14
opt_min/./Reactant_10165_0_opt.xyz
  N  2.38356900  0.57526100 -0.03216200
  C  1.93809512 -0.62824464 -0.45108451
  O  2.59763954 -1.39239699 -1.11432992
  C  0.52701545 -0.94954499  0.04701235
  C -0.45854288  0.10988339 -0.39260952
  H -0.57959959  0.19776028 -1.47003624
  C -1.57182382  0.52288520  0.46375726
  H -1.69150371  0.07738432  1.44422365
  H -2.48340359  0.89941129  0.01343251
  O -0.44142224  1.33162121  0.29487116
  H  0.23134703 -1.91978844 -0.35294847
  H  0.54847321 -0.99957980  1.13691580
  H  1.74839536  1.23862466  0.38183953
  H  3.27057070  0.90324241 -0.37851868
