9
opt_min/./Reactant_208_0_opt.xyz
  O  2.35867000 -0.07739700 -0.34980500
  C  1.25327827  0.38320753 -0.31883691
  C  0.00903090 -0.42181330 -0.37243918
  H  0.13893622 -1.46417096 -0.64853997
  C -1.13663565 -0.06651198  0.48877562
  H -1.04976539  0.79409211  1.13995781
  H -1.79913578 -0.85145296  0.82661721
  O -1.14008114  0.20605999 -0.87088609
  H  1.07722732  1.47374407 -0.23723399
