11
opt_min/./Product_2548_0_opt.xyz
  C -1.32187795 -0.14674205 -0.59646411
  C -2.54388906 -0.52763853 -0.70727039
  C  0.03889176 -0.72600384 -0.33711642
  C  0.82656471  0.09022736  0.69982699
  C  1.06661952  1.41719533  0.19605682
  N  1.21403828  2.46271588 -0.24049388
  H  0.27749181  0.13989810  1.64145170
  H  1.79453936 -0.38450469  0.88693023
  H  0.58935376 -0.74615195 -1.28391567
  H -0.07743176 -1.75709839  0.00021089
  H -1.32319983  0.93538103 -0.77624671
