13
opt_min/./Product_686_0_opt.xyz
  C  2.11174900 -0.34973600 -0.09048700
  C  0.76207269 -0.17759111 -0.02363932
  C -0.29640989 -1.08556221  0.12303674
  H -0.29768483 -2.14915611  0.19450563
  N -1.58626717 -0.36938213  0.13187742
  H -2.12043203 -0.51072024  1.00253384
  H -2.21265286 -0.66135220 -0.63296966
  C -1.19231244  1.03626944 -0.01640840
  H -1.95758849  1.78758329 -0.04346690
  C  0.13405366  1.13034875 -0.10137103
  H  0.68050897  2.04803490 -0.21470418
  H  2.77182626  0.48912398 -0.20411204
  H  2.55245756 -1.32712518 -0.03283859
