19
opt_min/./Reactant_9272_0_opt.xyz
  C  2.82434100 -0.17161300  0.42793000
  O  1.48853050  0.24091783  0.52363361
  C  0.68284674 -0.21804298 -0.53973374
  C -0.74473330  0.29509726 -0.34867282
  C -1.63487062 -0.12267612 -1.51653173
  H -1.18542907  0.15522548 -2.46380971
  H -2.59904352  0.36074968 -1.43306932
  H -1.78832008 -1.19736124 -1.50840320
  C -1.30835076 -0.22655411  0.97899553
  O -2.58723009  0.34015781  1.20838385
  H -2.69289613  0.51427281  2.14454239
  H -0.60599527  0.02776647  1.77520380
  H -1.39899140 -1.32036206  0.93273635
  H -0.71572033  1.38542151 -0.28369855
  H  0.68590951 -1.31697926 -0.57519816
  H  1.08835115  0.15343579 -1.49452862
  H  3.29556027  0.20284498 -0.48707638
  H  2.90746948 -1.26553759  0.43946914
  H  3.34108289  0.23736063  1.28972541
