9
opt_min/./Product_2122_0_opt.xyz
  C  1.95024027  0.50585404 -1.82717265
  C  0.94342998  0.17251981 -1.02255299
  C  0.04933622 -0.23430250 -0.26544336
  C -1.10053524 -0.37456658  0.48793125
  C -1.71561985 -1.21850914  1.25607277
  H -2.67683924 -1.18690124  1.72221292
  H -1.56649090  0.61055827  0.36691910
  H  2.75527593  1.12750002 -1.48031313
  H  1.99208496  0.15322096 -2.84161661
