14
opt_min/./Product_2006_0_opt.xyz
  C -1.84048200  0.18089300  0.06948300
  C -0.56659808 -0.14291480  0.82553106
  H -0.81050508 -0.62562520  1.77454547
  C  0.44083504  0.98431533  0.94794972
  H  0.37725661  1.95669952  1.39065973
  C  1.38238185  0.31760122  0.28182091
  O  2.65068227  0.58506799 -0.10595141
  H  3.00536108 -0.17529615 -0.57959630
  C  0.54176527 -0.91039463  0.03880616
  H  0.29451313 -1.10682014 -1.00278445
  H  0.88933825 -1.83161543  0.50421772
  H -2.46185770 -0.70202315 -0.05844224
  H -1.61310474  0.59603174 -0.91094051
  H -2.41475593  0.92866021  0.61331828
