16
opt_min/./Product_1000_0_opt.xyz
  C  2.40572300  0.25754300 -0.17562300
  C  1.80151238 -0.87791750 -0.46807802
  C  0.32789621 -1.03867167 -0.69916221
  C -0.55786231 -0.10255015  0.08759084
  C -0.37162782  0.12543774  1.37697038
  H -1.02089247  0.77914350  1.93602249
  H  0.44026282 -0.32256594  1.92075735
  C -1.68359150  0.51686633 -0.68187728
  H -1.29092127  1.16009585 -1.47140521
  H -2.32323486  1.11335303 -0.03540836
  H -2.28780690 -0.25615191 -1.15770531
  H  0.03976040 -2.06887729 -0.45994451
  H  0.14025168 -0.89711638 -1.77070137
  H  2.38310453 -1.78370693 -0.60248993
  H  3.47440464  0.31862277 -0.04851587
  H  1.85197077  1.17001285 -0.03838751
