14
opt_min/./Product_10521_0_opt.xyz
  C  0.65562700  0.64165300 -0.08482400
  H  1.22116255  1.32244346  0.54564703
  H  0.60475776  1.04618513 -1.09867150
  C  1.26411793 -0.74514713 -0.16387945
  N  2.46448321 -1.11196112 -0.19360875
  H  3.13849208 -0.35504866 -0.15456777
  O  0.29324042 -1.67593195 -0.19462797
  C -0.98477593 -1.06783332 -0.14942783
  H -1.39554798 -0.99676082 -1.16217978
  H -1.63008599 -1.68937848  0.47430488
  C -0.76707942  0.35543346  0.41027949
  O -1.71434756  1.26001208 -0.10293975
  H -2.23735551  1.64423466  0.60545944
  H -0.79006907  0.32419646  1.50426931
