12
opt_min/./Product_4668_0_opt.xyz
  O  2.98643200 -1.18272300  0.67020600
  C  2.20726755 -0.43198994  0.23671603
  C  1.38647745  0.46106222 -0.21051250
  C  0.07487159  0.82228889  0.47554321
  C -0.81427974 -0.37219900  0.63403469
  C -2.01287663 -0.49609029  0.09879996
  H -2.61516658 -1.37518740  0.24050687
  H -2.44846212  0.28554446 -0.50251586
  H -0.39298674 -1.17371401  1.22897261
  H  0.29847010  1.24563697  1.45815464
  H -0.42909705  1.57824385 -0.12241755
  H  1.55008273  0.85384042 -1.19778166
