13
opt_min/./Product_7911_0_opt.xyz
  C -1.14077000 -1.02425700  0.19670100
  O  0.27384780 -1.00950366  0.10812645
  C  0.88266991  0.16099635 -0.14925008
  N  2.22496620  0.01736439 -0.25079273
  H  2.65005570 -0.83330829  0.07215485
  H  2.76815509  0.86195077 -0.28134457
  N  0.34294817  1.27487604 -0.43661195
  C -0.81938795  1.90430092 -0.21691824
  O -1.40430035  1.99601770  0.83751601
  H -1.14180940  2.46090066 -1.11735531
  H -1.40861264 -2.05146701  0.43513458
  H -1.59333382 -0.73756925 -0.75686753
  H -1.49869485 -0.35160739  0.97842162
