13
opt_min/./Product_11616_0_opt.xyz
  C  2.64907000  0.68562600  0.21942800
  O  1.39463202  0.83610684 -0.41267891
  N  0.61910654 -0.28572241 -0.23407577
  C -0.51525367 -0.46866406 -0.60937245
  C -1.71256281 -0.73880156 -1.07393591
  C -2.93224633 -0.47547668 -0.34309799
  N -2.92021105 -0.05501174  0.84891976
  H -3.83535351  0.11315533  1.25859651
  H -3.84575312 -0.66147391 -0.92692694
  H -1.79770583 -1.23217581 -2.03131152
  H  2.53109369  0.50778526  1.29139777
  H  3.16209363  1.63087472  0.05449335
  H  3.22371321 -0.13131904 -0.22807779
