12
opt_min/./Product_5783_0_opt.xyz
  C -0.99784030 -0.62496000 -0.25148214
  C  0.25428290 -0.63013848  0.58189224
  C  1.38924812 -0.15725274  0.16706182
  C  2.50030629  0.33508873 -0.27856358
  H  3.23038956 -0.28235065 -0.77940051
  H  2.74367057  1.37512196 -0.13164241
  H  0.16720753 -1.00869222  1.59214115
  C -1.86924497  0.57549203  0.01094166
  O -1.66324266  1.44445480  0.80563557
  H -2.76596026  0.59977139 -0.64541211
  H -1.60655643 -1.51080358 -0.04391294
  H -0.75378418 -0.63368244 -1.31735966
