10
opt_min/./Product_8186_1_opt.xyz
  O -1.06263195 -1.82447403  0.09846796
  C -0.86222630 -0.91786843 -0.64670055
  C  0.21514349  0.15432716 -0.46637693
  C  0.87452749  0.07943319  0.82819683
  C  1.39955950  0.01244589  1.89984465
  H  1.86793015 -0.04786085  2.83827465
  C -0.37681874  1.46654929 -0.63327527
  N -0.84131807  2.50237180 -0.75350230
  H  0.95193189  0.01583538 -1.27141672
  H -1.44859666 -0.76664789 -1.57539712
