15
opt_min/./Product_9903_0_opt.xyz
  C  2.61489498  0.20360310  0.09944342
  C  1.25180289 -0.14240266 -0.37585047
  N  0.23329228  0.32069251  0.19233560
  C -1.09658601 -0.02606250 -0.27733078
  C -1.32870852 -1.44410583 -0.07404111
  N -1.48165634 -2.56378030  0.09905436
  C -2.13446721  0.79660999  0.48501261
  H -2.04677755  0.61005139  1.55169810
  H -3.13787252  0.53347356  0.15715131
  H -1.96692744  1.85421998  0.30026545
  H -1.18866863  0.15760517 -1.36140357
  H  1.21012403 -0.81818239 -1.24697828
  H  3.08788894  0.87537087 -0.61758105
  H  3.23329040 -0.68873253  0.16436456
  H  2.55958945  0.70011490  1.06332951
