9
opt_min/./Product_5263_0_opt.xyz
  N  1.23661000  0.85094300  0.52982200
  C  0.87992262 -0.09406005 -0.20601490
  C -0.54358546 -0.57872792 -0.19560230
  C -1.46435907  0.40884168  0.31610446
  N -2.20785756  1.18179980  0.70670739
  H -0.85081285 -0.85753905 -1.20666035
  H -0.60300718 -1.46767198  0.43730195
  H  1.54396854 -0.65159459 -0.89078560
  H  2.21502667  1.11525009  0.47754879
