8
opt_min/./Product_5561_0_opt.xyz
  C -1.24935400  0.10269300  0.12867400
  H -1.70166033 -0.27710221  1.03629189
  H -1.76382044  0.93101227 -0.34231988
  O -0.73321177 -0.89448763 -0.76234705
  C  0.15177480 -0.11061980 -0.11480721
  C  1.43541482  0.09595021  0.01230062
  H  2.15663828 -0.48931704 -0.52670983
  H  1.79599782  0.86652578  0.66912667
