17
opt_min/./Reactant_9822_0_opt.xyz
  C -1.49806600 -0.05293900 -0.12227100
  H -1.59977306  0.30194039 -1.14888143
  H -2.49602024 -0.22663192  0.28726837
  C -0.76026692 -1.39412479 -0.12801459
  H -1.38096219 -2.14919596 -0.61847381
  H -0.57374796 -1.71207149  0.91031222
  O  0.44515912 -1.39083271 -0.85216018
  C  1.52429732 -0.74460107 -0.21121392
  H  1.56987867 -1.07366631  0.84276151
  H  2.41586908 -1.11409420 -0.72493090
  C  1.49270334  0.75963959 -0.26357450
  H  2.37822353  1.23047740 -0.67009425
  C  0.48293464  1.51364278  0.14345240
  H  0.57433767  2.58916255  0.06136508
  C -0.80509997  1.01468359  0.72906315
  H -0.60905002  0.59884776  1.72429763
  H -1.48570654  1.85991182  0.85300707
