15
opt_min/./Product_8166_0_opt.xyz
  O -2.21795600 -0.28304300 -0.81492700
  C -1.10333859 -0.24915525  0.01761846
  H -1.33637437 -0.64704999  1.00832771
  C -0.40694632  1.12082077  0.00927487
  H -0.36335644  1.62293727  0.97389693
  H -0.85702014  1.77295849 -0.72886418
  C  0.89883344  0.46687316 -0.46304119
  H  1.44030074  0.97007345 -1.26074443
  C  1.70689708 -0.17265863  0.67153944
  H  2.75417117 -0.33887829  0.42243073
  H  1.68252061  0.28965662  1.65802360
  C  0.98609133 -1.48906802  0.52767121
  C  0.19691074 -0.89779754 -0.60099385
  H  0.02060590 -1.48426998 -1.49475632
  H -2.70384845 -1.10547401 -0.70214860
