13
opt_min/./Product_8354_0_opt.xyz
  C  2.89290500  0.62535100  0.96802799
  C  1.75985210  0.50732709  0.58476142
  C  0.43996253  0.35463664  0.14333019
  C -0.43071076  1.31646492 -0.17818954
  H -0.29645674  2.38289454 -0.16130843
  O -1.64768301  0.88223070 -0.57930088
  C -1.63418101 -0.54979311 -0.53825225
  H -2.43407117 -0.86993841  0.13401682
  H -1.85713207 -0.91703123 -1.54386113
  C -0.23882950 -0.98624715 -0.05067814
  H  0.28663713 -1.59739722 -0.78592722
  H -0.28434603 -1.55048789  0.88118657
  H  3.88354419  0.72923928  1.29423753
