16
opt_min/./Product_11236_0_opt.xyz
  C -1.60341300  0.02445100  0.38753900
  H -1.92512190 -0.50341322  1.29033375
  H -2.45413733  0.17764609 -0.27809404
  C -0.41814734 -0.70909260 -0.26287014
  O -0.31054617 -0.43085412 -1.63490444
  H -1.08295743 -0.77987599 -2.09128132
  H -0.47269302 -1.79598068 -0.09150801
  C  0.78402057 -0.06970419  0.48470185
  C  2.09092286 -0.11077302 -0.29057317
  H  1.96256453  0.40503891 -1.23886765
  H  2.38844979 -1.13589860 -0.49349227
  H  2.86947286  0.39323217  0.27368223
  H  0.90421290 -0.59714704  1.43937381
  C  0.32414838  1.33350553  0.84165689
  N -0.97204370  1.29782398  0.75777210
  H -1.56362094  2.07840946  1.00314955
