14
opt_min/./Reactant_11488_0_opt.xyz
  C  1.10095616 -0.36309001  0.93357481
  C -0.06688178  0.55222201  0.55536789
  C  0.30722926  1.92947458  0.79996630
  N  0.62480044  3.00677427  1.00815335
  C -0.47936395  0.33541823 -0.91033788
  O -0.33447868  1.16670766 -1.76156429
  C -1.05718679 -1.03066516 -1.17790487
  H -1.44484452 -1.50361216 -0.28256032
  H -1.83046020 -0.95688840 -1.94303103
  H -0.26281273 -1.65551070 -1.59307680
  H -0.94649132  0.32700566  1.17633309
  H  1.38501002 -0.19737816  1.97434136
  H  0.83023806 -1.41066384  0.81046761
  H  1.96615757 -0.14342131  0.30759959
