17
opt_min/./Product_7590_0_opt.xyz
  C -1.63264200 -0.30792100 -0.19023300
  C -0.34181648  0.40658969  0.22997134
  O -0.64378448  1.47387094  1.10385911
  H -1.06048662  1.13335238  1.90185929
  C  0.68614950 -0.58577709  0.83426040
  H  0.24056040 -1.54777938  1.07892376
  H  1.11072202 -0.14383380  1.73691714
  C  1.75416604 -0.70077370 -0.26141494
  H  2.75047982 -0.85870049  0.15638872
  H  1.50729202 -1.51744559 -0.95509106
  O  1.75223019  0.53802665 -0.92956664
  C  0.41655830  0.99556157 -0.98053968
  H -0.05619400  0.67453887 -1.92114589
  H  0.43228159  2.08572113 -0.94714430
  H -2.33572182  0.39772820 -0.62605892
  H -2.10900554 -0.74998342  0.68726123
  H -1.42583538 -1.09824295 -0.90517199
