14
opt_min/./Product_5067_0_opt.xyz
  C -1.64380600  0.69797600 -0.22697800
  C -1.03584623 -0.57523898  0.37303952
  C  0.35376088 -0.35475625  0.95923837
  H  0.58854315 -0.98406215  1.81433211
  C  1.45024882  0.13605595  0.15511864
  N  2.31545366 -0.09554332 -0.82217495
  H  2.40473161 -1.01002395 -1.22963853
  H  2.96523551  0.62275127 -1.09347122
  N  0.98991562  1.01099747  0.95075991
  H -0.97020100 -1.35803391 -0.38931582
  H -1.67427201 -0.95673868  1.17066832
  H -1.87414398  0.57413683 -1.28196119
  H -0.93770991  1.52007379 -0.12174713
  H -2.55728154  0.97625268  0.29015404
