14
opt_min/./Product_8371_0_opt.xyz
  O  3.49146200  0.02770100  0.38465700
  C  2.19491991  0.36896916  0.10206398
  C  1.12236326 -0.30090119  0.52307446
  N -0.17610847  0.05734785  0.24208669
  C -1.28510161 -0.63632296  0.65675605
  C -2.53509021 -0.29251913  0.34140733
  O -2.79359109  0.81145886 -0.45914429
  H -3.74174149  0.93191867 -0.53839449
  H -3.38016219 -0.86190805  0.69159864
  H -1.09736597 -1.50369800  1.26945230
  H -0.34832999  0.85222398 -0.35244287
  H  1.22127264 -1.19000162  1.13080752
  H  2.13116538  1.25876335 -0.50300949
  H  3.49976525 -0.77277354  0.92065047
