19
opt_min/./Product_9709_0_opt.xyz
  C  2.84265600  0.54634700  0.05676400
  C  1.69170466  0.39040083 -0.57019208
  C  0.46368962 -0.19244330  0.05443178
  H  0.75780356 -0.80410672  0.91299670
  C -0.38850215 -1.03376168 -0.89463157
  H -0.47375348 -0.52913354 -1.85947902
  H  0.02696167 -2.02854489 -1.05768834
  C -1.74751847 -1.05310349 -0.20585738
  H -2.55287720 -1.39085082 -0.85535846
  H -1.70863204 -1.71569960  0.66132207
  C -1.92662165  0.39530661  0.25472180
  H -2.57590508  0.46729334  1.12595836
  H -2.37735882  0.98467243 -0.54565230
  C -0.50386150  0.91117619  0.54493820
  H -0.32060354  1.84273046  0.00906712
  H -0.34822489  1.11046112  1.60533571
  H  1.58306206  0.71847651 -1.59623938
  H  3.69936917  0.99876325 -0.41215076
  H  2.97622969  0.22289767  1.07653073
