12
opt_min/./Product_5562_0_opt.xyz
  C -1.18151900 -0.67499800 -0.13341900
  O -2.17109977  0.05067316 -0.82973361
  H -2.81972860  0.37232483 -0.19272891
  C -0.44250744  0.17187971  0.86702254
  C  0.82644577  0.46855720  0.74370581
  C  2.11652974  0.42799592  0.10242538
  H  2.30941219  1.04994280 -0.76075037
  H  2.74052333 -0.44969643  0.20898638
  O  1.84225354  1.13699753  1.32108456
  H -1.01177459  0.56877561  1.69475840
  H -1.63183059 -1.53636838  0.37987313
  H -0.49314146 -1.03887528 -0.89860492
