12
opt_min/./Product_3855_0_opt.xyz
  O -2.42592300  0.31405900 -1.14207300
  C -2.07349865 -0.49250258 -0.33011066
  C -0.64450705 -0.59728256  0.21311339
  C  0.29933645  0.44429413 -0.31756830
  C  1.69464552  0.34194232  0.28487714
  H  1.62803928  0.23434493  1.36281403
  H  2.27641473  1.22725947  0.05473156
  H  2.21390357 -0.52530544 -0.10646812
  H -0.14651361  1.42352635 -0.12403317
  H  0.33121512  0.33229954 -1.40232163
  O -0.36047342 -1.45177246  1.01226058
  H -2.75234487 -1.28702478  0.04153571
