15
opt_min/./Product_11092_0_opt.xyz
  C -1.87873300  0.79078100 -0.27521600
  C -0.46450257  0.53564561  0.20281758
  H  0.19542178  1.39759136  0.16157847
  C -0.16614087 -0.45562111  1.25987539
  H -0.97194311 -1.01829631  1.70785842
  H  0.68569433 -0.27456324  1.90385519
  N  0.09315804 -0.75565705 -0.12625710
  C  1.45714800 -0.90132589 -0.56341241
  O  2.35259700  0.11539870 -0.18838129
  H  2.21293299  0.88447478 -0.74899284
  H  1.84103896 -1.82563255 -0.12067268
  H  1.43345436 -1.02613983 -1.65586473
  H -2.02227221  1.84559034 -0.48805202
  H -2.07289592  0.22332306 -1.17925557
  H -2.60079241  0.49289886  0.47941677
