16
opt_min/./Product_1218_0_opt.xyz
  C  2.42370100 -0.01529000 -0.81595000
  C  1.08779322  0.71819971 -0.96359860
  C  0.32928670  0.73920825  0.32628971
  C -0.86232801  0.18636020  0.51234866
  O -1.54297652 -0.47768730 -0.46758769
  C -2.85862596 -0.84337229 -0.13946414
  H -3.23572027 -1.42095693 -0.97996355
  H -3.49721882  0.03313050  0.00860513
  H -2.88995244 -1.46234859  0.76368877
  H -1.35810189  0.22723308  1.47618172
  H  0.81314477  1.21747192  1.15983516
  H  0.47832144  0.23407015 -1.72529494
  H  1.28311058  1.74281511 -1.28090019
  H  3.09785186  0.53764072 -0.17081921
  H  2.26281233 -0.99640520 -0.38133827
  H  2.89467834 -0.14167423 -1.78405509
