13
opt_min/./Product_9667_0_opt.xyz
  O  2.01138300  0.53907500  0.62226800
  C  0.67911190  0.23342345  0.63230668
  H  0.32481524  0.33289946  1.65719512
  C -0.19121436  0.78031079 -0.53265104
  H -0.09787651  1.78672176 -0.93608370
  O  0.35124448 -0.25292696 -1.36984969
  C  0.30981466 -1.08274577 -0.18449637
  H  0.93777006 -1.96926442 -0.20040986
  C -1.06775037 -1.15641471  0.33350076
  C -1.54732820  0.18189572 -0.12731047
  H -2.20450162  0.03620567 -0.98700808
  H -2.10032991  0.71658856  0.64323483
  H  2.32562227  0.48960625 -0.29423529
