14
opt_min/./Product_8894_0_opt.xyz
  O  2.09612600 -0.35428200 -0.61298400
  C  0.83333697 -0.04752106 -0.16481106
  C  0.40264742  0.28954941  1.25268084
  H  0.23871483 -0.50275154  1.98744753
  H  1.03173863  1.07789403  1.66927672
  N -0.82382298  0.90035839  0.67334788
  C -0.09600176  1.02460614 -0.65857228
  H  0.05361115  1.90180850 -1.25538879
  C -0.44991662 -0.41622389 -0.91083105
  H -0.45713500 -0.99375119 -1.81892297
  C -1.54031181 -0.28816977  0.12731544
  H -2.49567284  0.02447863 -0.29479738
  H -1.67890268 -1.10412969  0.84124792
  H  2.26274792 -1.29774754 -0.48994276
