12
opt_min/./Product_1078_0_opt.xyz
  N  1.89695700 -0.17340300 -0.04465600
  C  0.40702262 -0.04266728 -0.01971923
  C -0.38412968  1.06334146  0.20111858
  H -0.06836136  2.07013458  0.40073380
  C -1.68669391  0.54706893  0.10298506
  H -2.60321414  1.09605077  0.21593055
  C -1.55715145 -0.80359876 -0.16482906
  H -2.33754865 -1.53012382 -0.30531702
  N -0.26493953 -1.17784364 -0.24690230
  H  2.31345064  0.38184491 -0.79914130
  H  2.02827831 -1.17587080 -0.22420186
  H  2.31699228  0.09434593  0.85115989
