7
opt_min/./Product_4963_0_opt.xyz
  O  3.20709186  0.97964884  0.27731629
  C  2.16140495  0.46967547  0.08584966
  C  1.05512510 -0.09252718 -0.15955625
  N -0.02046647 -0.64135699 -0.48180108
  C -1.25324964 -0.26437834 -0.35571210
  C -2.45461725 -0.09942409 -0.33075592
  H -3.50193755 -0.01231589 -0.32546023
