16
opt_min/./Product_674_0_opt.xyz
  C  2.25597600 -0.64644000  0.51521100
  O  1.55414477  0.46415532  0.02377999
  C  0.18610524  0.38620346 -0.08238456
  C -0.55091483 -0.68897612  0.18942989
  C -2.04353878 -0.74343815  0.04742434
  H -2.33765762 -0.78751594 -1.00068145
  H -2.43790632 -1.62714010  0.54079040
  H -2.52440199  0.12566882  0.48895955
  H -0.08644539 -1.60575847  0.51062689
  C -0.34569227  1.69602084 -0.57994268
  H -1.38060979  1.84099720 -0.29564986
  H  0.25405121  2.50449173 -0.17170018
  H -0.26211727  1.74359525 -1.66314126
  H  3.29528466 -0.33491636  0.57806631
  H  1.90335892 -0.93691902  1.50833291
  H  2.18608348 -1.50450160 -0.15865889
