16
opt_min/./Reactant_674_0_opt.xyz
  C -0.78373100  1.20226000  0.50578200
  C -0.44014809 -0.26763972  0.24168447
  C -1.57388347 -0.97108218 -0.49882928
  H -2.51307854 -0.84181547  0.02858881
  H -1.67285542 -0.56621129 -1.50007497
  H -1.37033297 -2.03404810 -0.58321516
  C  0.86000345 -0.35352919 -0.54447680
  O  0.91653575 -0.78977883 -1.66600852
  C  2.08452533  0.18291197  0.15953145
  H  1.98309631  0.16606440  1.23904764
  H  2.95286955 -0.39680608 -0.14060691
  H  2.24705584  1.20652974 -0.16944202
  H -0.27077502 -0.76690684  1.20111458
  H -1.72207528  1.27493966  1.04572229
  H -0.88689712  1.73483074 -0.43575479
  H -0.01411804  1.69240749  1.09480502
