14
opt_min/./Product_6624_0_opt.xyz
  O  3.06680300 -0.01526400 -1.12062800
  C  1.92065743 -0.10721833 -0.73327015
  C  1.51163637 -0.60155993  0.54599213
  C  0.22610588 -0.70090732  0.97378344
  N -0.87183850 -0.38985645  0.29529316
  C -2.27410111 -0.28510082  0.33176384
  H -2.84710401 -1.20357074  0.26491500
  H -2.71069545  0.46048023  0.98809809
  C -1.47423896  0.16846115 -0.84851384
  H -1.35099505  1.23502447 -1.00662821
  H -1.47466627 -0.42025849 -1.75744112
  H  0.01506835 -1.08279272  1.96833393
  H  2.29091596 -0.91714935  1.22147717
  H  1.09090976  0.20813214 -1.39968155
