9
opt_min/./Product_7920_0_opt.xyz
  N -1.48056576 -1.07929083  0.52234759
  C -1.20113269  0.17529566  0.09501536
  O -1.98820414  1.09160515  0.12668389
  C  0.13360723  0.31202589 -0.44552622
  C  1.19895929  0.49096446 -0.98752688
  N  2.35219346  0.66651857 -1.54255127
  C  3.40167830  0.81947704 -2.04282311
  H -2.37942403 -1.25521907  0.93959435
  H -0.77845610 -1.79666485  0.56653503
