12
opt_min/./Product_929_0_opt.xyz
  O  2.16325100  0.11048900  0.02798200
  C  1.00134635 -0.52220765 -0.34054760
  H  1.19509600 -1.50015014 -0.81877236
  C -0.06951472 -0.55972818  0.75351102
  H  0.14378132  0.04372026  1.63116529
  H -0.45474014 -1.53569135  1.01971001
  C -0.87873724  0.20249525 -0.26547171
  C -2.07738445  0.74051930 -0.33345196
  H -2.76988560  0.62217011  0.47768543
  H -2.38772116  1.31033291 -1.18975182
  O  0.14855162  0.24764825 -1.19533742
  H  2.67118495  0.34117884 -0.75689614
