19
opt_min/./Product_7583_0_opt.xyz
  C  1.73074000 -0.55901200 -0.71528100
  C  1.40554333  0.18501252  0.57401287
  C -0.05936931  0.40817523  0.91656985
  H -0.13286624  1.11717684  1.73977565
  C -1.07397354 -0.69085264  0.95047246
  O -1.91307570 -0.91001677  2.04068190
  H -2.02251594 -0.08547369  2.52818597
  H -0.79879265 -1.64816646  0.52712325
  C -1.27274904  0.45720313 -0.00033697
  C -1.26971190  0.27748680 -1.49842319
  H -2.29794606  0.23844558 -1.85295037
  H -0.77242466  1.11301698 -1.98939143
  H -0.77553979 -0.64466571 -1.78790842
  H -2.00610360  1.19606393  0.31065418
  H  1.83882622 -0.37381244  1.40987820
  H  1.89651350  1.16128259  0.54546542
  H  2.80638430 -0.70124420 -0.78244097
  H  1.25440410 -1.53643134 -0.73225455
  H  1.40619078  0.00414809 -1.58437243
