17
opt_min/./Product_10932_0_opt.xyz
  O  2.02494300  1.47301200 -0.52519700
  C  1.74902033  0.44376582  0.38759100
  C  0.31556084 -0.05559571  0.27230475
  O -0.51365953  1.02298404  0.63146104
  C -1.88767033  0.92065054  0.35697444
  H -2.09426246  0.89199484 -0.71714473
  H -2.33124495  0.03880608  0.83215541
  H -2.33643062  1.81799299  0.77805898
  C  0.02473010 -1.47864817  0.64568442
  H  0.85424845 -2.08473200  0.97279195
  H -0.90389058 -1.71551991  1.14023331
  C -0.01973930 -1.04841370 -0.79970218
  H -0.97998071 -1.01337038 -1.28777384
  H  0.78031995 -1.35169248 -1.45582167
  H  2.45027775 -0.36057850  0.16275075
  H  1.91150824  0.78624753  1.41952746
  H  1.34310322  2.14658444 -0.41100311
