11
opt_min/./Product_871_0_opt.xyz
  N  2.38330400  1.31895800 -0.34139399
  C  1.68999737  0.47866877  0.00255045
  C  0.79760346 -0.56783752  0.43528179
  C -0.53876367 -0.49565564 -0.31198788
  C -1.27712242  0.80190147 -0.09972864
  O -2.31082278  1.08609911 -0.63150015
  H -0.79106985  1.50144178  0.61230537
  H -0.38876556 -0.62800604 -1.38491420
  H -1.19143617 -1.30717033  0.01748134
  H  1.27582451 -1.53367386  0.25370475
  H  0.63972071 -0.45995130  1.51169224
