13
opt_min/./Product_101_0_opt.xyz
  C  1.52292700 -0.34927500  0.24036300
  C  0.25378643  0.19912089 -0.40961869
  H  0.52891043  0.78381628 -1.29029402
  C -0.63688836  1.00032545  0.49830976
  H -0.32266175  1.87160953  1.03517327
  C -1.84515481  0.42566138  0.48979138
  H -2.74070221  0.71395249  1.00676329
  N -1.89280914 -0.71043600 -0.32884518
  C -0.73017459 -0.85988167 -0.82852785
  H -0.49719456 -1.67684148 -1.48940954
  H  2.09061912  0.46377947  0.68376538
  H  1.25035953 -1.04208766  1.03524323
  H  2.13955145 -0.87299490 -0.48016492
