14
opt_min/./Reactant_9392_0_opt.xyz
  C -1.38296300  1.07402300 -0.79308400
  N -0.51025315  0.15776811 -0.07684850
  C -1.04509819 -0.67251715  0.86719379
  O -0.46430328 -1.46691720  1.55454709
  H -2.13994841 -0.53071441  0.94441716
  C  0.85104994  0.24055473 -0.41991933
  O  1.19714265  1.03865525 -1.25408017
  C  1.79056708 -0.67724616  0.29400402
  H  1.74780317 -0.51145443  1.36783679
  H  2.79613461 -0.48932660 -0.07515743
  H  1.51524132 -1.71479309  0.11881533
  H -1.25781558  2.09057235 -0.41728324
  H -1.11448542  1.06938138 -1.84922358
  H -2.41845455  0.76484026 -0.67560205
