13
opt_min/./Product_3188_0_opt.xyz
  C  1.92602100  0.43047000  0.19122100
  O  1.40531315 -0.73915172  0.37308619
  C  0.23596826 -1.17484173  0.04985109
  C -0.79746909 -0.38579001 -0.69189996
  C -1.59343122  0.56482424  0.21985687
  H -1.85838850  0.06933012  1.15047006
  H -1.02022286  1.45566100  0.46139468
  H -2.51364804  0.87943774 -0.26728779
  H -1.48525980 -1.07481145 -1.17943003
  H -0.30532289  0.20409820 -1.47303884
  H  0.03666373 -2.19358907  0.33354432
  H  1.42788804  1.23328417 -0.32494842
  H  2.93995226  0.55161240  0.51845624
