17
opt_min/./Product_7111_0_opt.xyz
  C  2.91883600 -0.58725200 -0.51175400
  C  1.74535040  0.01730836 -0.57430453
  O  0.64315049 -0.45654822  0.05888809
  C -0.46703907  0.41696910  0.14032462
  O -1.60104183 -0.31905156  0.44651627
  C -1.96581614 -1.25794606 -0.54544541
  H -2.16184317 -0.75581004 -1.50017662
  H -2.87410744 -1.73636936 -0.18225116
  H -1.18254418 -2.00853510 -0.68429304
  C -0.27566051  1.45598361  1.24028163
  H -1.20155033  2.01270639  1.35963144
  H -0.04986549  0.94609492  2.17439185
  H  0.53579789  2.13712074  0.99390746
  H -0.58817189  0.91806073 -0.84656504
  H  1.59567888  0.92122184 -1.16000574
  H  3.05300276 -1.47794391  0.07440189
  H  3.76224191 -0.20355845 -1.05405066
