8
opt_min/./Product_1016_0_opt.xyz
  N  0.77291901  0.65643199 -0.88354900
  C  1.50171707  1.42105238 -1.37232674
  C -0.08390637 -0.25378327 -0.30330141
  H -0.14267240 -1.19745771 -0.83779469
  C -0.31721458 -0.22846497  1.14921855
  H -0.54700175 -1.14846352  1.66914070
  H  0.15965183  0.55604013  1.72123168
  O -1.27810684  0.21520408  0.23253212
