12
opt_min/./Product_5358_0_opt.xyz
  O  1.91151900 -0.83325800  0.14242700
  C  0.73858773 -0.34695659  0.69867463
  H  0.97058492 -0.20825101  1.75917352
  C  0.19270365  0.92013851 -0.00385129
  H  0.90306037  1.25245457 -0.76611651
  H  0.05932062  1.74302968  0.69808606
  C -1.10123317  0.42564277 -0.58887209
  H -1.73910870  1.01298673 -1.21379734
  C -1.28231948 -0.82457346 -0.19254777
  H -2.08218893 -1.51824724 -0.38610394
  O -0.30138264 -1.32871889  0.60553669
  H  1.74800249 -1.06430509 -0.78196874
