13
opt_min/./Product_465_0_opt.xyz
  O -0.92110000  1.74446700  0.06619300
  C -1.23005122  0.46818719  0.43433661
  H -1.99305976  0.45421174  1.20506163
  C -1.17969549 -0.66026690 -0.55349290
  H -1.90373321 -1.45713090 -0.49358177
  H -0.84866687 -0.41603082 -1.55197171
  C -0.12793517 -0.57685210  0.52747908
  N  1.19566774 -0.16908217  0.18546963
  C  1.40267660  0.76371428 -0.68982608
  H  2.47623944  0.99456134 -0.78061157
  H  1.91770360 -0.65472643  0.73238364
  H -0.16507144 -1.29783124  1.33457938
  H -0.06237722  1.67379396 -0.46904047
