14
opt_min/./Product_8275_0_opt.xyz
  C -2.69076300  0.22878400  0.20970200
  C -1.44539572 -0.53101629  0.03570211
  C -0.23027856  0.23703880  0.30446696
  N  0.97420497 -0.53885759  0.09277938
  C  2.19815348 -0.01711514  0.28059994
  O  2.43411330  1.11364602  0.62841997
  O  3.16669447 -0.93530470  0.02105706
  H  4.03046325 -0.52143757  0.16226578
  H  0.86650331 -1.49529202 -0.20431217
  H -0.25913097  0.58359527  1.35174057
  H -0.17003939  1.15803510 -0.29342574
  H -3.34593101  0.05205209 -0.64058353
  H -2.59763932  1.30430033  0.40896292
  H -3.18343943 -0.24367761  1.06418921
