11
opt_min/./Product_6345_0_opt.xyz
  O  2.16453200  1.35678300  0.29580900
  C  1.17139491  0.68692666  0.17737143
  C -0.25375479  1.22461136 -0.09868105
  O -0.57511118  2.37485807 -0.18282075
  C -1.15711641  0.00879607 -0.22054410
  H -1.59086146 -0.03614054 -1.22211589
  H -1.98800949  0.05393986  0.48452528
  C -0.23745570 -1.14019542  0.03625627
  H -0.59870590 -2.15527169  0.04700708
  C  1.02855537 -0.77207916  0.24030303
  H  1.85769245 -1.42685870  0.43560601
