8
opt_min/./Product_11794_1_opt.xyz
  C  1.56996900 -0.10610800 -0.12637898
  N  2.55387345 -0.67109089 -0.27579409
  C  0.32332492  0.63249769  0.06705171
  O  0.31520273  1.82038049  0.25716337
  C -0.89419548 -0.24928602  0.00256478
  H -0.69336001 -1.18527454 -0.50900237
  H -1.20655112 -0.47072355  1.02271929
  H -1.70309923  0.29124800 -0.48219847
