17
opt_min/./Product_9567_0_opt.xyz
  C -1.55207000 -0.36741100 -0.28848600
  H -2.01486280 -1.27578701  0.06480256
  H -1.73569240 -0.15363596 -1.32804208
  C -1.43536088  0.78449500  0.66446382
  H -1.51118877  1.78495532  0.26601778
  H -1.80547221  0.69526489  1.67412099
  C -0.22172627 -0.00821491  0.30194763
  C  0.62039646 -0.95526609  1.12801009
  H  0.20196211 -1.93161056  1.35329402
  H  0.95341226 -0.49403028  2.05888778
  C  1.67451824 -0.85202187  0.02630894
  H  1.58073401 -1.65182822 -0.70471128
  H  2.71499407 -0.73777660  0.31379935
  C  1.00644772  0.44383117 -0.53592501
  C  0.77501201  0.43272900 -1.95976448
  H  1.02304809  1.40293814 -2.42309635
  H  1.44541227  1.33805960 -0.06400101
