17
opt_min/./Product_422_0_opt.xyz
  C -1.20607900 -1.33601700  0.11723900
  C -0.60608313 -0.07899737 -0.50437690
  N  0.83025402 -0.29262156 -0.61650845
  C  1.69875639 -0.21327665  0.52735401
  H  2.44459684 -0.99171182  0.59976450
  H  1.30521524  0.11230063  1.48255785
  C  1.78687334  0.78010525 -0.56446229
  H  1.45113628  1.79425872 -0.37676097
  H  2.57432027  0.70901778 -1.30227373
  C -1.04952327  1.16813683  0.27529330
  H -2.12079843  1.12678272  0.43965762
  H -0.80305602  2.07632198 -0.26760989
  H -0.56212797  1.20873976  1.24848166
  H -0.95051883  0.02421096 -1.53859319
  H -2.27713012 -1.37421875 -0.06136120
  H -1.01651201 -1.36604692  1.18583105
  H -0.75133440 -2.21106035 -0.34065538
