15
opt_min/./Product_7213_0_opt.xyz
  O  2.55131400 -0.64441700  0.21580600
  C  1.87773048  0.54983432  0.18985233
  C  0.60323348  0.65138051 -0.15609663
  C -0.25715981 -0.51350014 -0.52738083
  C -1.47176638 -0.65852133  0.41658471
  C -2.39165292  0.51285646  0.22883699
  O -2.31738261  1.55738637  0.81252771
  H -3.17042583  0.34385602 -0.54436590
  H -1.11245742 -0.67630510  1.44743881
  H -1.99256560 -1.58648636  0.18603427
  H -0.62350158 -0.39469307 -1.55125107
  H  0.34234490 -1.42157949 -0.46801301
  H  0.14091242  1.62521863 -0.14685657
  H  2.45136815  1.42924275  0.45566298
  H  3.45899762 -0.49346231  0.49769542
