12
opt_min/./Product_11173_0_opt.xyz
  N  2.28320100  0.21631600  0.19784700
  C  1.01212445 -0.12253484 -0.03043873
  N  0.66568305 -1.12053098 -0.84496589
  C -0.65687312 -1.26364353 -0.87999532
  C -1.24205669 -0.15722241  0.01970281
  O -2.07349435 -0.57142912  1.04129647
  H -2.66773811  0.13682592  1.31084390
  H -1.74882910  0.53043674 -0.67983775
  N -0.02655075  0.52003794  0.51617132
  H  0.01869043  1.26077135  1.19419448
  H  2.53845539  1.00706506  0.76202572
  H  2.99884396 -0.27037209 -0.31205912
