12
opt_min/./Product_7800_1_opt.xyz
  C -1.14512300 -0.80845700  0.19294700
  C -0.17891561  0.32317413  0.05827209
  C  1.20309446 -0.02539796 -0.25092373
  N  1.53698705 -1.22791016 -0.43308273
  H  2.51792026 -1.37872394 -0.64700660
  H  1.90118333  0.82533273 -0.31537230
  C -0.52322427  1.60227310  0.21843728
  H -1.53719453  1.88818450  0.44225913
  H  0.18812985  2.40573624  0.13030714
  H -0.97022307 -1.32835069  1.13132728
  H -2.17156442 -0.45746662  0.16993394
  H -0.98725561 -1.52581456 -0.60453757
