13
opt_min/./Reactant_4575_0_opt.xyz
  C -1.29899800 -1.00226200 -0.32711000
  C -0.49614102  0.26509661 -0.47879222
  H -0.61487924  0.76070661 -1.43897453
  C -0.21014735  1.12917067  0.71503595
  H -0.14374425  2.20444131  0.58975836
  H -0.56009218  0.81400233  1.69117034
  N  0.79388107  0.34102844  0.10429615
  C  2.05675251 -0.07065677  0.06243906
  O  2.51748423 -0.84656172 -0.73569447
  H  2.65415369  0.39511416  0.87525089
  H -1.10687128 -1.67435099 -1.15922661
  H -2.36193316 -0.77060216 -0.30599433
  H -1.03030088 -1.50893195  0.59660284
