13
opt_min/./Product_8769_0_opt.xyz
  O  1.82108400 -0.84693400  1.22923000
  C  0.96706444 -0.04958881  0.95852248
  C  0.49296901  0.17679228 -0.45644709
  O  1.14456467 -0.69316361 -1.32902464
  H  1.74719782 -1.23023387 -0.78367861
  C -1.02146025  0.01729794 -0.56491469
  H -1.29950830 -0.14810791 -1.60359234
  C -1.76699015 -0.73230491  0.47460417
  C -2.03772255  0.71579559  0.27299726
  H -2.95251922  1.04128310 -0.20663498
  H -1.75451066  1.36909340  1.09376514
  H  0.74721153  1.22660451 -0.71352219
  H  0.47493544  0.58054576  1.71362138
