11
opt_min/./Product_3419_0_opt.xyz
  C  1.98877500  0.05429100  0.13558500
  C  0.68275270  0.23747537 -0.01366859
  O  0.13188271  1.42474093 -0.38751422
  O -1.28487978  1.26058948 -0.46101042
  C -1.59712519 -0.06198375 -0.10310002
  H -2.12753334 -0.55146415 -0.93970809
  H -2.25821502 -0.06030752  0.78343697
  N -0.33150833 -0.67172423  0.16803047
  H -0.18844818 -1.61722632  0.44688662
  H  2.66657689  0.86424428 -0.04197023
  H  2.37955354 -0.89582192  0.43300808
