14
opt_min/./Product_7290_0_opt.xyz
  O  2.95706700 -0.28846100 -0.03747400
  O  2.00104436  0.17043534 -0.98832898
  C  0.74323596  0.19083837 -0.46441129
  C -0.16462237  1.14914762 -0.63315451
  H -0.04200592  2.06356764 -1.18131267
  C -1.43943404  0.70926421  0.03981829
  H -1.49957765  1.18857906  1.02841761
  H -2.35555964  0.93626535 -0.50681841
  N -1.28461712 -0.73134726  0.27339297
  H -1.59598125 -1.20897896 -0.56679641
  C  0.16283712 -0.93212829  0.36681406
  H  0.44636072 -0.78988522  1.41737033
  H  0.46914318 -1.92821347  0.05003909
  H  3.48566005  0.49783888  0.16910167
