13
opt_min/./Product_10206_0_opt.xyz
  C -1.90696100  0.15099500 -0.38540700
  C -0.50750563 -0.20826944 -0.02286135
  O  0.54617245 -0.09914166 -0.97829706
  C  1.50088314  0.17422230  0.05820912
  O  2.54071030 -0.70483240  0.16119824
  H  2.92484997 -0.85462652 -0.71206452
  H  1.83086935  1.22118997 -0.06097790
  C  0.39163435  0.02534050  1.11204797
  H  0.28440120  0.51011066  2.06248853
  O -0.19451538 -1.22884146  0.86270719
  H -2.29012018  0.92722441  0.27499509
  H -2.54001607 -0.73083771 -0.30361385
  H -1.91351881  0.50832912 -1.41175610
