15
opt_min/./Product_9017_0_opt.xyz
  C  1.99379600 -0.29120400 -0.06082200
  C  0.49958279 -0.14242372 -0.11344801
  O -0.02477582  0.87987444 -1.01109636
  C -1.20157842  0.82177400 -0.20617076
  H -1.86928950  1.67001997 -0.31898995
  C -1.68731315 -0.61516924 -0.48064314
  H -1.97617868 -0.78318540 -1.52245174
  H -2.51316629 -0.96984636  0.13851578
  C -0.40685314 -1.32581635 -0.18638890
  C -0.32921308  0.54975261  1.02528959
  H -0.73107135 -0.03341989  1.85028655
  H  0.21032422  1.42183823  1.38948012
  H  2.31439421 -1.01676038 -0.80401618
  H  2.45886832  0.66475403 -0.28977678
  H  2.28565070 -0.62558645  0.93033211
