17
opt_min/./Product_11912_0_opt.xyz
  C -1.93628400 -1.14652200  0.18239100
  C -1.20754199 -0.26400357 -0.81022241
  H -1.75807566 -0.10375307 -1.73076015
  C -0.33256903  0.88018297 -0.41562062
  H -0.28797498  1.68282097 -1.14540046
  C  0.54639152  1.15409359  0.78695763
  H  0.26384909  0.55879162  1.65606213
  H  0.55035209  2.20550920  1.06325088
  C  1.92769367  0.65967538  0.25774632
  H  2.44812287  1.45385917 -0.28623424
  H  2.58589465  0.31681664  1.05649097
  C  1.52834622 -0.50157734 -0.64453375
  H  2.21032393 -1.30298798 -0.87618765
  C  0.24032884 -0.47921428 -0.91403522
  H -1.73067808 -2.19739702 -0.00541239
  H -1.62629284 -0.91501777  1.19829000
  H -3.01228136 -0.99098982  0.10596932
