13
opt_min/./Product_9068_0_opt.xyz
  O -1.75959100 -1.89250100  0.23323200
  C -1.02811696 -0.94626885  0.13015596
  C -1.43359777  0.51377579  0.14666222
  H -1.96803192  0.74420042  1.07230662
  H -2.12866818  0.71158987 -0.67409557
  C -0.14523305  1.25963581  0.00938766
  H -0.09798417  2.33181476 -0.00167854
  C  0.89181030  0.43553905 -0.09110421
  O  2.19299872  0.80486141 -0.23151561
  H  2.74946102  0.01772618 -0.25201362
  C  0.48198131 -1.00762052 -0.04121181
  H  0.73350514 -1.54775722 -0.95892724
  H  0.93036648 -1.55401715  0.79369278
