14
opt_min/./Product_9319_0_opt.xyz
  C -1.79414400  0.08595900  0.11285500
  C -0.48473571 -0.34136774 -0.53968842
  C  0.72070471 -0.07828082  0.38599372
  C  1.99038274 -0.59592360 -0.26300672
  O  2.67995534 -1.45699753  0.19624647
  H  2.22352389 -0.12166092 -1.23477310
  C  0.86690950  1.33801061  0.62387113
  N  0.98490426  2.45986025  0.80493213
  H  0.58202040 -0.58354214  1.34890300
  H -0.51542349 -1.40853833 -0.76668682
  H -0.34187790  0.20537783 -1.47376835
  H -2.62319885 -0.11520329 -0.55896642
  H -1.77855631  1.14890913  0.34050805
  H -1.95889862 -0.46084863  1.03823434
