11
opt_min/./Product_2402_0_opt.xyz
  C  1.59664800  0.46069000  0.06915200
  N  0.72609877 -0.19708520  0.99609887
  C -0.29135766 -0.81952833  0.64188296
  O -0.73666733 -1.03923336 -0.66537321
  C -1.66003506 -0.35337487 -1.28642317
  O -2.17866096  0.66085449 -0.67753002
  H -1.87278092  0.88019341  0.22804085
  H -0.90250560 -1.30705044  1.39689063
  H  1.22192085  0.49527256 -0.95959036
  H  2.54895227 -0.06917723  0.08265616
  H  1.77192265  1.46856861  0.44003072
