12
opt_min/./Product_1663_0_opt.xyz
  C -1.00376700  0.52589000 -0.23220400
  H -1.50972269  0.76250629 -1.17300492
  H -1.69056971  0.70856631  0.59852903
  O  0.03168852  1.53383874 -0.06359586
  C  1.20678917  1.31918859  0.35573264
  C  1.58159630 -0.12290127  0.56423637
  H  1.36502330 -0.36406630  1.62310624
  H  2.64647023 -0.27867732  0.38969696
  O  0.90901054 -1.00910828 -0.31478463
  C -0.48436740 -0.92234820 -0.20152484
  H -0.88466835 -1.49283624 -1.04396233
  H -0.80450803 -1.40354030  0.74193049
