11
opt_min/./Product_9938_0_opt.xyz
  C -0.50522900  0.02260000 -0.56998600
  C -1.90876959  0.01319321 -0.01289811
  O -2.34570928  0.83842047  0.73142322
  H -2.52575114 -0.84361232 -0.34673885
  C  0.56053182 -0.05280065  0.50100761
  O  0.38127692 -0.19329799  1.67775525
  C  1.98000389  0.05394282 -0.06668391
  O  2.22838268  0.21564790 -1.22611004
  H  2.76185465 -0.00765073  0.71112626
  H -0.33618805 -0.79442987 -1.27376894
  H -0.34687744  0.96199767 -1.11104850
