13
opt_min/./Reactant_10140_0_opt.xyz
  O -0.40983800  0.43379900  2.63505800
  C -0.25101059  0.54339853  1.45062393
  N  0.88645021  0.94975122  0.82252297
  H  1.74826658  1.07287128  1.33038372
  C  0.88016053  0.71887941 -0.60534258
  H  1.20449962  1.60215403 -1.16252581
  H  1.52900109 -0.12431205 -0.88474290
  C -0.59188598  0.40576487 -0.83053866
  H -1.11270394  0.91726728 -1.62792302
  C -1.10009551 -0.87446082 -0.30617646
  H -2.01960454 -1.29916027 -0.68344763
  H -0.37720702 -1.61194401  0.03223272
  N -1.25035264  0.34800689  0.45749298
