13
opt_min/./Product_5962_0_opt.xyz
  C -1.50951600 -0.81740700  0.23685000
  C -1.23230410  0.63570825  0.31106054
  C -0.08811590  1.32965838 -0.01682677
  O  0.14562400  2.52987500  0.01112366
  N  0.93301882  0.50092793 -0.68723936
  C  1.26851873 -0.73006841 -0.44522702
  H  1.04121893 -1.16684705  0.50977260
  H  1.84903803 -1.29649988 -1.15619363
  H  1.31115825  0.96544169 -1.50814600
  H -2.07460215  1.27205783  0.54172866
  H -1.29258093 -1.32424947  1.18089189
  H -2.55891686 -0.98928055  0.00244240
  H -0.88205983 -1.30540901 -0.52575669
