11
opt_min/./Product_2743_0_opt.xyz
  C -0.95617700  0.62219400  0.47897400
  H -0.50797890  1.60439899  0.51004729
  H -1.73709080  0.45993116  1.21559012
  N -1.03319243  0.01971833 -0.81921375
  H -1.86861455 -0.50285853 -1.04272795
  C -0.10772446 -0.55006601  0.12528608
  C  1.34512269 -0.38294024 -0.18394158
  H  2.01537425 -1.03105230  0.36732908
  C  1.79522785  0.32665729 -1.39423820
  O  1.80964701  0.97312579 -0.29625007
  H -0.36905701 -1.49540678  0.59160222
