16
opt_min/./Product_4283_0_opt.xyz
  C  1.62823900 -0.20968800  0.39197900
  C  0.27746677  0.24474162  0.93133834
  C -0.82657759  0.27520412 -0.13405194
  O -0.40978275  1.16497418 -1.20101741
  C -0.95949454  2.25522931 -1.48859999
  H -1.84102973  2.50028224 -0.84221954
  C -1.11784663 -1.08948598 -0.74159562
  H -1.96637484 -1.02154606 -1.41993236
  H -1.35018953 -1.80434497  0.04304831
  H -0.25755929 -1.44009024 -1.30443772
  H -1.74399457  0.69015697  0.31728685
  H  0.37687025  1.25442012  1.34056275
  H -0.04452712 -0.41386579  1.74109886
  H  1.93108626  0.41902420 -0.44196260
  H  1.58907379 -1.24175908  0.05341947
  H  2.38142732 -0.13728738  1.17229246
