16
opt_min/./Product_10049_0_opt.xyz
  C -2.80578300 -0.41442000 -0.68174500
  C -1.46472556  0.18523047 -1.09684861
  N -1.47700904  1.65138697 -1.16526461
  C -0.39902532 -0.15513582 -0.04698611
  O -0.58727219 -0.21909105  1.13662361
  O  0.79091350 -0.31819127 -0.63316542
  C  1.91184031 -0.54567037  0.21253669
  H  2.77102351 -0.07658509 -0.26194166
  H  2.08020187 -1.61956096  0.31416030
  H  1.73027521 -0.11398819  1.19800166
  H -1.38795525  1.96991723 -2.12058138
  H -2.33338743  2.02520951 -0.77660469
  H -1.12905366 -0.23007081 -2.05079244
  H -3.58551327 -0.12682004 -1.38426900
  H -3.06403532 -0.05896373  0.31216204
  H -2.74347594 -1.49940121 -0.65292091
