13
opt_min/./Product_8828_0_opt.xyz
  C -1.93298100  0.20597100  0.08007400
  C -0.45185304  0.10547116  0.04297172
  C  0.48646048  1.06188588  0.29021467
  H  0.29011730  2.07116987  0.57607858
  C  1.79870377  0.48406853  0.10166352
  O  2.92212761  0.93305512  0.20425225
  N  1.52951044 -0.83303962 -0.25901261
  H  2.21373962 -1.53600789 -0.46724000
  N  0.16973165 -1.05344576 -0.29186194
  H -0.25436247 -1.92885033 -0.53081252
  H -2.31436251  0.55344508 -0.87834382
  H -2.23226602  0.91820759  0.84175877
  H -2.38734110 -0.75663831  0.30222047
