14
opt_min/./Reactant_6921_0_opt.xyz
  N  2.42529100 -0.67612000  0.02757900
  C  1.10364566 -0.22760394  0.03373721
  C -0.05986493 -0.89805067 -0.26253605
  H -0.14449013 -1.91571957 -0.59024097
  C -1.13343604 -0.00868815 -0.01244763
  N -2.50068493 -0.31214399 -0.11475328
  H -2.64573117 -1.17781207 -0.62052846
  H -3.03834181  0.43115475 -0.54151491
  C -0.59029315  1.17614441  0.40850933
  H -1.05647811  2.09641829  0.69172434
  N  0.77853494  1.03197929  0.41694648
  H  1.42629740  1.71655272  0.76415238
  H  3.08577201  0.03261360 -0.26176795
  H  2.52907477 -1.52160839 -0.51224108
