12
opt_min/./Product_179_0_opt.xyz
  C -1.87621222 -0.14477908 -0.45541626
  C  7.44191978  13.07301020 -14.82791521
  O -7.52146897  14.61739705  4.84899718
  C -9.12160234  30.47973347  12.96991636
  C  4.39078110  14.54758482  2.64366083
  O  3.22758126  15.95083069 -0.59400187
  H -7.98003808  19.03447999  3.01795799
  H -5.32374933 -19.72662220 -4.78937442
  H  31.08486743 -3.13433868  19.11236814
  H  4.43939361  13.24973368  31.53445033
  H -6.28628761 -9.10061403  17.25886974
  H  26.46292866  19.82048548 -23.08582480
