14
opt_min/./Product_817_0_opt.xyz
  C  0.10988300  0.45635700  0.45944700
  C  1.12713380 -0.07319245 -0.51555924
  C  2.40416247 -0.25315394 -0.24302876
  H  2.82512075 -0.00845035  0.71868208
  H  3.09094065 -0.64773149 -0.97301743
  H  0.71226927 -0.33083832 -1.48240973
  C -0.92181177 -0.57865141  0.74761599
  C -2.03877141 -0.78499948 -0.03954748
  C -2.12106063 -0.26159957 -1.28663856
  H -1.87540696  0.77693161 -1.48617345
  H -2.64872277 -1.64823113  0.20301698
  H -0.63312768 -1.35638890  1.44304786
  H -0.36336119  1.33792990  0.01514725
  H  0.60702363  0.73538577  1.39166987
