9
opt_min/./Product_4342_0_opt.xyz
  C -1.07309900  0.54018500 -0.04221100
  H -1.72240182  1.41042884 -0.07639279
  N -1.57351490 -0.63541480 -0.03921453
  C -0.77028200 -1.76159888  0.00393237
  N  0.59816958 -1.52345647  0.04292992
  C  1.06108518 -0.33784223  0.03859568
  H  2.13418588 -0.16130885  0.06938126
  N  0.26865333  0.77502638 -0.00384805
  H  0.65294944  1.71179292 -0.00663468
