9
opt_min/./Product_9890_0_opt.xyz
  C -0.61440911 -0.33625692 -0.18798233
  C -0.71368304  1.09472625  0.26739902
  O -1.66082218  1.80554819  0.08807923
  H  0.18165761  1.45401543  0.80497671
  C  0.70396172 -0.61728891 -0.72151493
  C  1.79866539 -0.79689764 -1.16857587
  H  2.74872948 -0.98283377 -1.56831152
  H -0.77299081 -0.98206941  0.68548004
  H -1.39218654 -0.55927801 -0.92212999
