9
opt_min/./Reactant_738_0_opt.xyz
  O -1.60982812  1.13921310  0.73511563
  C -0.99390624  0.57875948 -0.12241567
  C -0.19480441 -0.68838230  0.06723405
  C  1.20626130 -0.31286564 -0.00130508
  C  2.35405745  0.01649540 -0.06699722
  H  3.36202553  0.29782800 -0.11835469
  H -0.40848666 -1.12966734  1.04430536
  H -0.41653135 -1.40322646 -0.72951335
  H -0.93221122  0.98732608 -1.15339405
