17
opt_min/./Reactant_7733_0_opt.xyz
  C  2.23248800 -0.15982900 -0.60556600
  C  0.75872797 -0.29440676 -0.46228392
  C  0.03841623 -1.39497190 -0.29797390
  H  0.41673578 -2.39991896 -0.25705432
  C -1.43456840 -1.12246568 -0.19034234
  H -1.95813442 -1.44320868 -1.09292460
  H -1.87206734 -1.65332740  0.65630135
  C -1.49394941  0.40480613 -0.01804006
  H -1.58710597  0.64751669  1.04075129
  H -2.33167984  0.85381552 -0.54731619
  C -0.13486229  0.92867097 -0.52106771
  O  0.39927509  1.98660791  0.24878365
  H -0.30695007  2.60322915  0.45745456
  H -0.21429625  1.26123977 -1.57393411
  H  2.70747779 -1.13310375 -0.56307413
  H  2.61415666  0.47030889  0.19402377
  H  2.47011488  0.32185163 -1.55140986
