10
opt_min/./Product_3202_0_opt.xyz
  O -0.85746400  1.45676700  0.23537700
  C -0.50528076  0.45647781 -0.69119810
  H -0.73573206  0.55448031 -1.73354222
  C -1.30064086  0.18079099  0.50314619
  H -2.33598643 -0.05215084  0.68068072
  O -0.28594226 -0.57743245  1.12892272
  C  0.59826860 -0.36756435  0.03194581
  O  1.74238606  0.28307248  0.42418281
  H  2.34636855  0.37544695 -0.32095462
  H  0.81239148 -1.32821447 -0.46187246
