12
opt_min/./Product_4270_0_opt.xyz
  C  0.36321782 -2.03523070  0.43200735
  C -0.58167223 -0.90605431  0.73963548
  C -0.62478902  0.21326638  0.09026621
  C -0.63594941  1.33950783 -0.57124502
  C  0.12588377  2.46406395 -0.18071890
  C  0.76402225  3.42688684  0.14624537
  H  1.32599928  4.26363149  0.43651753
  H -1.26347254  1.46614963 -1.44674205
  H -1.28331707 -1.07584393  1.54821891
  H  0.39558341 -2.74299215  1.25540006
  H  0.03595345 -2.56122938 -0.46541833
  H  1.36674382 -1.65486395  0.24805294
