18
opt_min/./Reactant_8117_0_opt.xyz
  C  2.87111500  0.05131400 -0.13893100
  N  1.48742916 -0.35227916 -0.24207673
  C  0.47319443  0.53522078 -0.14748906
  O  0.65800681  1.71811942  0.03938125
  C -0.91120099 -0.10501343 -0.29125176
  C -1.98931244  0.97730799 -0.43304686
  H -2.62492940  1.02058074  0.44628509
  H -2.61928813  0.80253930 -1.29734747
  H -1.51387412  1.94654232 -0.54824798
  C -1.20001700 -1.02496618  0.90240281
  H -2.14140366 -1.54249032  0.74906569
  H -0.42083440 -1.76707191  1.03722299
  H -1.27700117 -0.43886857  1.81231465
  H -0.89171732 -0.72005695 -1.19582991
  H  1.29879653 -1.31589444 -0.44994741
  H  3.44386842 -0.72058678  0.36871816
  H  2.90300820  0.97576943  0.43009169
  H  3.31097362  0.22972392 -1.12311929
