10
opt_min/./Product_1892_0_opt.xyz
  C -1.05061400 -0.61887600 -0.55048400
  C -0.06661216 -0.50558941  0.58884434
  H -0.27915404 -1.10404349  1.46838444
  C  0.81925064  0.61330160  0.72169460
  N  1.02711679  1.79209260  1.02125918
  H  1.97606618  2.12225923  0.86990162
  O  1.35061746 -0.51137658  0.23960214
  H -2.03932791 -0.81601063 -0.14753008
  H -1.07713998  0.29795076 -1.12935967
  H -0.77242075 -1.44496723 -1.19929713
