13
opt_min/./Product_11627_0_opt.xyz
  C  2.14226300  0.25248200  0.78236000
  O  1.06730882 -0.66611080  0.66971686
  C -0.01151201 -0.21405566  0.05738230
  N -0.17223044  0.95988244 -0.43906517
  N -1.47520442  0.93897041 -0.96762136
  H -1.78841726  1.79541732 -1.40458336
  C -2.17434224 -0.15539585 -0.86496513
  C -1.23091422 -1.08358591 -0.13241270
  H -1.65456780 -1.42131912  0.81280190
  H -1.01406757 -1.97152823 -0.72687178
  H  2.93156286 -0.27102184  1.31845984
  H  1.82552242  1.14092163  1.33319814
  H  2.48724082  0.56165292 -0.20628358
