11
opt_min/./Product_4216_0_opt.xyz
  O  1.89085500 -0.04240400  0.82800600
  C  0.83612927 -0.21409084 -0.07553996
  H  1.31936618 -0.34878545 -1.05896277
  C -0.04212718 -1.45416943  0.06113210
  N -1.25443031 -0.98420183 -0.13998617
  H -2.07986343 -1.56838042 -0.15150227
  C -1.35450334  0.41303514 -0.31424267
  H -2.31783726  0.86328427 -0.46543021
  C -0.13894505  0.93805228 -0.22572715
  H  0.16567633  1.96293768 -0.29433939
  H  1.56905554 -0.23115201  1.71613177
