13
opt_min/./Product_10379_0_opt.xyz
  N  2.40814710 -0.89544486  1.01779989
  C  1.51355460 -0.70747452  0.32796832
  C  0.39735243 -0.45218246 -0.52675720
  H  0.58300305 -0.85715048 -1.52455141
  C -1.00668438 -0.74703021  0.00912241
  H -1.04385464 -1.05110583  1.05311803
  H -1.56444643 -1.45227477 -0.60147084
  C -1.36066621  0.75368324 -0.20654941
  H -2.19916661  1.01635528 -0.83556778
  C -0.55333768  1.72816491  0.51457528
  H -0.12871703  1.39024481  1.46260199
  N  0.02563008  1.05182161 -0.62663059
  H  0.31152788  1.58714893 -1.43596406
