15
opt_min/./Product_3660_0_opt.xyz
  C  1.91280000 -0.24070400  0.29864600
  C  0.82021494  0.26701025 -0.65843144
  C -0.51078620  0.40505193  0.03138583
  N -1.18314210 -0.78813769  0.44730237
  O -1.30017095 -1.70966531 -0.65205312
  H -2.24888607 -1.78354270 -0.81665422
  H -0.63514056 -1.29448846  1.14605232
  C -1.11204325  1.55952745  0.26720712
  H -2.06757203  1.59717327  0.76068304
  H -0.66073129  2.49746156 -0.00296760
  H  1.10442019  1.23062933 -1.07855082
  H  0.68615312 -0.43860255 -1.48326815
  H  2.72311287  0.48018850  0.37246664
  H  2.32665605 -1.18839152 -0.04217241
  H  1.51644241 -0.39035200  1.30293819
