15
opt_min/./Reactant_3660_0_opt.xyz
  C -1.34979000 -1.09238200 -0.06397900
  C -0.64513440  0.08781987 -0.73483697
  C  0.58794193  0.51015486  0.01286143
  N  0.81833930  1.67387711  0.45618574
  O -0.15598428  2.65829146  0.22795956
  H  0.27436162  3.47563819  0.51938509
  C  1.63063343 -0.52410493  0.28736552
  H  1.73764371 -1.19142583 -0.56383431
  H  2.57919729 -0.04954284  0.52262989
  H  1.32802745 -1.12026744  1.14993266
  H -0.35473591 -0.18658743 -1.75398200
  H -1.32563322  0.93939140 -0.79426987
  H -0.78047722 -2.01191190 -0.18571635
  H -2.33067017 -1.24119868 -0.51202999
  H -1.48455563 -0.90121280  0.99857171
