15
opt_min/./Reactant_4848_0_opt.xyz
  C  1.67418300  0.36321900  0.19817400
  C  0.65159730 -0.30599302 -0.71266493
  C -0.68326030 -0.58457197 -0.01314117
  C -1.36861009  0.70042026  0.44845378
  H -1.43487087  1.41081565 -0.37603896
  H -2.38004599  0.49002704  0.80362691
  H -0.80660011  1.14747718  1.26560847
  O -1.48276213 -1.29564262 -0.93979075
  H -2.37543841 -1.37776144 -0.58498860
  H -0.50131133 -1.22181587  0.87007273
  H  1.04107401 -1.25937122 -1.07289869
  H  0.45326297  0.32498416 -1.58261770
  H  1.73465594 -0.15820481  1.15370450
  H  2.65978483  0.34814651 -0.26942270
  H  1.41270604  1.40320322  0.38585993
