13
opt_min/./Product_3785_0_opt.xyz
  C -1.76969897 -0.40558713 -0.71621700
  N -0.57845517  0.31353209 -0.30616273
  H -0.76349332  0.95752741  0.46573497
  C  0.48545318  0.57139369 -1.32025843
  H  0.95488469  1.54146164 -1.07561817
  C  0.70900164 -0.40561630 -0.20762062
  C  1.46167367 -0.10388356  0.97307776
  C  2.13212093  0.19545587  1.92224450
  H  2.72725016  0.47337810  2.74057711
  H  0.64882945 -1.46988156 -0.42319432
  H -1.50056963 -1.06263012 -1.54124198
  H -2.52379109  0.30020962 -1.06714227
  H -2.18134215 -0.99291157  0.10813442
