10
opt_min/./Product_9750_1_opt.xyz
  O -2.50321700 -0.03330700 -0.21815400
  C -1.35439697  0.21451709 -0.01447087
  C -0.25226415 -0.82295937  0.11995497
  H -0.34527333 -1.36459532  1.06753031
  H -0.41614780 -1.56052021 -0.67540525
  C  1.08661867 -0.19837815 -0.12391851
  H  1.94214007 -0.82526145 -0.34579366
  N  1.23289323  1.07158990 -0.08581905
  C  0.28271936  1.79244098  0.49977501
  O -0.98194365  1.51241699  0.24274189
