10
opt_min/./Product_4301_0_opt.xyz
  O  2.70262697 -0.62507784 -0.27908057
  C  14.07669350 -2.38609032  32.93126060
  N  6.48612697  7.76922305 -12.46617627
  C -13.89396171  11.98329318 -16.64851050
  C -18.87072403  14.78419696  36.68500697
  N -33.62395453  18.97873621  15.87706995
  H  0.59265091 -22.46128563 -23.87486231
  H  17.38038877 -39.02713722 -24.35566182
  H  21.67879774 -22.41462483  17.08052933
  H -1.36421225  6.27229955 -2.09995572
