15
opt_min/./Product_3097_0_opt.xyz
  C  0.30264400 -1.57390100 -0.05007500
  C -0.05293941 -0.14499276  0.34791031
  N  0.96998061  0.79081984 -0.10965232
  C  2.21965625  0.47424302 -0.16377111
  H  2.81142223  1.34936079 -0.49751349
  H  0.56702399  1.72253488 -0.28007843
  C -1.39753596  0.29406747 -0.24046587
  O -1.77430976  1.58713118  0.17696241
  H -1.55200219  1.69322315  1.10954332
  H -2.17829178 -0.43222468  0.02630543
  H -1.32551823  0.33824671 -1.33102216
  H -0.11461214 -0.07761749  1.44643997
  H -0.57959628 -2.20788461 -0.02077786
  H  0.71472648 -1.58100562 -1.05522693
  H  1.05444070 -1.97505358  0.62131127
