11
opt_min/./Product_1761_0_opt.xyz
  N -1.90998500  0.87651700 -0.05528100
  C -0.98912392 -0.08912956  0.04062126
  C -0.56178859 -1.31688492 -0.03328629
  H -0.69770666 -2.34931547 -0.22510419
  C  0.45891082 -0.28451257  0.41932176
  N  1.41541251  0.10404284 -0.52088423
  N  2.52808649  0.44658589 -0.05518127
  H  3.13823658  0.72090810 -0.84126173
  H  0.78178511 -0.22590616  1.46525777
  H -2.85278080  0.63698715 -0.31292389
  H -1.69920577  1.81767297  0.22386103
