12
opt_min/./Reactant_2500_0_opt.xyz
  C -1.36235700  0.09073000 -0.00866000
  H -2.44071245  0.17691904 -0.01551708
  C -0.75959191 -1.15481330 -0.00488084
  H -1.36527193 -2.04785974 -0.00877300
  C  0.62453181 -1.24726407  0.00392039
  H  1.08494470 -2.22460019  0.00680545
  C  1.40204600 -0.10546978  0.00891723
  H  2.48108525 -0.17220540  0.01577842
  C  0.79582016  1.13929326  0.00511638
  H  1.39286042  2.03920849  0.00895470
  C -0.58715953  1.23686612 -0.00367713
  H -1.05579576  2.20996118 -0.00661500
