7
opt_min/./Product_10828_1_opt.xyz
  C -0.86027700 -0.28799900 -0.04562900
  C  0.37907909 -0.22783321 -0.49532642
  O  1.35724224  0.59893882 -0.06194463
  H  1.00433043  1.16571371  0.63819736
  H  0.74402666 -0.86981071 -1.28784769
  H -1.21070343  0.36005061  0.74258265
  H -1.56842933 -0.98096100 -0.45436286
