10
opt_min/./Product_9999_0_opt.xyz
  C  1.55632000  0.02287700 -0.12325600
  C  2.53299486  0.87546557 -0.08763966
  C  0.12344728  0.04176153 -0.05673626
  C -0.78340880  1.08072091  0.10885005
  H -0.59868568  2.12794148  0.22280124
  N -2.01571352  0.55813128  0.10514330
  N -1.95211597 -0.70941630 -0.04703317
  N -0.67270609 -1.05758699 -0.14763653
  H -0.39926241 -2.02030502 -0.27440427
  H  2.01607448 -0.96418749 -0.24486492
