16
opt_min/./Product_8579_0_opt.xyz
  C -2.35677600  0.64967200  0.27400700
  C -0.96848956  0.16229843  0.04440899
  C  0.24765130  0.65183197  0.33783897
  H  0.44260049  1.58084593  0.84087070
  C  1.27535353 -0.25232626 -0.12409892
  C  2.72708729  0.03921653  0.08736000
  H  2.93221968  1.10023259 -0.04933189
  H  3.32742652 -0.53441923 -0.61393704
  H  3.03269840 -0.23649234  1.09860266
  C  0.77367793 -1.36706660 -0.73510913
  N -0.74832181 -1.11688239 -0.64326445
  H -1.18054008 -1.90597041 -0.16142213
  H -1.10607383 -1.10682564 -1.59968040
  H -3.08651424 -0.04585017 -0.13776377
  H -2.50852055  1.61962586 -0.20025044
  H -2.56177375  0.76376880  1.33846016
