13
opt_min/./Product_7513_1_opt.xyz
  O  2.14735900 -0.18188300  1.10694100
  C  0.78567725 -0.34795760  0.79518189
  C  0.42243048  0.45057587 -0.46176839
  C -1.01901097  0.53593605 -0.88605346
  O -1.37216849  1.23143861 -1.80692348
  C -2.08789842 -0.28127304 -0.16074312
  O -1.90820932 -1.05044413  0.73796199
  H -3.09190579 -0.08389014 -0.58091130
  H  0.97362775  0.05185924 -1.32245016
  H  0.77684131  1.47940773 -0.33138438
  H  0.53540428 -1.40714171  0.66780084
  H  0.24426964  0.03407684  1.66280425
  H  2.68806223 -0.58602597  0.41804010
