10
opt_min/./Product_546_0_opt.xyz
  C -0.62792700  0.28540500  0.84378400
  H -1.66270026  0.49296587  1.04158286
  H  0.03171256  0.34311605  1.69471426
  C -0.30631757 -0.74841163 -0.20485728
  H -1.05850780 -1.36607661 -0.65632072
  O  0.99374092 -1.27864042 -0.11828223
  C  1.89333741 -0.33916682 -0.26274878
  O  1.33909322  0.81116494 -0.52346423
  C -0.06011372  0.71923371 -0.47872964
  H -0.59760787  1.33365661 -1.18037008
