12
opt_min/./Product_4055_0_opt.xyz
  C -1.50464503 -0.41963602  0.54786990
  C -0.22504265  0.07604903  0.04727021
  C  0.31373582  1.40945351 -0.36255049
  H -0.15167431  1.90144050 -1.21559144
  H  0.42070143  2.12335565  0.45632159
  O  1.56349857  0.79873938 -0.67262907
  C  1.01194770 -0.46105928 -0.24758323
  C  1.47657044 -1.75253376 -0.15511017
  H  2.52562070 -1.85854450 -0.45152389
  H -1.77906902  0.08694554  1.47335917
  H -1.43993240 -1.48837718  0.72849694
  H -2.29905200 -0.22496663 -0.17347441
