7
opt_min/./Product_4242_1_opt.xyz
  O -0.25795900  1.67629000 -0.67900900
  C  0.06577849  0.57489445 -0.32317437
  C -0.96704503 -0.50254473  0.04361445
  O -0.69290743 -1.61024498  0.39063590
  H -2.00516040 -0.12273504 -0.03645115
  C  1.44435639  0.12948497 -0.23340901
  N  2.53594657 -0.20483832 -0.16197165
