15
opt_min/./Product_3958_0_opt.xyz
  C -1.63519900  0.95782100  0.07107500
  C -1.06583744 -0.30815649 -0.55275594
  C -0.00078989 -0.95848019  0.33657959
  N  1.10157450 -0.06117856  0.53919630
  C  2.19552256 -0.27652879 -0.03463094
  O  3.25095420  0.52249341  0.11399905
  H  2.98530834  1.25546304  0.69360480
  H  2.42968781 -1.14706677 -0.66449914
  H -0.43166779 -1.16882013  1.31892420
  H  0.32585822 -1.90604068 -0.12097661
  H -0.61415011 -0.07058872 -1.51885115
  H -1.86299989 -1.03411472 -0.72071180
  H -0.83853171  1.67257670  0.25597162
  H -2.36715272  1.41064795 -0.59330225
  H -2.11816102  0.73365968  1.01885692
