9
opt_min/./Product_1712_0_opt.xyz
  O -1.46646897 -0.66285520 -1.66468393
  C -1.26212729  0.04192958 -0.46258136
  C  0.14143252  0.24479510 -0.15161335
  C  1.32025935  0.38170773  0.06181816
  N  2.58426326  0.52533950  0.30367917
  C  3.72823780  0.65430897  0.52424945
  H -1.75839246  1.00928702 -0.59903569
  H -1.73184755 -0.47559434  0.39195428
  H -0.99811574 -1.50468467 -1.62187233
