11
opt_min/./Product_7093_1_opt.xyz
  C -1.00800900  1.11747200 -0.92408200
  C -1.27683511  0.36237779  0.35295828
  C -0.00020389 -0.50251878  0.49309558
  C  0.80863847 -0.06220130 -0.70057827
  O  0.16247605  0.81896397 -1.40350577
  H  1.75847624 -0.41886350 -1.03455207
  H  0.52864978 -0.31669535  1.43182024
  H -0.22158904 -1.57303520  0.45354524
  H -1.40659498  1.04720560  1.19686577
  H -2.18404997 -0.24234758  0.28378555
  H -1.59250599  1.88380637 -1.38503603
