16
opt_min/./Product_3953_0_opt.xyz
  C  2.06961900 -0.51070500 -0.09955000
  C  0.88707191  0.18569080  0.53154106
  C  1.03018648  0.65607308  1.73696792
  C -0.38238446  0.35125747 -0.26944754
  C -0.99684426 -1.00160665 -0.63268048
  H -1.91744445 -0.83711984 -1.18419710
  H -0.32613928 -1.59147411 -1.24778945
  H -1.23361394 -1.56021565  0.26771001
  C -1.37960661  1.21484404  0.53556431
  H -1.64147932  2.12396129  0.00253079
  H -2.29474455  0.66972269  0.74196928
  H -0.93715717  1.49805138  1.48839500
  H -0.12403898  0.86461022 -1.20296217
  H  2.91471331 -0.51009562  0.58117310
  H  1.80739266 -1.53558947 -0.34169042
  H  2.35305239  0.01299409 -1.00834729
