10
opt_min/./Product_7771_0_opt.xyz
  O  0.73902900 -1.45920000 -0.25901300
  C  1.44012500 -0.33864466 -0.08643060
  H  2.49547225 -0.60409613 -0.15263682
  N  1.15451458  0.87115161  0.12151143
  C -0.14300654  1.37531625  0.23259571
  H -0.14019272  2.44626246  0.41127223
  N -1.27227210  0.81257031  0.16210522
  C -1.44517744 -0.56010465 -0.06344039
  H -2.49413848 -0.83635816 -0.08771525
  N -0.67912443 -1.53683885 -0.24245301
