15
opt_min/./Product_3665_0_opt.xyz
  C  2.07572400 -0.24432400  0.08112000
  C  0.70270763 -0.82340729 -0.08963046
  C -0.41370695 -0.10763737 -0.25669322
  N -0.38277220  1.27855542 -0.35428535
  O -1.47079533  2.04144219  0.09575300
  H -1.56573599  1.95395939  1.06050727
  H  0.49748908  1.73407808 -0.14665651
  C -1.75868051 -0.73736188 -0.45845668
  H -2.54279994 -0.13438428 -0.00467548
  H -1.77793497 -1.73767504 -0.03371759
  H -1.97181322 -0.80544153 -1.52545088
  H  0.63027808 -1.89766244 -0.12416531
  H  2.10869060  0.46938682  0.90813908
  H  2.40512154  0.27591148 -0.82170336
  H  2.79071982 -1.03503380  0.29268119
