11
opt_min/./Product_9830_0_opt.xyz
  C  1.50030800 -0.87653300 -0.43141300
  O  1.66839646  0.35760538 -0.12096122
  C  0.50879576  0.94621435  0.38943914
  H  0.65100326  1.90878489  0.85194335
  C -0.71531704  0.61912307 -0.46772216
  H -1.44143625  1.33965598 -0.79963380
  O -0.43400780 -0.49143662 -1.27065549
  C  0.06418837 -1.20070846 -0.10057171
  H -0.25092276 -2.23716476 -0.07128124
  C -0.47418102 -0.10081991  0.82870575
  H -0.99611093 -0.16912110  1.76084684
