18
opt_min/./Product_7528_0_opt.xyz
  C  2.03896759  0.70128674 -0.35697354
  C -25.36904069  38.92636239 -17.18664862
  H -0.72396099  18.72171619 -4.15323416
  H -16.73543136  26.15032835 -16.03701569
  H -6.09999599  10.28140239  2.91928054
  N  8.41915385  12.26226542 -8.31605597
  C -11.95562385  41.26088866 -28.74489230
  C -19.25830089 -5.57104578  38.65672775
  C  5.33735099  1.32671155  27.47444633
  H  2.59249725  5.05032682 -0.49562242
  H -4.29947156 -21.39771504 -3.37988908
  H  1.89776387 -24.85123334 -16.27364301
  C -10.80917876  1.38898900  19.19737977
  H -1.09636875 -6.18714536 -4.32987591
  H  1.34369559  4.95196196 -6.34607362
  H -7.37791848 -11.77501655 -12.27361362
  H -28.09425072  33.71576403 -26.75686989
  H  11.40437621  9.09724832 -2.56141672
