12
opt_min/./Product_3208_0_opt.xyz
  C  1.55754000  0.06945600 -0.17488400
  C  0.17673595 -0.13930007  0.43929373
  H  0.29103228 -0.28577150  1.52133069
  C -0.58527151 -1.33955994 -0.08881284
  N -1.71961233 -0.81612343 -0.46625776
  H -2.50109661 -1.30850489 -0.87712045
  N -1.88680527  0.57320810 -0.30706054
  C -0.79744434  0.98237735  0.20274803
  H -0.62818981  2.01785779  0.42813762
  H  2.20500375 -0.76709983  0.06850640
  H  1.99972751  0.99340211  0.19483568
  H  1.47122059  0.14204653 -1.25863468
