9
opt_min/./Product_3445_0_opt.xyz
  C  1.62058729 -0.38701524  0.26894841
  O -11.75237969 -11.00816204  2.81199170
  C  2.92454252  0.10141572 -2.26699409
  H  0.90004184  10.87515560  0.16156935
  C -2.10898641  1.93947617 -5.19100310
  H -2.73078454 -5.03870491 -5.68931391
  C  3.20604450 -4.08101240 -0.68246783
  H  10.28687285  4.64740319  11.88292286
  H  3.54411588 -4.73274475  8.03049450
