9
opt_min/./Product_6317_0_opt.xyz
  O  2.17187200 -0.53137900 -1.08914700
  C  1.34160836 -0.05468195 -0.40382501
  N  0.84789520  0.95978531  0.23224590
  H  0.81520879  1.93783069  0.43463658
  C  0.05448860 -0.26331719  0.41467314
  C -1.22442788 -0.37329725 -0.29660482
  O -1.63139673  0.40603522 -1.11883623
  H -1.79335283 -1.28468277 -0.02000102
  H  0.11256873 -0.76094127  1.37588301
