12
opt_min/./Product_11802_0_opt.xyz
  N  2.22747100  0.81420000  0.35668800
  C  1.12257700  0.36056622 -0.06513965
  C -0.15840472  1.12492111  0.07543806
  H -0.18966338  2.03602698  0.65547902
  O -1.04674205  1.01690419 -1.00521166
  C -1.22526624  0.11039591  0.03668624
  H -2.15556496  0.18353349  0.58911050
  C -0.57109117 -1.25267391 -0.21634084
  H -1.08872971 -1.87504910 -0.94625270
  H -0.52867602 -1.80880575  0.72873227
  C  0.82816605 -0.97593592 -0.60306868
  H  3.00077935  0.15290180  0.28844549
