12
opt_min/./Product_3456_0_opt.xyz
  N  2.38460800 -0.01805200  0.14069500
  C  1.03341520 -0.12080567  0.17990483
  O  0.57463650 -0.40312530  1.42521118
  H -0.38068150 -0.55373043  1.38626103
  N  0.33937790 -0.05247578 -0.87957595
  C -1.03409069 -0.11766994 -0.91891324
  C -1.88600450  0.52098915 -0.11751084
  H -1.55497693  1.15771355  0.68802064
  H -2.94659987  0.47808022 -0.28741985
  H -1.40140639 -0.69809439 -1.75668988
  H  2.79107542  0.36936439 -0.68984419
  H  2.86271998  0.09545576  1.01625577
