15
opt_min/./Product_9609_0_opt.xyz
  O  1.76582200 -1.23219100 -0.20214000
  C  0.85533220 -0.34733728  0.39588250
  H  0.97730159 -0.49717387  1.46879330
  C  1.11724334  1.12608087 -0.02323017
  H  2.03286820  1.21650214 -0.61159586
  H  1.26164523  1.77936704  0.84456476
  C -0.05292690  1.71317010 -0.68493703
  C -1.15988623  0.76651073 -0.47456884
  H -1.72173771  1.23513979  0.34334235
  H -1.84422083  0.70085944 -1.32218246
  C -0.62285536 -0.60592525  0.00122269
  O -1.31588753 -1.14479766  1.09964242
  H -2.22367753 -1.33797646  0.84058254
  H -0.63375203 -1.31884626 -0.84014469
  H  1.63395134 -1.22049750 -1.15770023
