19
opt_min/./Reactant_11139_0_opt.xyz
  C  3.13268500 -0.10041600 -0.63404600
  C  2.01718452 -0.41739388  0.35069760
  O  0.78452758 -0.21267401 -0.29822488
  C -0.33234465 -0.49450231  0.51193705
  C -1.58135074 -0.26068752 -0.30015724
  H -1.73415064 -0.99553359 -1.07927642
  C -1.98964082  1.15102278 -0.62045986
  H -1.37847490  1.94924389 -0.23024532
  H -2.38493517  1.35041006 -1.60486909
  C -2.80229750  0.33546590  0.33264975
  H -3.76826863 -0.02806193  0.01704559
  H -2.75204070  0.58838829  1.38168105
  H -0.29339616 -1.54342029  0.85521080
  H -0.32601734  0.14623710  1.40776208
  H  2.09065443  0.24091132  1.23409311
  H  2.09242729 -1.45660988  0.70719577
  H  2.94237139  0.87558555 -1.07280798
  H  3.14863606 -0.83671685 -1.43262398
  H  4.09417870 -0.09028152 -0.12972097
