9
opt_min/./Product_3731_0_opt.xyz
  C -0.98046800  0.70610800  0.04520100
  H -1.40250646  0.96845810  1.01148574
  H -1.15991914  1.44019413 -0.73497548
  N -0.98254793 -0.67897964 -0.32567678
  H -1.52048672 -1.46141423 -0.61615457
  C  0.21322099 -0.16528074 -0.01887202
  C  1.50765634 -0.33497039  0.11627677
  H  1.97741776 -1.28399813 -0.07153992
  H  2.13755182  0.47874271  0.42354957
