15
opt_min/./Product_11588_0_opt.xyz
  C -2.02650300 -0.01806400  0.18103800
  N -0.74881583  0.30758413 -0.49353932
  H -0.96746888  0.57255892 -1.46044375
  C  0.16480552  1.23112603  0.19092636
  H -0.04070620  2.24797669  0.43161190
  C  1.23699823  0.35750614  0.22320778
  N  2.45266906  0.38574517  0.62106089
  O  3.12852222 -0.87145403  0.39024860
  H  3.98248285 -0.70710784  0.80749939
  C  0.35788570 -0.70616910 -0.44888334
  H  0.66755716 -1.05139814 -1.43474695
  H  0.11540771 -1.55826749  0.18255910
  H -2.22622164  0.74365690  0.93318383
  H -2.85349877 -0.05158668 -0.52541392
  H -1.95253116 -0.98153399  0.68057306
