13
opt_min/./Product_11736_0_opt.xyz
  C -0.52295400  1.71760800 -0.31204500
  C -0.45917161  0.43192922 -0.04770250
  C -1.10593078 -0.83489088 -0.52288273
  H -0.90023464 -1.11122905 -1.56172387
  H -2.18068675 -0.90530066 -0.32543245
  O -0.34207947 -1.60691387  0.40257441
  C  0.34040657 -0.43505623  0.90294590
  C  1.79591323 -0.24577571  0.65848893
  O  2.30514473 -1.25383350 -0.01398857
  H  3.24612017 -1.10363908 -0.20319665
  H  0.12895914 -0.24907852  1.96162833
  H  0.09442589  2.42351421  0.21396598
  H -1.19350738  2.09831807 -1.06341379
