15
opt_min/./Reactant_7683_0_opt.xyz
  C -1.54283300 -0.67912500  0.27042200
  C -0.51513719  0.07928266 -0.54471397
  H -0.80363738  0.13631878 -1.59643303
  C -0.08498344  1.44075648  0.02198585
  H -0.46712118  2.41654734 -0.22225402
  O  0.46880656  1.21536059  1.28525337
  C  1.30432066  0.98863032  0.19146712
  H  2.23125135  1.53453038  0.12468206
  C  0.96640139 -0.38959860 -0.41228117
  O  1.15282484 -1.51731985  0.38118404
  H  2.09519805 -1.66844048  0.51599539
  H  1.44100911 -0.50438233 -1.39788158
  H -1.18931341 -0.76238319  1.29549280
  H -1.67605996 -1.67805973 -0.13467978
  H -2.49372535 -0.15059929  0.26087457
