15
opt_min/./Product_8029_0_opt.xyz
  C  2.21196600  0.51642934  0.20151998
  C  1.69969805 -0.63604640 -0.55237040
  C  0.24527536 -0.79110365 -0.59032765
  N -0.59286559  0.11412813  0.18170540
  C -2.01598326 -0.08354297 -0.03252381
  C -2.77269514  0.81139684  0.81210712
  N -3.34826390  1.50994632  1.50952024
  H -2.25018844  0.14826850 -1.07941727
  H -2.35253281 -1.11923694  0.17183549
  H -0.37486252  0.03487233  1.17101384
  H  0.03463755 -0.62708450 -1.65902033
  H  0.00530155 -1.85582112 -0.41358065
  H  1.52671544  1.36290884  0.30210645
  H  3.18238156  0.83436305 -0.17204720
  H  2.37091549  0.09774607  1.20073990
