13
opt_min/./Product_6299_0_opt.xyz
  C -1.38791400 -0.64743600 -0.18336200
  C -0.61208126  0.39539961  0.61570716
  C  0.60165611  0.85347772 -0.11968028
  N  0.73317323  2.01646203 -0.55265546
  H  1.60496739  2.20701558 -1.04170578
  O  1.60742199 -0.10262016 -0.36021662
  C  1.57998459 -1.21960278  0.31378145
  H  2.43563510 -1.81656119 -0.07671670
  H -0.28052504 -0.05596058  1.55561246
  H -1.22396893  1.27603042  0.81051020
  H -0.76858786 -1.53205784 -0.34553706
  H -1.69699679 -0.24833829 -1.14802110
  H -2.27323080 -0.95531817  0.36952742
