18
opt_min/./Product_7878_0_opt.xyz
  C -1.63952100  0.38347000 -1.05863800
  C -0.67011280 -0.30454005 -0.09102409
  C -1.37279978 -0.74842425  1.19838310
  H -1.85271878 -1.71340867  1.06432059
  H -2.13058673 -0.02719848  1.49366279
  H -0.65944952 -0.83457967  2.01477020
  C  0.50200325  0.61006665  0.23453233
  H  0.21233984  1.62056457  0.49998754
  C  1.72505761  0.05102061  0.97278398
  H  2.20225134  0.67915235  1.71041809
  H  1.75555043 -0.99934569  1.21820185
  C  1.77680819  0.46078919 -0.44364192
  N  2.40841039  0.57941474 -1.50743388
  H  3.38449835  0.28370604 -1.46573378
  H -0.26261978 -1.18939425 -0.59022817
  H -1.40432507  0.12468374 -2.08709284
  H -2.66345782  0.07774306 -0.85939667
  H -1.58497554  1.46469199 -0.96810404
