13
opt_min/./Product_8565_0_opt.xyz
  N -1.22298200 -0.00657412  2.31509900
  C -1.84235998 -0.02491577  1.22220311
  O -1.22812045  0.04020627  0.04683603
  C  0.19131189  0.11545002  0.10073815
  C  0.70437204  0.08828140 -1.34071420
  N  2.10304306  0.08510257 -1.36164432
  C  3.26477325  0.08718958 -1.36780221
  H  0.34250162  0.96833054 -1.88300779
  H  0.34002268 -0.80969418 -1.84782744
  H  0.58103472 -0.73538201  0.67088036
  H  0.49853644  1.02979816  0.61730313
  H -2.92968237 -0.07909476  1.07062730
  H -1.80604392 -0.05469057  3.14145196
