10
opt_min/./Product_7196_0_opt.xyz
  N -0.35892700 -1.70876800  0.14095300
  C  0.00385220 -0.51814682 -0.05359246
  O -0.77182674  0.63713865 -0.08735903
  C -2.07452879  0.60728292 -0.35887143
  O -2.73147793 -0.33407335 -0.67741007
  H -2.46550554  1.63320875 -0.24832412
  C  1.38017713 -0.37635713 -0.52071550
  O  2.26583377 -1.09310780  0.01155166
  H  1.99007763 -1.65178098  0.78064088
  H -1.35285745 -1.90639098  0.19569992
