10
opt_min/./Product_6348_0_opt.xyz
  C  2.35681100  0.60032800  0.07995200
  O  1.30996688 -0.18533189  0.21343381
  C  0.04501251  0.39357600  0.06314279
  O -0.14518503  1.54329721 -0.17260475
  C -1.02092785 -0.65081477  0.27531282
  O -2.29391776 -0.17137922 -0.02176317
  H -2.33685193  0.77440536  0.18480338
  H -0.82761026 -1.51539013 -0.37079114
  H -0.94621661 -0.98977934  1.32315056
  H  3.22922735 -0.06991519  0.23726429
