15
opt_min/./Product_11790_0_opt.xyz
  C  2.01883200 -0.71137300  0.02866800
  N  0.61865581 -0.98492405  0.16290510
  C -0.28174211 -0.09400473  0.01728304
  N -0.10659625  1.22772967 -0.24295447
  H  0.81126392  1.59301177 -0.41792517
  H -0.89728523  1.79855460 -0.46874500
  C -1.67070966 -0.59335599  0.18474962
  O -1.72482920 -1.91801863  0.44926956
  C -2.78197567  0.13538957  0.09686634
  H -3.73881370 -0.33377464  0.23551522
  H -2.78882249  1.18918266 -0.10294772
  H -0.79289914 -2.21437720  0.46781755
  H  2.26452736  0.06820605 -0.70254554
  H  2.43027793 -0.41698509  0.99899560
  H  2.50636234 -1.63969099 -0.27473734
