13
opt_min/./Product_8567_0_opt.xyz
  N  1.24182800  1.01169300 -0.10984000
  H  1.80566949  1.66040462  0.40757028
  C  1.18922845 -0.38219180  0.21020108
  H  1.27074878 -0.93948226 -0.73982544
  H  2.04578406 -0.61334390  0.84677035
  O  0.06677915 -0.91012173  0.91308278
  C -1.12453786 -1.02936538  0.15624596
  H -1.80913727 -1.60324585  0.77980346
  H -0.93170265 -1.56776557 -0.78468732
  C -1.66324095  0.37050599 -0.06660336
  H -2.55368641  0.70184437  0.43371901
  C -0.82734380  1.16229569 -0.67457406
  N  0.31962977  1.52241378 -1.03132593
