19
opt_min/./Product_7566_0_opt.xyz
  C  2.32845600  0.35468700 -0.45486100
  C  1.15778417 -0.55752527 -0.05923790
  O  1.15844399 -0.81335463  1.34442573
  H  2.04566522 -1.07644392  1.60696812
  C -0.11668737 -0.15817378 -0.66974242
  C -1.30206287 -0.25029044  0.19413313
  C -1.21899173  1.20855489  0.71687188
  H -1.18526630  1.91133253 -0.11401533
  H -2.11008181  1.41217821  1.30746472
  H -0.34456550  1.34041699  1.34793961
  C -2.60333338 -0.47836322 -0.56071604
  H -3.45629338 -0.37112596  0.10419195
  H -2.68695187  0.24234866 -1.37230950
  H -2.61693773 -1.47523125 -0.99597896
  H -1.21721321 -0.92531036  1.05416048
  H  1.29033286 -1.51879405 -0.60769698
  H  3.28123089 -0.12528557 -0.24366741
  H  2.25684287  0.58231752 -1.51337690
  H  2.25598137  1.27786426  0.11572444
