10
opt_min/./Product_5714_0_opt.xyz
  O -0.56788500  1.55167600 -2.13913100
  C -0.26685604  0.87675012 -0.99943312
  O -0.87674175 -0.22436795 -0.75156569
  C -0.72625095 -1.00045920  0.31343815
  C  0.13641351 -0.73673516  1.36467210
  C  0.89872562 -0.50299832  2.27136503
  H  1.54462546 -0.30540561  3.07357614
  H -1.33967537 -1.88493225  0.29142485
  H  0.45869386  1.33917994 -0.35438398
  H -1.22735338  1.05270604 -2.64166928
