13
opt_min/./Product_4828_0_opt.xyz
  C  1.41255500  0.25690100  0.04289200
  C -0.07144662  0.36177604 -0.30676721
  N -0.72967565 -0.93389980 -0.23095641
  C -0.17273203 -1.99840034 -0.70305149
  H -0.83557421 -2.86853575 -0.53043942
  H -1.61475754 -0.86293954  0.28542116
  C -0.75708422  1.34758286  0.60279658
  O -1.73206694  1.12090185  1.26165270
  H -0.26320047  2.33731247  0.61028511
  H -0.16592394  0.76240177 -1.32872413
  H  1.52680571 -0.15087904  1.04533590
  H  1.89702544 -0.41641567 -0.65850332
  H  1.88972494  1.23331591 -0.00378098
