13
opt_min/./Product_9686_0_opt.xyz
  C -2.02567100  0.96159800  0.41506300
  C -1.21543776 -0.14589378 -0.07698842
  N -1.08043578 -1.02774601 -0.96407763
  C -0.03609099 -0.97257393  0.11121930
  C  1.32495399 -0.43972456 -0.20870122
  O  1.66348065  0.57294083  0.63720995
  H  2.55606268  0.90179112  0.44685015
  N  2.01629016 -0.90884879 -1.13762460
  H  2.93167116 -0.48214365 -1.27728826
  H -0.03291233 -1.77455947  0.84400062
  H -1.49114258  1.53747695  1.16807044
  H -2.94139981  0.56332518  0.85535205
  H -2.30673162  1.60589598 -0.41864387
