9
opt_min/./Product_6596_1_opt.xyz
  N -3.05087300  0.24069500 -0.74806300
  C -1.93249620  0.34163278 -0.55030155
  C -0.51624897  0.48131731 -0.28563463
  O  0.14801277 -0.74091587 -0.60473333
  C  1.45797781 -0.75430318 -0.41336788
  O  2.11225950  0.15366517  0.00246620
  H  1.85626566 -1.74176239 -0.68929798
  H -0.11153830  1.30500770 -0.89073543
  H -0.37066221  0.73043219  0.77518415
