11
opt_min/./Product_5389_0_opt.xyz
  N  2.00409100 -0.15461200 -0.05727400
  C  0.61700324 -0.19309268 -0.09259780
  C -0.27410515 -1.26409587 -0.23094932
  C -1.57894419 -0.55088747 -0.09453954
  H -2.15260315 -0.93538534  0.75150597
  H -2.21591661 -0.69893767 -0.96987519
  N -1.36374618  0.85942231  0.09204571
  N -0.07863662  0.96845194  0.08905015
  H  0.33654284  1.89041967  0.20280561
  H  2.40327981 -1.07853399 -0.14610225
  H  2.43179084  0.49410097 -0.70593378
