13
opt_min/./Product_10133_0_opt.xyz
  O -1.38641703  1.27592216 -0.29531529
  C -0.12007228  1.10215529 -0.90973071
  N -0.02227423  0.05827194 -1.72093692
  C -0.32628178 -0.77315656 -0.57500572
  H -0.42523194 -1.83499583 -0.77848553
  C  0.95241759 -0.34822942  0.27733073
  H  1.83675019 -0.84799898 -0.12898369
  H  0.88715279 -0.51918108  1.35639984
  N  0.91682789  1.10645857 -0.02019480
  H  1.51770195  1.80941369  0.35760328
  C -1.59761484 -0.09129909  0.03844084
  H -2.50588094 -0.45983298 -0.44457046
  H -1.65359359 -0.21706041  1.12076703
