10
opt_min/./Product_5716_0_opt.xyz
  O -1.22888391 -0.13995941 -0.85914808
  C -1.59811881  0.74975331  0.04880338
  O -0.94045910  1.19496033  0.94260694
  H -2.64293877  1.03377403 -0.15851439
  C  0.05289153 -0.69355881 -0.82181383
  C  1.06609064 -0.22510124 -0.15490976
  C  2.09129613  0.22067058  0.49204458
  H  2.29926856 -0.07766170  1.50734805
  H  2.77799446  0.92993427  0.05675129
  H  0.09053839 -1.57765258 -1.44058324
