12
opt_min/./Product_3264_0_opt.xyz
  C  0.01477400  1.07296000 -0.10882100
  H -0.02930553  1.76278523  0.74476713
  H  0.05234630  1.69594419 -1.01241012
  C  1.24348696  0.20876255 -0.01792947
  H  2.20372949  0.69299651 -0.08666122
  C  1.17863754 -1.10275711  0.14377695
  H  2.04735974 -1.74039529  0.22202360
  O  0.02756303 -1.83608995  0.21877089
  C -1.12293210 -1.12498172  0.03459774
  H -1.98810578 -1.77274737  0.02681990
  C -1.19880595  0.18591078 -0.13143843
  H -2.16201494  0.64551531 -0.28215538
