13
opt_min/./Product_6082_0_opt.xyz
  C -2.48018500  0.77104900  0.05527500
  C -1.41392439 -0.26710155  0.00854573
  O -0.18428536  0.10706630  0.02224323
  C  0.87306385 -0.66338948 -0.01940119
  C  2.15978078 -0.08224300  0.02106283
  N  3.20840313 -0.81323109 -0.00283367
  H  4.07776457 -0.28634617  0.05942338
  H  2.16761164  1.01569712  0.09043920
  H  0.74877857 -1.73750472 -0.07996881
  H -1.65608355 -1.32139642 -0.04436912
  H -2.31668678  1.45836475  0.88649034
  H -3.44928439  0.29731166  0.17465506
  H -2.49272766  1.36813746 -0.85903624
