8
opt_min/./Product_3184_0_opt.xyz
  N  1.03983261  0.77901694 -0.21588603
  C -0.28694722  0.90102231  0.14167138
  C -1.22724629 -0.01168711  0.46137336
  O -2.18857790 -0.59892693  0.78307992
  C -1.08566544  1.99136069  0.20050724
  H -2.14608989  2.03555309  0.37548833
  H  1.47896385  1.68415186 -0.28767296
  H  1.56901052  0.12490702  0.34261490
