16
opt_min/./Product_6479_0_opt.xyz
  C -0.27217300  1.81096700  0.05366100
  C -0.09146496  0.32670375  0.05747413
  C -1.33578035 -0.50968910  0.13128332
  O -1.11056788 -1.83454232 -0.30093033
  H -1.93874008 -2.32030388 -0.24200111
  H -1.73875483 -0.51264905  1.16476810
  H -2.10000816 -0.03270410 -0.50520622
  N  1.13769331 -0.17403184  0.15550498
  C  1.64010414 -1.39664310  0.23003694
  O  3.01579326 -1.51123082  0.31486720
  H  3.42316810 -1.51164512 -0.56310386
  H  1.02967481 -2.27295874  0.30881479
  H  1.87158890  0.53404404  0.14568370
  H  0.69035939  2.31692627  0.00228345
  H -0.78579120  2.15216611  0.95887722
  H -0.87326993  2.13258340 -0.80057678
