11
opt_min/./Product_11309_0_opt.xyz
  N  2.16541800 -0.43010000  0.59886200
  C  0.83284219 -0.19671038  0.64122632
  C  0.23165196  1.01839220  0.91406048
  C -1.04499584  1.16166174  0.47749779
  H -1.66909034  2.00382182  0.72929671
  C -1.58395275  0.07724666 -0.29354925
  H -2.50076959  0.14679908 -0.85642758
  N -1.12803819 -1.11248136 -0.15419154
  O  0.06065974 -1.30152898  0.51781414
  H  2.76650371  0.32056980  0.88787465
  H  2.49165130 -1.37336976  0.72423808
