12
opt_min/./Product_6633_0_opt.xyz
  C  2.01183400 -0.47798700  0.08608900
  H  2.42176536 -0.97126818  0.92777434
  C  1.82052579  0.46073007 -0.77030154
  H  1.94984435  1.43008579 -1.17969914
  N  1.01238819 -0.75749566 -0.97558316
  C -0.39837135 -0.68444294 -0.58105528
  C -0.74124992  0.24225873  0.58305301
  H -1.81743173  0.26302599  0.73321969
  H -0.40118472  1.25717906  0.37646686
  H -0.26550927 -0.09762521  1.50225815
  H -0.69575246 -1.71005121 -0.34144065
  H -0.94823269 -0.36691479 -1.47353984
