13
opt_min/./Product_6170_0_opt.xyz
  C -1.11952811 -0.89466785  0.24254707
  C -0.45616058  0.46761294  0.01306485
  C  1.03339299  0.43360555  0.42156874
  C  1.80751053 -0.60423704 -0.25363361
  H  2.84944768 -0.56324264  0.10562442
  H  1.11424328  0.32246525  1.50798311
  H  1.51522587  1.39044053  0.17562037
  C -0.56350284  0.84228734 -1.37751217
  N -0.65192568  1.14552664 -2.47533210
  H -0.97683153  1.23634984  0.59751815
  H -0.99850595 -1.19211414  1.27973652
  H -0.66295490 -1.64353149 -0.39456671
  H -2.18111745 -0.84705129  0.02284266
