11
opt_min/./Product_6220_0_opt.xyz
  C  1.79533000 -0.29987700  0.19342900
  O  0.44328510 -0.17710183  0.55406199
  C -0.43521908 -0.05050764 -0.50730345
  C -1.68677634  0.34753545 -0.32017440
  O -2.23491912  0.68344206  0.87662603
  H -1.55507282  0.56008375  1.55406249
  H -2.37921784  0.42164717 -1.14299552
  H -0.06208799 -0.31059554 -1.48608164
  H  2.33868656 -0.48418354  1.11979579
  H  1.94846972 -1.14183675 -0.49101967
  H  2.16846963  0.61589219 -0.27808233
