11
opt_min/./Product_1843_0_opt.xyz
  N  1.69634600 -0.28727200  0.13385600
  C  0.39342616  0.09265136  0.06041553
  C -0.73633421 -0.88770053  0.00842893
  H -0.77257297 -1.55619210  0.87172124
  H -0.75884328 -1.48236061 -0.90873791
  O -1.88906942 -0.04511365  0.03020542
  C -1.59440117  1.23457618  0.09020978
  C -0.15113989  1.33659670  0.11444857
  H  0.41052400  2.25180529  0.16132525
  H  1.94826589 -1.20288236 -0.20034241
  H  2.38315137  0.43485068 -0.01193653
