14
opt_min/./Product_11779_0_opt.xyz
  C -1.34820000  1.34823400 -0.38720800
  C -0.70017628  0.33973889  0.17056696
  C -1.08585216 -1.09458985 -0.01909191
  H -1.92502111 -1.18396515 -0.70244247
  H -1.36031425 -1.54145388  0.93622952
  H -0.24715561 -1.66371843 -0.41913702
  C  0.50660699  0.56849932  1.04970997
  N  1.70869021  0.10269518  0.44997448
  C  2.20018815 -0.71181224 -0.25849946
  O  2.87493565 -1.40076703 -0.90485328
  H  0.38097701  0.05454203  2.01026395
  H  0.64724750  1.63531686  1.24051367
  H -1.04731165  2.37114138 -0.23563901
  H -2.20984483  1.19328464 -1.01312676
