16
opt_min/./Reactant_6159_0_opt.xyz
  O  2.45379400 -0.28200300 -0.51764300
  C  1.40175602 -0.38845901  0.41618242
  C  0.19958166  0.47473168  0.07205428
  H  0.52092887  1.51279178 -0.03942227
  C -1.01175731  0.32319847  1.01354954
  H -1.32584610  1.24137966  1.49990759
  H -0.88376791 -0.44246589  1.77342668
  C -1.88910544 -0.10891108 -0.17725482
  H -2.30824749 -1.10475461 -0.09155486
  H -2.67799671  0.59689371 -0.41652136
  C -0.66686887 -0.01106200 -1.11122944
  H -0.34044040 -0.96036447 -1.52339603
  H -0.77038722  0.70513918 -1.92007281
  H  1.11417736 -1.44286899  0.41550624
  H  1.77171567 -0.13208501  1.42112752
  H  2.58898986  0.64833464 -0.72432954
