10
opt_min/./Product_3658_1_opt.xyz
  C  1.26842800 -0.57750700 -0.43155300
  C  0.28751549  0.13478415  0.13490405
  N  0.71036999  1.09357018  1.06596022
  O -0.15655653  1.74442344  1.63671762
  C -1.17655443 -0.03130357 -0.14502384
  H -1.58263173  0.91804729 -0.48881406
  H -1.34429599 -0.79492248 -0.89910173
  H -1.69825057 -0.30417533  0.76958450
  H  1.06112184 -1.34220315 -1.16011274
  H  2.29841819 -0.39765894 -0.17935483
