12
opt_min/./Product_5637_0_opt.xyz
  C  1.13342400 -0.83327100  0.51803800
  C  0.44619955  0.42360693  0.03496999
  H  1.07175530  1.31375694  0.06826245
  C -0.57786709  0.48028070 -1.04490225
  H -0.55715892  1.10451891 -1.91792817
  O -1.31061629 -0.75335992 -1.02761329
  C -1.77407794 -0.57694796  0.19509184
  C -1.00827418  0.72414943  0.38191868
  H -1.36604077  1.60420326  0.88370020
  H  0.81820250 -1.07498667  1.53221260
  H  2.21221491 -0.69495084  0.52854655
  H  0.89004033 -1.68320787 -0.11945539
