14
opt_min/./Product_8272_0_opt.xyz
  C  0.08654100  1.55746800  0.40866300
  C -0.00602637  0.06124011  0.09962108
  C  1.23777399 -0.67206729  0.51925251
  N  2.35424123 -0.30371722  0.08830483
  H  3.15238056 -0.84332244  0.41367347
  H  1.06037298 -1.51008472  1.20864081
  O -1.13765592 -0.50227830  0.78670961
  C -2.06472042 -1.09204499  0.06082359
  O -2.08668047 -1.23565046 -1.12508708
  H -2.85765062 -1.46064844  0.73758475
  H -0.15201707 -0.09048344 -0.97809310
  H  0.60857865  2.06481457 -0.39517152
  H -0.91499053  1.96841920  0.50325221
  H  0.62702185  1.72659899  1.33494127
