14
opt_min/./Product_11262_0_opt.xyz
  C  1.95137400 -0.46516300  0.30845900
  C  0.86840435  0.23555690 -0.47816872
  O  1.13276432  0.92781497 -1.43526992
  C -0.54457821  0.02740959 -0.04778229
  C -0.89678037 -0.85501519  0.88370044
  H -1.92778039 -0.99279257  1.16303726
  H -0.18527489 -1.47921999  1.39361049
  C -1.54313842  0.87904282 -0.76979036
  H -2.55726216  0.63069642 -0.47219983
  H -1.35230912  1.92971798 -0.56076065
  H -1.43414762  0.74282745 -1.84362680
  H  2.91874831 -0.09214547 -0.01722056
  H  1.83988564 -0.30838705  1.37645567
  H  1.90524949 -1.53344286  0.10631749
