16
opt_min/./Product_7557_0_opt.xyz
  C -2.13630200 -0.26186800 -0.19782600
  C -0.72242188 -0.19618603  0.28196463
  C  0.12129904 -1.38353312  0.25637091
  H -0.44677071 -2.28805467  0.05459832
  H  0.70345551 -1.51912905  1.17092251
  C  1.17159576 -1.05393809 -0.79763966
  C  1.75089111  0.11382974 -0.73796203
  H  2.54825378  0.45495555 -1.37342690
  C  1.25786240  1.12841241  0.35216123
  H  1.71435499  0.77629088  1.28409976
  H  1.55887906  2.16135052  0.16941496
  N -0.15759355  1.02324504  0.41108414
  H -0.70082564  1.81022015  0.08114689
  H -2.53164024  0.72732799 -0.42478937
  H -2.18952416 -0.86936838 -1.10108212
  H -2.77870554 -0.72989826  0.54958694
