10
opt_min/./Product_5045_0_opt.xyz
  C -1.47373500  0.15429000  0.15603300
  C -0.26473790  0.47733129  1.01331922
  N  0.86416692  0.05498716  0.42433202
  C  1.63646924 -0.51758743 -0.50656938
  H  1.51806863 -1.01663441 -1.44356635
  N  2.42873782 -0.10549226  0.37415789
  O -0.29909590  1.06762807  2.06109914
  H -2.36782808  0.40350665  0.72071463
  H -1.48933255 -0.90150140 -0.10568761
  H -1.44533689  0.75186027 -0.75335577
