10
opt_min/./Product_800_0_opt.xyz
  O  2.31578700  0.77558800  0.13299000
  C  1.88029099 -0.36761969 -0.47446481
  N  0.55999909 -0.45853497 -0.43137090
  C -0.37092358  0.47968612  0.11584251
  H  0.10506995  1.33280829  0.58040365
  C -1.72098868  0.08114345  0.45196378
  H -2.35396177 -0.44197323  1.12859387
  N -1.65584179  0.71606176 -0.62925604
  H  0.15379489 -1.27303739 -0.87183811
  H  3.27734499  0.80020741  0.06199666
