11
opt_min/./Product_152_0_opt.xyz
  C  1.23458000 -0.02258500 -0.01775400
  N -0.12684863 -0.02192315 -0.55418321
  H -0.16491818 -0.38862500 -1.50066141
  C -1.27500026 -0.36377776  0.29463900
  H -1.97831296 -1.06737879 -0.14201912
  H -0.98380695 -0.65789614  1.30649187
  C -1.18019868  1.00996140 -0.25909296
  H -0.75587389  1.69576181  0.49753261
  H  1.26135546 -0.50798197  0.95784192
  H  1.57482284  1.00906973  0.09492390
  H  1.91592731 -0.54166820 -0.69007411
