11
opt_min/./Product_6981_0_opt.xyz
  N  2.13227064  0.34258839  0.59227522
  C -3.23101049  6.15383574  5.47728943
  C -2.31761360 -8.51294801  8.59777260
  N  6.78499909 -17.18111911  1.19771185
  C  0.13234055 -8.47344565 -3.17752027
  N  5.37015705  0.79603998 -2.07658540
  N  5.83512550  2.22689979 -6.18122138
  H -12.40528760 -1.76100831  3.03608614
  H -2.65786976  11.09211446  19.81233159
  H  8.05670249 -10.25823179 -0.74258319
  H  13.10687347  10.93435031  9.68082070
