16
opt_min/./Reactant_10837_0_opt.xyz
  C -0.92706598 -1.31143599  0.53062107
  C -0.59353143  0.18085156  0.63194754
  C  0.24853250  0.69044355 -0.54851482
  C  1.67029451  0.11675499 -0.51852034
  O  2.43047873  0.52703724 -1.62620928
  H  2.61077254  1.47282652 -1.55812891
  H  1.63385284 -0.97470886 -0.58569393
  H  2.17027195  0.39274525  0.42305870
  H  0.29068394  1.78365812 -0.51236518
  H -0.21531578  0.40394080 -1.49566593
  C -1.81292426  0.95501096  0.71197197
  N -2.77733955  1.56549713  0.77510601
  H -0.04071319  0.37399382  1.56425869
  H -1.78095336 -1.55884764  1.16222464
  H -0.07569630 -1.91262259  0.84372589
  H -1.18280113 -1.56880888 -0.49621675
