14
opt_min/./Reactant_9536_0_opt.xyz
  C -1.79184300  0.78476600 -0.20366500
  C -0.83650579 -0.24394233  0.38762295
  H -1.33457979 -0.83676754  1.17391663
  O -0.36157855 -1.13162067 -0.60536188
  C  1.04595465 -1.02861747 -0.69069571
  H  1.33796620 -0.69778112 -1.68983445
  H  1.51432065 -1.99227600 -0.48649571
  C  1.41557254 -0.00385515  0.35784634
  N  2.57813259  0.38862598  0.58708029
  H  2.65461278  1.07848622  1.32717011
  O  0.27808707  0.38117606  0.97797813
  H -1.40129000  1.13841864 -1.15386758
  H -1.87516038  1.61701698  0.48817430
  H -2.76911267  0.34895978 -0.36158996
