14
opt_min/./Product_11215_0_opt.xyz
  N  3.27730500  0.18573900  0.56424500
  C  2.22836288  0.44737624  0.18978535
  C  0.91178652  0.76497452 -0.27549214
  H  0.93444103  1.68436071 -0.86166289
  C  0.20274226 -0.40680411 -1.00603428
  H  0.77691052 -1.33217775 -1.06817128
  H -0.15395076 -0.17056205 -2.00848311
  C -0.86228607 -0.38698347  0.06033498
  C -1.96814650 -1.06908139  0.26044038
  H -2.59740836 -0.87325067  1.11190893
  H -2.28833136 -1.84340373 -0.41495943
  C -0.17396295  0.71653111  0.82681888
  H -0.74409219  1.62983519  0.97379212
  H  0.21391198  0.36963258  1.78611752
