17
opt_min/./Product_10091_0_opt.xyz
  C  1.71948000 -0.65605700  0.06979300
  C  0.65835412  0.35679620 -0.31509740
  H  1.01540248  0.93314090 -1.18801145
  C -0.76909519 -0.15018557 -0.63801201
  C -1.20230163 -1.38164358  0.15824045
  H -0.57022502 -2.23186043 -0.07812055
  H -2.22711614 -1.63355006 -0.09819915
  H -1.14740693 -1.17785247  1.22433482
  H -0.90647011 -0.34706906 -1.70462158
  O -1.58190304  0.96281116 -0.27689314
  C -0.76575304  1.90488138  0.37478833
  H -1.26989543  2.29396090  1.26129304
  H -0.55484082  2.75062282 -0.31790875
  O  0.40770995  1.26623612  0.74716477
  H  2.56390435 -0.12715709  0.50003795
  H  2.05432640 -1.18613979 -0.81553536
  H  1.36028287 -1.36980030  0.80206728
