16
opt_min/./Product_7660_0_opt.xyz
  C  1.82712900 -0.61473900 -0.04431200
  N  0.76319990  0.29939240 -0.45063863
  C -0.51844859  0.01753596  0.12367305
  C -1.16752073 -1.18088917 -0.53654704
  H -0.47035053 -2.00740285 -0.63383251
  H -1.51748502 -0.90461285 -1.52851621
  H -2.00995895 -1.50509080  0.06959307
  O -0.73793348  0.18854671  1.49974008
  C -1.36477903  1.10155700  0.62959364
  H -0.97789779  2.10982638  0.68069092
  H -2.44058461  0.98994506  0.54792391
  O  1.18863891  1.64060845 -0.19439412
  H  1.32479884  2.03631483 -1.06685194
  H  2.47476442 -0.12993329  0.68888915
  H  1.41370897 -1.50987291  0.41373135
  H  2.41459555 -0.88715709 -0.92182268
