14
opt_min/./Reactant_1431_0_opt.xyz
  C -1.60609200  0.13350100 -0.84767200
  C -0.77236836  0.11956663  0.44753158
  O -0.42229720 -1.19202794  0.83047996
  H -1.22501352 -1.70546542  0.96531193
  C  0.49133091  0.93761117  0.20560645
  O  0.47165980  2.14128677  0.25414328
  C  1.72528935  0.14198559 -0.09340319
  H  1.96385103 -0.49130298  0.75681279
  H  2.55062345  0.80928132 -0.31035617
  H  1.54863260 -0.52727612 -0.92969152
  H -1.36161000  0.61491531  1.23265074
  H -1.05336781 -0.34255286 -1.65220859
  H -1.82864941  1.15598706 -1.12372175
  H -2.53193507 -0.41760737 -0.70118629
