12
opt_min/./Product_6567_0_opt.xyz
  C -1.57426174  0.26949245 -0.29232058
  C  1.49436187  11.69243584  5.62428298
  C  1.96600660  13.07621527 -0.39285336
  C  8.89157390 -4.72483979 -21.83565336
  N  10.30207015 -14.56888682 -33.86751375
  H  22.33157252 -12.85822554  20.93115674
  H  10.19857771  24.67709366 -64.21986973
  H -4.92136436  8.77982848  11.83143583
  H -5.98112010  24.49509526  12.81652429
  H -2.11567790 -9.41870596 -3.09748553
  H -9.92303064  6.52725018  12.88765979
  H -1.32374477  15.20636604  3.44510053
