14
opt_min/./Product_11485_0_opt.xyz
  C  1.20382704 -0.72090594 -0.05026097
  C -0.16987196 -0.06256752  0.15449930
  C -0.65460340 -0.37560373  1.48670657
  N -0.99886521 -0.58964260  2.55459069
  C -1.09658756 -0.59505298 -0.92381834
  O -2.09723507 -1.22477499 -0.76717410
  H -0.69665418 -0.35582359 -1.93364496
  C -0.06897747  1.46096471  0.00870944
  H -1.02844165  1.93357296  0.21575482
  H  0.66416052  1.85135120  0.71728479
  H  0.25043914  1.72601533 -0.99903912
  H  1.86480261 -0.45880557  0.77763037
  H  1.64939340 -0.36742090 -0.97813509
  H  1.10843231 -1.80738265 -0.08143582
