12
opt_min/./Product_7503_0_opt.xyz
  O  0.22191165  1.63779350  1.47955714
  C  0.04821619  0.25132393  1.22755736
  C  1.28000479 -0.37737528  0.76599948
  C  2.29765231 -0.87106373  0.37803551
  H  3.19644547 -1.30650228  0.04798509
  C -1.07022390  0.04444840  0.20770526
  H -1.95384700  0.64726823  0.40353528
  C -0.79865051 -0.42660230 -1.13972596
  H -0.42028691 -0.23698200 -2.11437596
  N -1.29733496 -1.30172162 -0.39331716
  H -0.23190674 -0.17310216  2.19924574
  H  0.36859283  2.10058161  0.64684038
