17
opt_min/./Product_11530_0_opt.xyz
  C -2.89836700 -0.16220500  0.43433700
  C -1.83604646  0.83948570  0.00370896
  N -0.54934532  0.52168979  0.58005737
  C  0.53503878  0.41772555 -0.12871670
  C  1.71732017  0.05545798  0.66221608
  H  1.65545073 -0.03219388  1.75310532
  C  2.71359009 -0.82005786 -0.02127650
  H  2.48809257 -1.17447209 -1.02063840
  H  3.27637597 -1.51188533  0.59217730
  N  3.00444789  0.56440946  0.19838990
  H  2.89429419  1.12189315 -0.64556881
  H -0.58092470  0.35670487  1.59812520
  H -1.71151602  0.83483764 -1.08225686
  H -2.13210831  1.85081017  0.31239338
  H -3.85707030  0.09680022 -0.00738682
  H -2.62479489 -1.16575824  0.11745150
  H -3.01462155 -0.16092524  1.51845358
