12
opt_min/./Product_11854_0_opt.xyz
  C -1.17051862 -0.80556342 -0.12070458
  N -0.06035523  0.04811523  0.34930884
  C  1.02054861  0.28791754 -0.62244511
  C  2.30270390  0.23089863 -0.14564450
  N  3.37001902  0.09514364  0.28432673
  H  0.74128000  0.77023481 -1.53896135
  C -0.37765161  1.37039948  0.58102722
  N -0.58724178  2.49651461  0.68889492
  H  0.38080696 -0.36080140  1.18253744
  H -1.77116405 -1.15527980  0.71931808
  H -1.79658185 -0.23047089 -0.80320931
  H -0.74549990 -1.65571630 -0.65668701
