14
opt_min/./Product_5509_0_opt.xyz
  C -1.80595900  0.04901000  0.31426500
  C -0.91827923  0.20784721 -0.91934600
  O  0.34492673  0.76983123 -0.64810261
  C  1.22162607 -0.08087466  0.04314236
  C  2.47101586  0.64719853  0.42469489
  O  3.46075024 -0.21914272  0.53572412
  H  4.27083446  0.22763963  0.82827597
  H  1.39647677 -1.01794363 -0.52034843
  H  0.79454464 -0.36660247  1.02240915
  H -1.38175916  0.91064911 -1.61594135
  H -0.80028471 -0.76403583 -1.42548934
  H -1.43997815 -0.73637082  0.97181638
  H -1.83131629  0.98691694  0.86394637
  H -2.81553930 -0.20749924  0.00542593
