7
opt_min/./Product_580_0_opt.xyz
  O -1.14588668 -1.04667693 -0.53642333
  C -8.08244890  7.07979024  3.38242522
  H -20.63902663  2.72231330  6.57282270
  C  1.89307938 -16.56823486  3.51576811
  C -15.51544837 -12.38101472  5.84791905
  C  3.63417293  7.77420145  0.29386974
  N  1.39232038 -0.36228027 -3.64503363
