14
opt_min/./Reactant_6037_0_opt.xyz
  C  0.80267100 -0.98959700 -0.15760300
  H  1.54183606 -1.56280698 -0.72229011
  H  0.71079832 -1.41563724  0.85292149
  C  1.21514900  0.48715451 -0.05613316
  H  1.75611829  0.79619385 -0.95338509
  H  1.89264159  0.60445279  0.79387592
  C  0.02230461  1.36627946  0.12987013
  H  0.22966642  2.41526821  0.29599109
  C -1.21705478  0.91237353  0.07257577
  H -2.07903434  1.54444247  0.21041927
  C -1.48609687 -0.53712433 -0.21013226
  H -1.71135569 -1.06374680  0.74039203
  H -2.35212780 -0.65813702 -0.86779883
  O -0.40680309 -1.16618504 -0.85870371
