15
opt_min/./Product_1993_0_opt.xyz
  C  1.82598900  0.67630100  0.23079800
  C  1.11275850 -0.27921797 -0.72901577
  N  0.46528167 -1.30787214  0.02700546
  C -0.73857052 -1.26309392  0.37010631
  C -1.77270329 -0.19778916  0.05127481
  O -1.46249070  0.95423502  0.81808098
  H -2.01661723  1.68492661  0.52688616
  H -1.73828512  0.04232172 -1.02132316
  H -2.77877888 -0.56684013  0.28931095
  H -1.07190286 -2.08716425  0.98693162
  H  0.43226676  0.30526907 -1.36732246
  H  1.85095356 -0.77350489 -1.36531051
  H  1.09686171  1.16452144  0.87353465
  H  2.36317722  1.43171325 -0.33237018
  H  2.52474461  0.12936789  0.85483055
