12
opt_min/./Reactant_7989_0_opt.xyz
  N  2.42230700  0.10511400  0.11318700
  C  1.07754422  0.04569104  0.06032948
  N  0.39482993  1.06905048  0.58357424
  C -0.92025397  1.00922471  0.50604004
  H -1.45237372  1.84619125  0.93784758
  C -1.58306683 -0.05675399 -0.08600888
  H -2.65760904 -0.10756702 -0.14831624
  C -0.77866750 -1.06726875 -0.59560354
  H -1.18904320 -1.94483871 -1.07652213
  N  0.53766175 -1.02690758 -0.52788109
  H  2.86405688  0.86531298  0.59910598
  H  2.95130434 -0.67256081 -0.23818392
