13
opt_min/./Product_4881_0_opt.xyz
  C -1.20688150  0.89348753  0.04528111
  C -5.61224672  12.28864067  11.26058379
  C -6.15021295  8.69612111  4.78611463
  C -7.83031699 -3.16566092  1.92776846
  O -3.07666751  0.38050123 -4.62806957
  H  1.09038757  30.77958557  19.96731563
  N  28.07394868 -10.99969907 -21.32152712
  H  37.72760658 -32.06044080 -3.79700165
  H -5.04639520 -9.22693300 -13.34077847
  H  0.61851028 -18.18431823 -18.57484432
  H -11.27881720  12.61089295  2.06814128
  H -10.67529360 -7.60875760 -4.81858687
  H -1.53533542 -19.00021994  8.99326835
