15
opt_min/./Product_2544_0_opt.xyz
  C -1.77989000 -0.30165600  0.41210700
  C -0.80953610 -0.49373384 -0.75409814
  N  0.20607082  0.53091675 -0.84071009
  C  1.26335533  0.57163922  0.05474608
  O  1.94297096  1.77844227 -0.01558397
  H  2.71632823  1.67799324 -0.57973454
  C  1.66229823 -0.38563232  0.88527783
  H  1.14025212 -1.31528853  1.00007978
  H  2.55639717 -0.24580391  1.46651291
  H -0.15343146  1.46043582 -1.02562487
  H -0.29349900 -1.45173124 -0.66236791
  H -1.35989324 -0.48508738 -1.70004106
  H -2.39961789  0.57990825  0.25478357
  H -2.43247523 -1.16769761  0.50280822
  H -1.22424007 -0.17599242  1.33878283
