16
opt_min/./Product_4907_0_opt.xyz
  C -2.75097400 -0.09732700 -0.95412800
  C -1.53638511  0.27398520 -0.12005300
  O -0.39643602 -0.31938254 -0.69686501
  C  0.79192882 -0.00874444 -0.03676253
  C  1.94318318 -0.81176361 -0.44986560
  C  3.23377152 -0.18931476 -0.13384367
  H  3.55230383  0.21023502 -1.10275254
  H  3.21941851  0.63813327  0.58636904
  H  3.97416754 -0.93736827  0.14479346
  H  0.74806454 -0.36154377  1.02605433
  H  0.93803835  1.09442688  0.01608077
  H -1.66182773 -0.07967904  0.91743916
  H -1.41285651  1.37020169 -0.08820475
  H -2.61545079  0.25289621 -1.97296091
  H -3.64401068  0.35439626 -0.53295469
  H -2.86731141 -1.17639958 -0.97371614
