12
opt_min/./Product_942_0_opt.xyz
  O -2.04486200 -0.21823900  0.58581700
  C -0.76308375 -0.52568851  0.15571161
  H -0.43769732 -1.52553638  0.43756004
  C -0.22769344  0.06829448 -1.10057774
  H  0.44468382 -0.49879363 -1.72451712
  H -0.87929903  0.72852345 -1.65433334
  C  0.26145666  0.58547952  0.23738288
  C  1.63036960  0.26527505  0.66569629
  O  2.34323831  0.99373296  1.29974665
  H  1.97934005 -0.73549021  0.33924751
  H -0.09355212  1.55377229  0.56220100
  H -2.69112651 -0.64634548  0.01137175
