12
opt_min/./Product_9723_0_opt.xyz
  C -1.57685100 -0.75529400 -0.08302700
  C -0.74041535  0.16070226  0.36372530
  C  0.64282695  0.42141615 -0.17981036
  O  1.16977205  1.64089212  0.28428962
  H  0.82044440  2.36662881 -0.24311544
  C  1.54944350 -0.72208570  0.25475429
  O  2.60234574 -0.62926912  0.80338457
  H  1.11094678 -1.70688681 -0.02162326
  H  0.61920815  0.38302449 -1.28006128
  H -0.99366622  0.78825527  1.20757165
  H -1.34369680 -1.39271912 -0.92136860
  H -2.54271753 -0.90303271  0.36685815
