11
opt_min/./Product_9091_0_opt.xyz
  O  2.28370300  0.28970500 -0.10405500
  C  0.95011964  0.24630379 -0.09689735
  C  0.01741245  1.20465968 -0.09017112
  H  0.16055803  2.26842172 -0.09529358
  C -1.30112016  0.55466759 -0.06718066
  H -2.21249666  1.12907194 -0.07598509
  C -1.18952700 -0.78157565 -0.05312295
  H -1.96238062 -1.52690847 -0.04614128
  C  0.23986321 -1.10273716 -0.04994613
  O  0.83106740 -2.15560118 -0.05533036
  H  2.61550956 -0.62312801 -0.13339240
