15
opt_min/./Product_5001_0_opt.xyz
  C -1.58837400 -1.02832600 -0.16956200
  C -0.92437587  0.30857380  0.00429635
  C  0.41109992  0.45166266 -0.68941874
  N  1.24266295 -0.66160245 -0.33863060
  C  2.38930497 -0.48177392  0.12082325
  H  2.85650967  0.49954046  0.29294344
  H  2.98545937 -1.35286779  0.35508351
  H  0.86383465  1.43009062 -0.46812133
  H  0.24605773  0.39127123 -1.77070554
  C -1.45098048  1.29221850  0.71330553
  H -2.40650595  1.18764275  1.19776962
  H -0.95686315  2.24043696  0.83296671
  H -1.66109627 -1.54655135  0.78216739
  H -2.59644826 -0.90150806 -0.55971639
  H -1.01977171 -1.64426068 -0.85760330
