15
opt_min/./Product_10059_0_opt.xyz
  C  1.97080500 -0.35226100 -0.41689300
  C  0.78323805 -0.35049308  0.55004521
  C -0.05207460  0.87560594  0.36467610
  C -1.34740378  0.91059057  0.09449665
  C -2.24831506 -0.27682650 -0.06685826
  H -3.27597346  0.04034310 -0.21632465
  H -2.21502076 -0.91415624  0.81227871
  H -1.95109466 -0.87393271 -0.92511567
  H -1.82394679  1.87308601 -0.02401379
  H  0.47959527  1.81326135  0.45142380
  H  0.18503413 -1.24634969  0.39496899
  H  1.16582829 -0.37097204  1.57316494
  H  2.64557368  0.47044216 -0.19998994
  H  1.61875029 -0.24993032 -1.43868787
  H  2.52600649 -1.28119116 -0.33692853
