17
opt_min/./Product_8386_0_opt.xyz
  C -2.18098500 -0.18135600 -0.29466000
  C -1.00940880  0.10749675  0.63955622
  C  0.32508490 -0.42832127  0.09747747
  H  0.22615612 -1.51399897 -0.02297541
  C  0.83424668  0.21114967 -1.21151876
  H  0.17354383  0.97295397 -1.61952865
  H  0.95571979 -0.53041054 -2.00546958
  C  2.19271067  0.78439705 -0.97177137
  C  2.42589860  0.56870370  0.43293386
  H  3.32234422  0.89302155  0.93480132
  C  1.44657215 -0.13913557  1.03273633
  H  1.44861586 -0.47301290  2.05905286
  H -0.92852749  1.18421505  0.79877700
  H -1.20666189 -0.35764867  1.60830391
  H -2.29564357 -1.24888939 -0.45566175
  H -3.10278207  0.19624305  0.14308024
  H -2.04481577  0.30756970 -1.25416606
