11
opt_min/./Product_3651_0_opt.xyz
  O  1.96203000 -0.21856900  1.08509600
  C  0.84623102  0.14151926  0.42837593
  C  0.51912885  0.77609813 -0.70041811
  H  1.05541112  1.23976011 -1.50287907
  C -0.97628767  0.57266484 -0.44448314
  H -1.78762759  1.25756993 -0.60738253
  N -1.26839131 -0.83031042 -0.28167330
  H -0.68619673 -1.46480525 -0.82586944
  C -0.60674252 -0.14354990  0.80602787
  H -1.07121721 -0.16267691  1.77446974
  H  2.74580624  0.01065250  0.57044106
