15
opt_min/./Product_9122_0_opt.xyz
  C -2.28678700  0.38547100  0.31503700
  C -0.82770164  0.18160576  0.60600250
  O -0.15570659  0.97772183  1.21872135
  C -0.14859610 -1.03751874  0.03676888
  C  1.19985345 -0.52463276 -0.46473639
  C  1.88676749  0.12781753  0.71379448
  O  2.50707354  1.22189253  0.46058654
  H  2.35759279  1.61851709 -0.43240346
  H  1.05993326  0.16983828 -1.31454577
  H  1.82486986 -1.35715470 -0.79841720
  H -0.73434045 -1.57374959 -0.70565153
  H  0.05777281 -1.69091153  0.88457044
  H -2.36428519  0.94829625 -0.61302520
  H -2.75342737  0.97042957  1.10237009
  H -2.80375637 -0.56187753  0.18956397
