7
opt_min/./Product_2774_0_opt.xyz
  O -1.56454500  1.23809000 -0.52692300
  C -1.24414753  0.11414774 -0.23834596
  N  0.01782710 -0.21405029  0.04863279
  N  1.11048981 -1.23230097  0.44328011
  C  1.32926251 -0.00947238  0.23773541
  H  2.05366250  0.77250604  0.20868943
  H -1.91604092 -0.75366368 -0.19064002
