13
opt_min/./Product_11740_0_opt.xyz
  C  1.85884100  0.63101100  0.33488500
  C  0.72644526  0.02269788  0.06407407
  C  0.26264940 -1.41088343  0.10829689
  H  0.80829889 -2.29139939 -0.17833982
  O -0.75182683 -1.46002328  1.06957480
  C -1.12091612 -0.99018504 -0.19222715
  H -1.91199571 -1.49474306 -0.72110017
  C -0.67992888  0.49007110 -0.32197228
  O -1.28511220  1.44175738  0.49667652
  H -1.74588726  2.10256432 -0.02805228
  H -0.70002291  0.76938361 -1.38406795
  H  1.94100613  1.70465237  0.29953344
  H  2.75382970  0.08266183  0.57608747
