8
opt_min/./Product_10422_0_opt.xyz
  C -1.40326400  0.03775799 -0.15682702
  C -0.31746460 -0.60901630  0.25337251
  C  0.94731850  0.00125113  0.37465289
  C  2.02116764  0.52870848  0.48174320
  H  2.96228136  0.98215760  0.57153903
  H -0.35398319 -1.65844242  0.51964634
  H -1.37192214  1.08148110 -0.42320248
  H -2.35577984 -0.45608033 -0.23855036
