16
opt_min/./Product_11032_0_opt.xyz
  C -2.26063300 -0.09236900 -0.23411500
  C -0.83990030  0.07245463  0.29153105
  C  0.19136073 -0.09049232 -0.82134899
  H -0.28554530 -0.17669919 -1.79854892
  C  1.50508767  0.63543606 -0.86232324
  H  1.90395170  1.34985926 -1.55021921
  C  2.07640831  0.03770489  0.38619887
  H  1.57468535  0.16838157  1.33580881
  H  3.15814195  0.01886807  0.47369846
  C  1.48290230 -0.83480062 -0.67682100
  H  1.85783182 -1.69518185 -1.19043597
  H -0.65806724 -0.65312060  1.08693395
  H -0.74420604  1.07698334  0.71532815
  H -2.36249389 -1.03316321 -0.77408805
  H -2.96343893 -0.11916558  0.59812478
  H -2.54212372  0.72387474 -0.89470513
