10
opt_min/./Product_5917_0_opt.xyz
  O  1.08642800 -0.57015400  1.30625500
  C  0.93375500 -0.05033018  0.24208419
  C -0.35914561  0.56926820 -0.26754357
  O -1.41229297  0.40275816  0.70096619
  C -2.29415280 -0.48690831  0.64077767
  H -2.21018587 -1.15050051 -0.25558229
  H -0.20636256  1.64102512 -0.41931826
  H -0.62625434  0.10196565 -1.22393688
  O  1.89106323  0.05736731 -0.68531611
  H  2.72062631 -0.33580904 -0.36573684
