11
opt_min/./Product_1097_0_opt.xyz
  C  1.65265100  0.16387800 -0.17564800
  C  0.37175693 -0.41152798  0.37880827
  C -0.85740448  0.30719046 -0.05061822
  H -0.72622834  1.18123380 -0.67682896
  C -2.12792159 -0.42719307 -0.07717067
  H -2.71647908 -1.14948263 -0.58666186
  N -2.03519437  0.33101459  0.90114811
  O  0.33644629 -1.36480807  1.11852095
  H  1.51188944  0.59823987 -1.15937353
  H  1.99574817  0.94272260  0.50448563
  H  2.41437272 -0.61125276 -0.20571318
