12
opt_min/./Product_3820_0_opt.xyz
  C -2.14473835  0.22443400 -0.33522241
  C -1.01665625 -0.44550134 -0.13773207
  N  0.14993057  0.10456449  0.35395221
  C  1.38295349 -0.57239555  0.27790902
  H  1.30285675 -1.63728141  0.46465591
  C  2.64266558  0.11482332  0.43983327
  H  3.33760789  0.56780341  1.10720862
  N  2.41341482 -0.16264412 -0.76342560
  H  0.18540476  1.11285318  0.39192135
  H -0.95149396 -1.50946335 -0.32112795
  H -3.03412364 -0.27508238 -0.66750726
  H -2.21320374  1.28376632 -0.15759504
