11
opt_min/./Product_9430_2_opt.xyz
  O -1.73489100  1.79663600 -0.28944400
  C -1.18477388  0.76751727 -0.05198066
  C -1.15771990 -0.68856169 -0.17552312
  H -0.94002462 -1.09984179 -1.14969295
  H -1.85220030 -1.28521215  0.39493425
  C -0.03526699  0.07419367  0.54480489
  C  1.32811902  0.18351480 -0.11888973
  H  2.11275390  0.24509625  0.63053198
  H  1.53070236 -0.68926043 -0.73206655
  H  1.38689837  1.07197700 -0.74166845
  H -0.01971575  0.00734571  1.62326488
