9
opt_min/./Product_7453_0_opt.xyz
  C  2.01492400 -0.13027800 -0.07939000
  C  0.75208831  0.25411762  0.01191390
  N  0.25649226  1.49117543  0.19680121
  O -1.11005482  1.39397614  0.22514954
  C -1.46176123  0.12254003  0.06144308
  H -2.51121132 -0.10576592  0.06214826
  C -0.37961479 -0.67379514 -0.08084807
  H -0.31505687 -1.72956646 -0.22767516
  H  2.93921087 -0.61911909 -0.17469695
