11
opt_min/./Reactant_4785_0_opt.xyz
  C -1.45368900 -0.01836400  0.03059300
  C  0.03152614 -0.02167087 -0.00756012
  C  0.89453055 -1.08216700 -0.01038325
  H  0.71932373 -2.13884475  0.01319552
  O  2.15857786 -0.65431441 -0.05494683
  N  2.16127698  0.69799559 -0.08229725
  C  0.92073576  1.08581278 -0.04589499
  H  0.68144789  2.13044939 -0.05624172
  H -1.81571479 -0.54307730  0.91284919
  H -1.85486833 -0.52250071 -0.84735539
  H -1.82501551  1.00246589  0.05121147
