15
opt_min/./Product_65_0_opt.xyz
  C -2.07804404 -0.81862783  0.34371911
  C  1.35024200  1.13767354  17.54507391
  C -16.48106748 -4.38222882  15.95556810
  N -26.50153739  16.51304250  31.11255661
  C -4.98118644  8.22842111  32.44748416
  C -7.45735432  13.75531096  20.59471027
  H  2.50093806 -41.25251977  5.64767378
  H  16.06537250  20.78852322 -3.71573273
  H  9.35737418  3.35363814  13.57474604
  H  18.34344751  25.21667844 -4.16823399
  H  2.83775064 -18.78052948  19.31534916
  H -55.77287155 -21.55109344  24.82417719
  H -11.97618684  2.68535447 -2.14581306
  H -29.37752215  10.60899994  19.23903766
  H -28.49114661 -18.61751191 -2.34758241
