19
opt_min/./Reactant_7695_0_opt.xyz
  C -1.54161200 -1.16961800 -0.56114600
  C -0.92827227  0.07681325  0.09093767
  C -1.92490770  1.22789205  0.26020420
  H -1.59620284  1.89425879  1.04962687
  H -2.91207486  0.85536048  0.50988760
  H -2.00154629  1.80774385 -0.65308092
  C  0.24830670  0.55579434 -0.74386079
  H -0.02434044  0.79875665 -1.76840067
  O  1.14885914  1.45777392 -0.17162057
  C  1.65163658  0.19146882 -0.49314455
  C  2.12129013 -0.72343631  0.61565207
  H  1.29452922 -1.13140543  1.18543063
  H  2.68795576 -1.54506728  0.19208141
  H  2.76794476 -0.17131738  1.28874361
  H  2.31499578  0.20016562 -1.35636331
  H -0.55220053 -0.18899259  1.07846432
  H -2.60174619 -1.24595883 -0.34955324
  H -1.41926312 -1.14146942 -1.63856695
  H -1.06475947 -2.07254892 -0.19862609
