15
opt_min/./Product_11526_0_opt.xyz
  C -1.32233700 -0.08028700  1.06320200
  C -1.12317841 -0.44759995 -0.38301895
  H -1.79298200 -1.22857479 -0.74550291
  N -0.75786481  0.60958706 -1.28526103
  H -1.16484482  0.55883879 -2.21335289
  C  0.23852447 -0.41302427 -1.00760395
  C  1.38780006 -0.00559815 -0.24234922
  C  2.61800876 -0.01661125  0.14032208
  H  3.64451790 -0.26914858  0.15074735
  N  1.74175824  1.02299775  0.76293014
  H  1.86222264  1.94466434  0.31460558
  H  0.46688676 -1.15664201 -1.77171400
  H -1.17292358 -0.95542068  1.69221243
  H -2.33384183  0.29279027  1.21489678
  H -0.61023233  0.68812245  1.35047116
