8
opt_min/./Product_1678_0_opt.xyz
  C -0.64159000  0.65663000 -0.02025600
  H -0.99490637  1.65970023 -0.04511857
  C -1.15849189 -0.58052244  0.00116721
  H -2.11930850 -1.05606576  0.00200889
  O  0.03770446 -1.29084438  0.02795086
  C  0.67462534 -0.00720951  0.00669775
  N  1.86425472  0.31841485  0.01127894
  H  2.53765436 -0.44060703  0.03403156
