11
opt_min/./Reactant_1678_0_opt.xyz
  O -0.94809800  1.30451000 -0.74035200
  C -0.53778882  0.36241396  0.20190655
  H -0.91836562  0.60028655  1.20282959
  C -0.74668133 -1.10114621 -0.23057908
  H -1.09880546 -1.21201209 -1.25565334
  H -1.33076137 -1.72922741  0.44147619
  O  0.65894222 -1.35786624 -0.11517752
  C  0.92516034 -0.04571744  0.19702956
  N  1.98303095  0.57432006  0.38659932
  H  2.83391142  0.03251024  0.30085044
  H -0.51202723  2.14172287 -0.55170875
