15
opt_min/./Product_11381_0_opt.xyz
  C  1.56537200 -0.17238500  0.43565400
  C  0.15590309 -0.00206628 -0.05907946
  C -0.59536038 -1.21475364 -0.58963619
  H -0.23782841 -2.15563516 -0.16050999
  H -0.55115559 -1.32449856 -1.67412820
  C -2.03224858 -1.02539920 -0.15514194
  O -2.12230428  0.03313058  0.55278568
  C -0.91040183  0.76022719  0.68425784
  H -0.81195986  1.28303767  1.62272808
  C -0.35930231  1.29402604 -0.60970734
  H  0.26853810  2.17222222 -0.54734150
  H -1.01376158  1.27881714 -1.47131091
  H  1.57340073 -0.72730531  1.37456348
  H  2.03456616  0.79528988  0.60490729
  H  2.15667065 -0.72484316 -0.29281722
