13
opt_min/./Product_3790_0_opt.xyz
  C -1.99916400  0.33289400  0.86428800
  N -0.97455360 -0.10328524 -0.00091275
  C -0.67804329 -0.64445699 -1.27875297
  H -0.85660318 -0.03709628 -2.16699964
  H -0.81385685 -1.71428792 -1.43285474
  C  0.34436321 -0.18269572 -0.29535612
  C  1.56297802  0.04720217  0.03408426
  C  2.78894780  0.27894754  0.39631760
  H  3.38076134 -0.45389943  0.93003022
  H  3.29586770  1.20467591  0.16967075
  H -2.81769821 -0.39510326  0.87769538
  H -2.41355676  1.31206039  0.56965116
  H -1.60055777  0.42235641  1.87835507
