16
opt_min/./Product_7645_0_opt.xyz
  C -0.90951700  1.28242900 -0.48033200
  C -0.14370529  0.04562989 -0.00970761
  C -1.06357828 -1.18061379 -0.01050777
  H -1.39067447 -1.39177172 -1.02615873
  H -1.94241051 -0.99262582  0.60056135
  H -0.54826933 -2.05557798  0.37472366
  C  1.12809966 -0.20704985 -0.77841147
  H  1.16783709 -0.39394295 -1.83155211
  C  2.14556096 -0.15747329  0.08712350
  H  3.19542331 -0.29426901 -0.09417582
  N  1.72621218  0.11569842  1.39716307
  C  0.45938487  0.23897002  1.36269214
  H -0.11263365  0.45035472  2.24942505
  H -1.65955651  1.56537944  0.25220017
  H -0.22243990  2.11871736 -0.59799010
  H -1.39068799  1.09263411 -1.43418059
