13
opt_min/./Product_2038_0_opt.xyz
  O  2.49506700  0.08829900  0.03360300
  C  1.16749319  0.20388324  0.00730035
  N  0.55930440  1.31186646 -0.05265292
  C -0.86472785  1.07496437 -0.08018197
  H -1.24099434  1.34702340 -1.07170820
  H -1.35143749  1.73041096  0.64666621
  C -1.07872558 -0.42691783  0.23641965
  H -1.83706591 -0.87042460 -0.40346995
  H -1.40307518 -0.55277833  1.27054641
  C  0.30989999 -1.03617399  0.02885972
  H  0.61514952 -1.71898200  0.81936677
  H  0.41257931 -1.54932295 -0.93065014
  H  2.88669133  0.97262553  0.00063277
