15
opt_min/./Product_9342_0_opt.xyz
  C  3.06236474  1.17834078 -0.09902413
  N  2.15507056  0.23350176  0.47411938
  N  0.97166843  0.33543368  0.05241315
  C  0.14192712 -0.71441517  0.38278422
  C -1.10877326 -0.72963508 -0.01794397
  C -2.36377309 -0.70076840 -0.33030443
  C -3.42352303 -0.01506715  0.47922514
  H -3.93602598  0.73156238 -0.12568406
  H -4.15932253 -0.74826336  0.80765930
  H -2.99070519  0.46761417  1.35093494
  H -2.70926825 -1.21445915 -1.21989675
  H  0.57785312 -1.59669036  0.85610230
  H  2.59585636  1.80102598 -0.86985772
  H  3.90718788  0.62617928 -0.51594507
  H  3.44560939  1.80353378  0.70890674
