12
opt_min/./Product_9697_0_opt.xyz
  C  1.79081000  0.53709700  0.08848700
  C  0.53500270  0.15592197  0.01486151
  C -0.75858934  0.71056840  0.56511509
  H -1.08028933  1.65338333  0.12363127
  H -0.83071013  0.80488613  1.64643156
  C -1.46051149 -0.49031428 -0.04563923
  O -2.58909578 -0.88084592 -0.05961171
  C -0.16306935 -1.01268382 -0.65139905
  H -0.16063570 -0.97261653 -1.73988767
  H  0.13646101 -2.00744674 -0.33470657
  H  2.06836617  1.42592772  0.63183202
  H  2.58831990 -0.01160979 -0.38016513
