15
opt_min/./Reactant_8738_0_opt.xyz
  N  2.79981500  0.31905500 -0.41026400
  C  1.77339281  0.08241518  0.46209099
  O  1.94514105 -0.05585251  1.65325111
  N  0.55267661 -0.02067419 -0.13564900
  C -0.63584019 -0.30050780  0.64197378
  C -1.85448268 -0.36345940 -0.27116251
  O -2.06076878  0.83299722 -0.98788617
  H -1.87565524  1.57676348 -0.40493514
  H -2.74649966 -0.60941322  0.32319198
  H -1.71876809 -1.14631125 -1.02214467
  H -0.76866634  0.48891896  1.39229710
  H -0.51144163 -1.25103137  1.16806333
  H  0.46105479  0.09321108 -1.12875179
  H  3.71175479  0.47618072 -0.02693581
  H  2.65217182  0.47077105 -1.38840236
