13
opt_min/./Product_9877_0_opt.xyz
  C -2.00410800  0.51347400  0.67568700
  C -1.23362452 -0.33797924 -0.27952229
  C  0.03119698 -0.60617160 -0.16999873
  C  1.29826020 -0.87637838 -0.06188104
  C  2.34329267 -0.00161774 -0.66628408
  H  2.27882051  0.10590112 -1.75907960
  O  3.61476521 -0.02781760 -0.14063559
  O  2.79096821  1.11134061  0.01146919
  H  1.67322463 -1.71913277  0.49107044
  H -1.79357235 -0.74091232 -1.11234671
  H -1.36190360  0.92934486  1.44846317
  H -2.78391196 -0.08613796  1.14763857
  H -2.48085378  1.33237528  0.13739771
