11
opt_min/./Product_5455_0_opt.xyz
  O  0.76663100  1.15364800  1.42586900
  C  1.29436390  1.02912704  0.36074697
  O  1.11095435  0.04769393 -0.50923879
  C  0.08530014 -0.88238598 -0.18687356
  C -1.28346598 -0.32184111 -0.43347169
  N -1.42683915  0.84155401 -0.86874454
  H -2.38383127  1.15782048 -0.99968743
  H -2.09127544 -1.02628543 -0.18802518
  H  0.24914600 -1.76236034 -0.81626741
  H  0.16077846 -1.17173429  0.86983140
  H  2.05685298  1.72164823 -0.03773921
