10
opt_min/./Product_10611_1_opt.xyz
  O  2.15253048  1.56674211  0.28272204
  C  1.65302130  0.61200124 -0.13004892
  C  0.99195885 -0.56092561 -0.32255621
  H  1.38047409 -1.36573856 -0.92772726
  C  0.17442167 -0.74793239  0.93839507
  H  0.27494340  0.01512064  1.70789614
  C -0.54757382 -0.32450912 -0.29358528
  C -1.02388973  1.00583315 -0.46855527
  N -1.40477175  2.08618031 -0.50880077
  H -1.10290409 -1.07455894 -0.84978479
