12
opt_min/./Reactant_10611_0_opt.xyz
  O  2.07422679  1.13413125 -1.40199610
  C  1.35448396  0.68247826 -0.55371310
  C  0.06876065  0.01481998 -0.83085137
  H -0.24310771  0.07520824 -1.86603672
  C -0.25514857 -1.25064184 -0.07286866
  H -0.75516460 -2.04114991 -0.60912862
  H  0.46190856 -1.58093587  0.66297896
  C -1.02746088 -0.00136702  0.22389298
  C -0.81676358  0.65857792  1.46646866
  N -0.65763214  1.17119856  2.47709502
  H -2.04814855  0.07526535 -0.13250766
  H  1.63285217  0.72503523  0.51751047
