12
opt_min/./Product_5779_0_opt.xyz
  C -1.14852600 -0.19591300 -0.26051200
  H -2.12846438 -0.19204248  0.20764743
  H -1.16325184 -0.44756631 -1.31793153
  C -0.29570254  1.00521204  0.20233659
  H -0.67571689  2.02014263  0.23445120
  C  1.03419587  0.69002069 -0.47931161
  H  1.65860458  1.36611569 -1.02573423
  C  1.18174783 -0.59515917 -0.17792880
  H  1.96787124 -1.28335558 -0.40697368
  C -0.08829144 -0.85240949  0.64226995
  H -0.22287005 -1.80868453  1.13509728
  O -0.12864971  0.32991167  1.47253949
