12
opt_min/./Product_5978_1_opt.xyz
  O -1.50805500 -0.42847600 -0.80567500
  C -0.75453048 -0.92217516  0.26497530
  H -1.25164671 -1.64508222  0.89998913
  C  0.73362803 -1.03919110 -0.01815411
  H  0.91711709 -1.65798603 -0.90080477
  H  1.27648123 -1.47291799  0.82513296
  C  1.13544444  0.38465346 -0.28643873
  H  2.14020745  0.63354116 -0.58323436
  C  0.12430351  1.23599740 -0.15233916
  H  0.14775722  2.30081096 -0.28841254
  C -1.11935643  0.49843331  0.18235284
  H -1.92428261  0.95952380  0.74146740
