13
opt_min/./Product_10138_0_opt.xyz
  O -1.12633400  1.46399900  0.76226400
  C -0.57705540  0.24093305  0.52071486
  N -1.33478535 -0.97583356  0.43958875
  H -2.32608814 -0.80501140  0.30518541
  C -0.50330534 -0.60711452 -0.70776900
  H -0.86443447 -0.45114343 -1.71350805
  C  0.90236241 -0.95162585 -0.27269508
  H  1.30953570 -1.95086148 -0.28570789
  C  1.68451307  0.28207264 -0.09222452
  H  1.45529269  1.16021699 -0.68420927
  H  2.71839901  0.17423506  0.19647912
  N  0.77416184 -0.12335248  0.96068668
  H -1.07472183  2.03510219 -0.01103929
