16
opt_min/./Product_9961_0_opt.xyz
  C  2.70321500 -0.04377000  0.15958100
  C  1.30581595 -0.46492892  0.55645619
  C  1.03913298 -1.06050984  1.67979387
  C  0.22640535 -0.10070066 -0.44460413
  N -1.06609978 -0.56213704 -0.01512240
  C -2.22382892 -0.03947064 -0.69914813
  H -2.99109738 -0.76859355 -0.91413406
  H -2.08722736  0.71092479 -1.47226925
  C -1.92895173  0.33636749  0.69966011
  H -2.49574851 -0.11099326  1.50221253
  H -1.57521621  1.34421741  0.89472779
  H  0.26519213  0.99577407 -0.60149139
  H  0.45729902 -0.59007040 -1.39708530
  H  2.77667242  0.03071198 -0.92316870
  H  2.93228555  0.92690286  0.59681605
  H  3.43197929 -0.76269199  0.52252862
