14
opt_min/./Product_7023_0_opt.xyz
  C -1.94821500 -0.70557400 -0.09970000
  C -0.64592023  0.02809839 -0.08930555
  C  0.50927120 -0.59163962  0.23220605
  C  1.83978138 -0.02894821  0.27398125
  N  2.79535679 -0.78937118  0.60179079
  H  3.71472057 -0.35356200  0.61702404
  H  1.95529225  1.03260875  0.01934580
  H  0.47994646 -1.63976079  0.50000666
  C -0.73048026  1.44768343 -0.46830748
  O -1.76012934  2.02359058 -0.71657480
  H  0.23304837  1.98848210 -0.51906590
  H -1.92116121 -1.57547003  0.55012352
  H -2.75104902 -0.03795973  0.20452320
  H -2.17191680 -1.03812180 -1.11356488
