15
opt_min/./Product_11908_0_opt.xyz
  O  1.12476300 -1.44694400 -0.64713500
  C  0.57410662 -0.48059671  0.21980613
  H  0.18383960 -0.96445100  1.12578590
  C  1.55758094  0.65896219  0.58343657
  H  2.50957228  0.53478864  0.06343200
  H  1.76501416  0.73319012  1.64998218
  C  0.92166390  1.92665841  0.08030806
  O -0.16941913  1.65432696 -0.50084713
  C -0.55167666  0.25079204 -0.52983364
  C -1.93222808  0.10032844  0.08146108
  H -2.65328810  0.68874584 -0.47977480
  H -1.92580980  0.44522489  1.11387462
  H -2.23419681 -0.94312871  0.05906233
  H -0.55403329 -0.05789851 -1.57959180
  H  1.84269638 -1.90389471 -0.19681750
