12
opt_min/./Product_5850_0_opt.xyz
  O -1.79767314 -0.28290168 -1.89920595
  C -0.93448222 -0.28843508 -0.83617922
  C -0.80836440  0.76122487 -0.04053867
  C  0.10473499  0.82983161  1.14932156
  C  1.03395655 -0.27929496  1.24482652
  C  1.81416883 -1.18319421  1.32847821
  H  2.49405180 -1.97588468  1.40790064
  H -0.49472259  0.85769250  2.06875114
  H  0.67993192  1.76169907  1.10404745
  H -1.40481693  1.64354256 -0.22574137
  H -0.35101344 -1.18790599 -0.68580466
  H -1.72197446 -1.10416887 -2.39203941
