16
opt_min/./Product_11703_0_opt.xyz
  C -1.91092800  0.44384900  0.34105500
  H -2.28427355  0.94144146 -0.58122814
  H -2.66383795  0.63007110  1.11044645
  C -0.64207604  1.17242271  0.53818848
  C  0.37119761  0.21247672  0.18028846
  C -0.22707911 -1.18172306 -0.02198824
  H  0.15344229 -1.87003023  0.74750505
  H  0.01808279 -1.60611305 -1.00646061
  N -1.64716558 -0.97560928  0.20002837
  H -2.26709623 -1.48122238 -0.41046818
  C  1.42977838  0.76902514 -0.78463264
  H  1.35402960  1.81545280 -1.04157223
  H  1.71327800  0.12223367 -1.60094572
  C  1.81527918  0.40940640  0.59258550
  H  2.02077292  1.20579891  1.29268062
  H  2.38291833 -0.49495056  0.75608810
