15
opt_min/./Reactant_2231_0_opt.xyz
  C -1.79747000  0.21112600  0.39726900
  C -0.87900187 -0.20428789 -0.74836539
  C  0.51800951 -0.62643289 -0.28896564
  C  1.33045318  0.51239379  0.33025256
  O  2.60713362  0.09856190  0.76182194
  H  3.06025068 -0.31121897  0.01831111
  H  0.84621002  0.89212729  1.23161103
  H  1.41481944  1.34039699 -0.38866347
  H  0.43835392 -1.43475353  0.43909947
  H  1.06884328 -1.00978331 -1.15232168
  H -0.78988305  0.61674082 -1.46063886
  H -1.33336285 -1.04542541 -1.27260391
  H -2.76219873  0.52588812  0.01202512
  H -1.95672675 -0.61823705  1.07780513
  H -1.37414848  1.03515440  0.96043056
