14
opt_min/./Product_7137_0_opt.xyz
  N -0.77343362  4.85658962 -0.08890667
  C -0.24071642  3.84840324  0.32369689
  C  0.47562848  2.76010246  0.32084394
  C -0.00155361  1.34646626  0.36929455
  H  0.82373726  0.70040980  0.66855281
  C -1.29574824  1.03825123  1.14298349
  H -1.89054439  1.92239140  1.39769875
  H -1.19927609  0.39289219  2.01877690
  O -1.84590912  0.34596471  0.02215919
  C -0.77330741  0.75222557 -0.82867629
  H -0.30580024 -0.09553965 -1.33736430
  H -1.10219088  1.49288199 -1.56338342
  H  1.54643114  2.91142719  0.32371963
  H -1.15068486  5.55991483  0.53054606
