15
opt_min/./Product_5892_0_opt.xyz
  C -0.78196100 -1.08561500 -0.71734000
  C -0.35491108  0.02672716  0.21969841
  C -1.31347616  1.18756845  0.35573623
  H -1.51610870  1.60861975 -0.62431072
  H -2.25076320  0.85390320  0.79112777
  H -0.89377690  1.96112653  0.99227652
  C  1.08374673  0.21955645  0.47304426
  N  2.04714639 -0.60942118 -0.17768317
  H  2.64386461 -0.05201602 -0.77269985
  H  2.60467820 -1.11861125  0.49335162
  H  1.41889994  1.22326449  0.76454477
  O  0.26948120 -0.39623861  1.41824006
  H  0.07950993 -1.45527851 -1.26391509
  H -1.19907399 -1.90594634 -0.14307996
  H -1.52846057 -0.72599000 -1.41841764
