12
opt_min/./Product_10850_0_opt.xyz
  C -1.10907500 -0.90624000  0.13007600
  C  0.01108897  0.06530885  0.03083789
  C  0.03125554  1.44392681 -0.01877710
  H -0.85241610  2.05492099 -0.04314778
  C  1.35931563  1.92511788 -0.00073626
  C  2.14220475  0.66197572  0.02798898
  H  2.74788862  0.60562017  0.93601893
  H  2.80709711  0.55743352 -0.83110778
  O  1.22869392 -0.45748521  0.04303123
  H -1.55928212 -1.05020715 -0.85270503
  H -0.73443244 -1.86093796  0.48847401
  H -1.88035345 -0.53070615  0.79926507
