10
opt_min/./Product_4474_0_opt.xyz
  O  2.25555000  0.32355100  0.12293800
  C  0.88842354  0.00844364  0.23166269
  C  0.10527399  0.79977688 -0.74114462
  O -1.20780314  0.72416950 -0.71436892
  C -1.98009478 -0.02321297  0.12581695
  O -1.60510395 -0.76750416  0.97681712
  H -3.03878754  0.17352795 -0.11181193
  H  0.53990277  0.23315965  1.25865264
  H  0.70489371 -1.06676075  0.08357407
  H  2.78724808 -0.42174156  0.42068448
