17
opt_min/./Product_6448_0_opt.xyz
  C -1.71693400 -0.49257900  0.48573700
  H -1.79500433 -1.30869169  1.21458602
  H -2.66483212  0.04884196  0.44197939
  O -1.43836654 -1.00932174 -0.80613826
  C -0.06446187 -0.82677491 -1.11073270
  H  0.02215952 -0.09537226 -1.92913263
  H  0.35610861 -1.77368204 -1.45846581
  C  0.61541640 -0.31075792  0.16517707
  C  1.87095112  0.51677789 -0.07304025
  H  1.70142050  1.30102030 -0.80771429
  H  2.67536690 -0.11731176 -0.43665751
  H  2.18919843  0.98252303  0.85607117
  H  0.85818233 -1.16858545  0.79821226
  C -0.54599753  0.43682587  0.84440714
  O -0.74962699  1.74555720  0.37797339
  H -0.51055652  1.78695146 -0.55441930
  H -0.41435524  0.53182382  1.92537699
