8
opt_min/./Product_1958_0_opt.xyz
  N  0.01436000  0.57486700  0.01708000
  C -1.22910410 -0.02647511 -0.04400282
  O -1.45462476 -1.19428966 -0.08559896
  H -2.02952313  0.73877035 -0.05008791
  C  1.23424329 -0.07977704  0.04111933
  O  1.41267427 -1.25624118  0.01348005
  H  2.06316400  0.65276802  0.09140822
  H  0.03949714  1.58371924  0.04705349
