13
opt_min/./Product_8072_1_opt.xyz
  C  2.09330500  0.14306900  0.19545700
  C  0.89003540  0.30687877 -0.31454557
  C -0.33387856 -0.45585122  0.11241775
  C -1.55307320  0.46073564  0.18960747
  H -1.34875078  1.27852829  0.86987714
  H -1.77506632  0.85429009 -0.79871208
  H -2.43386302 -0.07564924  0.53453646
  O -0.52543254 -1.48834561 -0.84961712
  H -1.35222424 -1.93864232 -0.64858271
  H -0.15269489 -0.91781949  1.09557367
  H  0.72416944  0.99831399 -1.13040008
  H  2.95055139  0.68801337 -0.15479111
  H  2.27906473 -0.54586343  1.00225017
