11
opt_min/./Product_194_0_opt.xyz
  C  1.72962700  0.25872800 -0.07832200
  C  0.50234586 -0.50382205  0.05266341
  N -0.13488010 -1.56343688 -0.09111994
  C -0.90234117 -0.40669667  0.51025397
  C -1.88710305  0.29252580 -0.31413937
  O -2.78179888  0.97332735  0.11474076
  H -1.73346265  0.15281615 -1.40562804
  H -1.11973934 -0.44635880  1.57251591
  H  1.60834976  0.98895374 -0.88004915
  H  2.56648553 -0.39595126 -0.31494096
  H  1.92781226  0.80505426  0.84342040
