15
opt_min/./Product_11151_0_opt.xyz
  C  1.83521989 -1.25910513 -0.12601541
  C  1.25693572  0.07992655 -0.56524905
  C -0.17703873  0.24791260 -0.12739298
  O -0.77445669 -0.79070411  0.38053664
  C -1.99695597 -0.88080019  0.79886365
  H -2.67065131 -0.04282755  0.76439842
  H -2.28002580 -1.83591234  1.19308242
  C -0.80987855  1.48198080 -0.30477533
  C -1.37619650  2.53621089 -0.45552282
  H -1.84695569  3.46129974 -0.60279478
  H  1.85302019  0.89846555 -0.15049181
  H  1.31519387  0.16602913 -1.65699984
  H  1.28559230 -2.08299496 -0.57512176
  H  1.78261961 -1.36214259  0.95568700
  H  2.87659311 -1.33174451 -0.43018440
