11
opt_min/./Product_5232_0_opt.xyz
  C  1.88016200 -0.20703400  0.04759100
  N  0.51590668 -0.50178231 -0.24703166
  C -0.41116976  0.22536062  0.18059021
  C -1.83467400 -0.06958440 -0.13602447
  H -1.90543552 -1.01399914 -0.66950192
  H -2.42952323 -0.09992602  0.77368778
  H -2.23219055  0.72355700 -0.77242452
  H -0.23278862  1.12296678  0.79854105
  H  2.41274093 -0.07942268 -0.89667849
  H  2.30707722 -1.07382071  0.55682690
  H  2.02068027  0.68962314  0.66974002
