11
opt_min/./Product_8702_0_opt.xyz
  O -2.26118854  1.72234277 -0.81025764
  C -1.37996440  1.39290123 -0.06241220
  C -0.39384199  0.31370433 -0.37776355
  C  0.59908756  0.08788292  0.61865429
  N  1.50389387 -0.81340943  0.45797321
  C  2.32117633 -1.61801646  0.25162114
  H  3.04079685 -2.35645907  0.07243653
  H  0.60984566  0.64776602  1.53728297
  N -0.44173350 -0.35718336 -1.47118568
  H -1.21227388 -0.06417620 -2.06988624
  H -1.24970121  1.87631120  0.92547159
