12
opt_min/./Product_7285_1_opt.xyz
  O -1.56824800 -1.04051700  0.29425000
  C -0.51146578 -0.43042654 -0.39909255
  H -0.71986523 -0.61362357 -1.45739942
  C -0.32611419  1.07646794 -0.10855106
  H -0.97028226  1.42061780  0.70190727
  H -0.53269372  1.70995609 -0.97557829
  N  1.04552612  1.28792538  0.26808339
  C  1.68367951  0.19618045  0.29487473
  H  2.72252350  0.13257482  0.56414040
  C  0.87537370 -1.00026928 -0.05780507
  O  1.22409870 -2.15011606 -0.05923340
  H -1.35267303 -1.11549565  1.23003856
