7
opt_min/./Reactant_130_0_opt.xyz
  O -1.00819500 -1.39438599 -0.57550001
  C -1.04529507 -0.28763276 -0.13149512
  C  0.18888431  0.55804445  0.21674923
  O  0.09950854  1.66605112  0.67424074
  C  1.45223843 -0.11606219 -0.01802949
  N  2.45369565 -0.63679029 -0.20441221
  H -1.98830291  0.25984190  0.05983245
