16
opt_min/./Product_667_0_opt.xyz
  C -1.00723700  1.31347800 -0.29747100
  C -0.25090279 -0.00601403 -0.43115152
  C -1.22321066 -1.16176436 -0.62922948
  H -1.85542090 -0.97261331 -1.49358093
  H -1.84261158 -1.29231861  0.25307389
  H -0.68096488 -2.08612072 -0.82429594
  C  0.86399389 -0.22380767  0.61699954
  H  0.88226104  0.48766258  1.44047800
  H  0.89807925 -1.22799692  1.02864856
  C  1.86946468  0.02770844 -0.51167863
  H  2.59547670 -0.75624518 -0.72866653
  H  2.42155838  0.96486145 -0.46186999
  C  0.78254229  0.11070194 -1.54823605
  H -0.33335751  2.11185894  0.00768795
  H -1.43852993  1.58602778 -1.25687411
  H -1.79839220  1.22839707  0.44443994
