14
opt_min/./Product_6638_0_opt.xyz
  O  3.89978200 -0.03445800  0.50380100
  C  2.77133529  0.35016626  0.67696120
  C  1.58291018 -0.27344264  0.08922544
  N  0.44246382  0.22450152  0.32559761
  C -0.71832066 -0.31829816 -0.20059271
  H -0.61600378 -1.20129681 -0.83738871
  C -1.96205636 -0.20841129  0.65251026
  H -1.84994566  0.23221030  1.63003131
  H -2.65109669 -1.03882859  0.61201482
  C -1.82298182  0.66651259 -0.53781898
  H -2.41016444  0.46197691 -1.41905056
  H -1.59388288  1.70740303 -0.37420490
  H  1.75020161 -1.15771510 -0.53902663
  H  2.54417585  1.23095080  1.30599094
