14
opt_min/./Product_7119_0_opt.xyz
  N -2.44745600 -0.39620200  0.26132700
  C -1.21711838 -0.33969668  0.01883751
  O -0.38912164 -1.40071081  0.12101536
  C  0.99512848 -1.19832444 -0.13700258
  H  1.49887877 -2.06599493  0.29504968
  H  1.16015085 -1.20404462 -1.22840295
  C  1.48473884  0.09154908  0.44818060
  H  2.43426449  0.10071754  0.95788492
  C  0.69537938  1.14866650  0.33520713
  H  0.93624412  2.11065837  0.75794582
  C -0.60173442  0.97882961 -0.38950424
  H -0.41243067  0.93288621 -1.46898412
  H -1.31143327  1.77990514 -0.19545212
  H -2.78458091 -1.31522251  0.53480911
