10
opt_min/./Product_4614_0_opt.xyz
  N  1.65712900  1.02462500  0.07493900
  C  0.62555333  0.27883364  0.01668750
  C  0.38026042 -1.15568106 -0.13228842
  H  1.11961787 -1.92349787 -0.23051628
  N -0.88981599 -1.42005284 -0.13373528
  N -1.54141470 -0.29418912  0.00111644
  H -2.54017959 -0.20568111  0.03183092
  N -0.65869087  0.77458347  0.09724761
  H -0.93355920  1.73137402  0.20591081
  H  2.52277271  0.50065091  0.00023866
