19
opt_min/./Product_7439_0_opt.xyz
  C  2.29387100  0.17698700 -0.46786300
  C  1.02965587  0.60546851  0.26874237
  C -0.23178803  0.21585762 -0.48769862
  H -0.21408562  0.68016112 -1.47590985
  C -0.55685713 -1.28947354 -0.55449068
  H -0.57047833 -1.70928985 -1.55733742
  H  0.09550585 -1.89883857  0.06674845
  C -1.94359478 -1.05903224  0.06869393
  H -2.77327772 -1.24182250 -0.60772713
  H -2.12409320 -1.58301078  1.00208167
  C -1.58273038  0.43310417  0.25918838
  C -1.78000767  1.05624996  1.53589139
  H -1.04296932  1.85767181  1.71559834
  H -2.27558627  1.09422476 -0.29147922
  H  1.04039618  1.69031082  0.40246627
  H  1.00734185  0.14670326  1.25999059
  H  2.33391109 -0.90401027 -0.56642301
  H  2.32176843  0.61468201 -1.46293057
  H  3.17792799  0.50435132  0.07312899
