13
opt_min/./Product_7932_0_opt.xyz
  C  1.53289673 -0.73855542 -0.25081723
  H  1.79929715 -1.05991260 -1.26092500
  H  1.89829634 -1.46604232  0.47558516
  C  1.78442526  0.72614011  0.07609835
  H  2.64546454  1.34422149  0.19070074
  C  0.44066007  0.88749091  0.18710644
  N -0.69395724  1.64268679  0.41849583
  C -1.66931460  0.83470750  0.27131007
  H -2.69256851  1.15308391  0.39159332
  C -1.29011567 -0.60577716 -0.08872464
  H -1.72315024 -0.89482488 -1.05964981
  H -1.65544195 -1.31480106  0.67044386
  N  0.11489396 -0.41939385 -0.09491647
