10
opt_min/./Product_2364_0_opt.xyz
  O -0.58806136  1.81345690  0.05440843
  C -0.15224125  0.52469295  0.13938110
  C  0.95560143 -0.16349949 -0.14637095
  O  2.17881039  0.02554274 -0.64693449
  H  2.67906595 -0.79282449 -0.53760196
  O  0.49066242 -1.40269573  0.29729221
  C -0.76356542 -0.76876197  0.63447340
  H -0.97873176 -0.85732969  1.69824677
  H -1.57307333 -1.19145096  0.03821313
  H -1.53943580  1.80773601 -0.10183096
