12
opt_min/./Product_612_0_opt.xyz
  C -0.72569600  0.65346600  0.49973500
  H -0.78310923  0.68258399  1.58614804
  H -1.41940724  1.37654084  0.08009712
  C  0.70921696  0.80960618 -0.05335828
  H  0.97538486  1.72227583 -0.57177707
  C  1.72755445  0.15120338  0.88520336
  O  1.57846015 -1.02394510  0.30449269
  C  0.61630059 -0.59536194 -0.66105083
  H  0.86204923 -0.90267804 -1.67501290
  C -0.81821661 -0.74470383 -0.13242950
  H -0.93820673 -1.57231086  0.56443880
  H -1.55489176 -0.83441096 -0.92651502
