9
opt_min/./Product_1711_0_opt.xyz
  O -0.87786896  0.25806261 -1.32411687
  C  0.23218946 -0.32649475 -0.76071506
  C  0.53021794  0.25277496  0.68270784
  C  1.61404418  0.81869105  0.27857576
  N -0.34005809  0.00741868  1.66188164
  C -1.08707673 -0.16723254  2.54600582
  H  1.07490900 -0.15527567 -1.43973765
  H  0.12883625 -1.40930514 -0.60389862
  H -1.63294245  0.20460210 -0.72306595
