16
opt_min/./Product_1502_0_opt.xyz
  C -2.31339700 -0.44606200 -1.18371100
  C -1.42042120 -0.17856314 -0.26541339
  C -0.94236677 -0.32626031  1.11105488
  H -1.45961276  0.20813660  1.89689044
  H -0.55730494 -1.28344989  1.43402309
  C -0.15384395  0.47182367  0.08399235
  C  1.15510953 -0.06458401 -0.46073277
  C  2.36874729  0.47094367  0.31099236
  H  2.09387541  1.34745041  0.89398688
  H  3.16998657  0.75619035 -0.36587631
  H  2.75814214 -0.27475133  0.99964035
  H  1.13205601 -1.15461733 -0.40455191
  H  1.23191738  0.20382099 -1.51692974
  H -0.16035246  1.55173626  0.19497559
  H -3.18253632 -1.04666455 -0.96750700
  H -2.20969125 -0.07028209 -2.18855459
