15
opt_min/./Product_8842_0_opt.xyz
  C  0.04420299  1.51126401 -0.34880596
  C -0.08263463  0.17146923  0.36307352
  C  1.00314149 -0.82029454 -0.10852857
  C  2.32566920 -0.31294257  0.14837098
  N  3.37062373  0.10291123  0.35142622
  H  0.87658883 -1.76797345  0.42253879
  H  0.90532335 -1.00280971 -1.18398533
  N -1.39370865 -0.41374141  0.11420213
  C -1.97817380 -1.14331941  1.00652554
  H -2.95030171 -1.51003711  0.62557507
  H -1.73953297 -0.19815541 -0.83136553
  H  0.01696366  0.30053577  1.44632677
  H -0.74264696  2.18909166 -0.02348255
  H -0.02467138  1.38498128 -1.42971071
  H  1.00697872  1.96414493 -0.12216398
