8
opt_min/./Product_5765_0_opt.xyz
  O  0.17353000 -0.85456200  0.41766800
  C -0.99759842 -0.13368237 -0.00465342
  H -1.56659860 -0.73321591 -0.71508521
  H -1.62908606  0.07970738  0.86040506
  C -0.48990334  1.14860227 -0.59916357
  N  0.86632467  1.06856557 -0.47206854
  C  1.15820166 -0.06013612  0.09494729
  H  2.16357092 -0.38521370  0.31923573
