10
opt_min/./Product_3163_0_opt.xyz
  N -1.49097325 -0.45389066  0.88167049
  C -6.38747715 -13.58394097  14.06065181
  C -3.79399055 -13.16020339 -13.37067393
  C -6.89433777 -5.03376861  3.08159811
  H  14.72445207  1.80328297  0.83706064
  H -13.21248025  7.04549058  4.26993364
  C -6.23486370 -11.57487578  0.91096304
  N  8.38408471  3.73222270 -3.58973557
  H  4.79004873  4.73583254 -3.24902562
  H  9.50442004 -4.80696382 -7.45071497
