12
opt_min/./Product_555_0_opt.xyz
  C -2.29371654  0.31117199  0.26957282
  C -1.00437967  0.89270596 -0.21498470
  C  0.16075460  0.28849050 -0.16708217
  C  1.30790540 -0.18709803  0.02934802
  C  2.52451253 -0.61851886  0.29235821
  O  3.64897561 -0.10769949 -0.27945444
  H  3.43544116  0.71466706 -0.73648388
  H  2.66939420 -1.63954859  0.61638622
  H -1.07080949  1.82017242 -0.77190531
  H -3.03356623  0.32521534 -0.52970315
  H -2.68516213  0.90925825  1.09516852
  H -2.15949978 -0.71107315  0.61458945
