13
opt_min/./Product_2255_0_opt.xyz
  C  0.83298600 -1.00023800  0.21644500
  H  0.89773140 -1.47005059  1.19861654
  H  1.39721043 -1.61490090 -0.49079819
  C  1.36447710  0.40297143  0.27173273
  H  2.36902894  0.62976232  0.57655846
  C  0.44213687  1.28638916 -0.07221751
  H  0.52455540  2.35862290 -0.12471262
  N -0.80433563  0.66925254 -0.35534978
  H -1.32393216  1.02348364 -1.15587070
  C -1.48071181 -0.08146273  0.78346223
  H -2.54476913 -0.17595085  0.50040114
  C -0.62043398 -0.79575308 -0.18778527
  H -0.96605522 -1.38800248 -1.03875962
