16
opt_min/./Reactant_5022_0_opt.xyz
  C  2.50513100  0.17718400 -0.77271400
  O  1.15864694  0.17540721 -1.15963197
  C  0.27918924 -0.13875135 -0.11466576
  C -1.16269705 -0.10934852 -0.63929278
  C -2.14226780 -0.59660587  0.44536813
  H -2.60738763  0.26202739  0.92311387
  H -2.93443147 -1.19436206  0.00931545
  H -1.62852248 -1.18251079  1.19939250
  O -1.51478080  1.16529780 -1.11488478
  H -1.32374717  1.82222072 -0.43453568
  H -1.21639937 -0.74159661 -1.52795185
  H  0.49390621 -1.14053178  0.29001375
  H  0.38993701  0.59305750  0.70809328
  H  3.07736967  0.42916946 -1.66078079
  H  2.81488609 -0.81713297 -0.41936953
  H  2.70240809  0.90708746  0.02090544
