16
opt_min/./Product_495_0_opt.xyz
  C -1.66622300 -0.03077900  0.83352300
  C -0.89769820  0.69073642 -0.27041995
  C  0.44174998  0.00412532 -0.55639371
  C  1.31626008 -0.16238351  0.61275897
  C  2.72732286 -0.41226116  0.27325597
  H  2.90377019 -1.44442978  0.59027179
  H  3.36813051  0.19677475  0.90878372
  H  3.01384665 -0.29574449 -0.77829974
  H  0.91105904  0.45882213 -1.44006681
  H  0.22256221 -1.03879447 -0.83256656
  O -1.61616537  0.70685316 -1.49172671
  H -2.49771098  1.05035188 -1.31996907
  H -0.69387127  1.72710210  0.04762852
  H -2.55325726  0.53180334  1.11867761
  H -1.02446868 -0.14714907  1.70076813
  H -1.97484926 -1.01438343  0.48742679
