15
opt_min/./Product_11742_0_opt.xyz
  C -1.69707200 -0.47572200 -0.11508500
  C -0.22384021 -0.20287814 -0.05348988
  C  0.16635480  1.24276821 -0.27540066
  O -0.32927221  2.09783694  0.72925828
  H -1.28181522  2.20554001  0.63592359
  H  1.24816425  1.37158716 -0.25299104
  H -0.19449209  1.55281875 -1.26556791
  C  0.64254601 -1.20608601  0.14019289
  C  2.09355858 -1.13252701  0.21958996
  O  2.80808688 -2.09818606  0.34662961
  H  2.53982719 -0.11784088  0.16514039
  H  0.25858155 -2.21029003  0.26368393
  H -1.96966415 -1.28953284  0.54976309
  H -1.96767633 -0.76666558 -1.12986458
  H -2.28299701  0.40004904  0.14678409
