13
opt_min/./Product_7972_0_opt.xyz
  N  2.60479500  0.04159800  0.15157200
  C  1.34866858  0.11975977  0.05128115
  O  0.67479340  1.29591576  0.16287802
  C -0.72944298  1.31881745 -0.06242085
  H -1.09721646  2.18256818  0.50027914
  H -0.94949841  1.51206816 -1.13680137
  C -1.54890358  0.12985112  0.08653961
  C -0.78435002 -1.11703293  0.06755005
  H -1.25073787 -1.79797137 -0.65871232
  H -0.99168076 -1.56185594  1.06114577
  N  0.63029111 -1.01158005 -0.21081650
  H  1.19291005 -1.84778361 -0.15860735
  H  3.06458906  0.93200461  0.29739362
