15
opt_min/./Product_9219_0_opt.xyz
  C  2.37057600 -0.69422900  0.13446800
  C  0.92010093 -0.69884655  0.26211368
  C -0.02613205  0.25539091  0.16744168
  C  0.18700146  1.03297229 -0.96331156
  H  1.18040094  1.20682840 -1.33484486
  H -0.62612685  1.25701957 -1.63599701
  C -1.36462184  0.17548095  0.82723284
  H -1.46037758  0.83687026  1.68950603
  C -2.58324060 -0.15266117  0.08004592
  H -2.50582817 -0.41354836 -0.97080528
  H -3.53430774  0.26932623  0.38795248
  O -1.99610770 -1.05978276  0.96779269
  H  2.61957038 -1.09262977 -0.85213619
  H  2.77772564 -1.40408557  0.85737307
  H  2.85101900  0.28143210  0.26902154
