9
opt_min/./Product_518_0_opt.xyz
  C  0.25254500  0.14170500  0.50334600
  C  1.32510845 -0.27076094 -0.14621927
  H  2.30518524 -0.26933025  0.30012362
  H  1.26222475 -0.62928287 -1.16145237
  C -1.12720297  0.16282314 -0.06415439
  H -1.13215589 -0.20305097 -1.08657663
  H -1.79108010 -0.45581189  0.53465902
  H -1.52476202  1.17469372 -0.05006057
  H  0.34785504  0.49642783  1.52255010
