11
opt_min/./Product_8436_0_opt.xyz
  C -0.70420700 -0.84287300  0.08491100
  H -1.10424637 -1.43497685 -0.73907711
  H -1.14105635 -1.22974003  1.00548429
  C  0.78708832 -0.86967010  0.11958667
  H  1.35565090 -1.77381166  0.23923385
  C  1.26327530  0.37623847 -0.01826743
  H  2.29959512  0.65816005 -0.02981736
  C  0.15537778  1.29609308 -0.15101370
  H  0.26390035  2.35824323 -0.27517697
  C -0.99652037  0.61344185 -0.09399976
  H -1.98955937  1.01351851 -0.16243829
