10
opt_min/./Product_1225_0_opt.xyz
  N -1.45850800  1.16754800 -0.22785200
  H -1.44430837  1.63655905 -1.13454744
  H -1.82149637  1.74666348  0.53007405
  C -0.55103697  0.06382593  0.05026256
  C  0.73936238 -0.10196642  0.35500482
  C  1.29577613 -1.40924090  0.56692262
  O  2.45309398 -1.63782881  0.84394779
  H  0.55634578 -2.22666228  0.45093959
  H  1.39300696  0.75119384  0.44808932
  N -1.77413951 -0.26943737 -0.20630465
