12
opt_min/./Product_6268_0_opt.xyz
  O  2.47771000 -0.01305900  0.16261300
  C  2.01347882 -0.34357502 -1.00211686
  O  0.75222342 -0.62339294 -1.11697517
  C -0.17033403 -0.59887784 -0.03138550
  H -0.03386588 -1.43155268  0.65274345
  C -1.56471696 -0.14425454 -0.32534937
  H -2.37343204 -0.67943373  0.14479274
  H -1.77138967  0.18650826 -1.32954402
  C -0.66355141  0.70681408  0.51856338
  H -0.84626855  0.78511134  1.58078957
  H -0.28733653  1.62098264  0.08197363
  H  1.82493695  0.06303365  0.89068345
