10
opt_min/./Product_330_0_opt.xyz
  O  2.12519000  0.00030000 -0.70988600
  C  1.15666790 -0.55141091 -0.29735228
  N -0.05538322  0.08730990  0.05822090
  C -0.10124378  1.40722599 -0.08398650
  H  0.73694224  1.89724362 -0.53184547
  H -1.00574409  1.92404601  0.15878014
  C -1.04072512 -0.71278384  0.47912889
  H -0.84192275 -1.74372053  0.68513364
  H -1.98119009 -0.28469269  0.75858207
  H  1.09858230 -1.64555095 -0.15942344
