15
opt_min/./Product_9079_0_opt.xyz
  C  2.34776700 -0.41577900  0.16492200
  N  1.00117772  0.02343424  0.31556110
  C  0.48641240  1.28567746  0.36446970
  H  1.15192531  2.09979760  0.58807261
  C -0.84240526  1.26996244  0.13991331
  H -1.50665796  2.10890678  0.15515230
  C -1.24065089 -0.09416920 -0.13625667
  C -2.44488525 -0.60467179 -0.42841406
  H -3.31192393  0.02321668 -0.47396791
  H -2.57667289 -1.65512977 -0.61320666
  N -0.06426201 -0.81989625 -0.02450205
  H  0.08738408 -1.79428429 -0.20551163
  H  2.45462478 -1.42064375  0.58495955
  H  2.67148602 -0.46017724 -0.88746827
  H  3.00862276  0.25921002  0.70528675
