14
opt_min/./Product_6932_0_opt.xyz
  N -2.39896200 -0.15470900 -0.32755600
  C -1.01941209 -0.02363960 -0.36133361
  C -0.02498753 -0.91462568 -0.36202773
  H -0.08376395 -1.98062851 -0.27309359
  C  1.26096883 -0.15857856 -0.55591054
  N  2.29010769 -0.48061885  0.41473475
  H  2.99086763  0.25205256  0.40978356
  H  2.74398923 -1.35710268  0.18190156
  H  1.59898590 -0.31062698 -1.60690654
  C  0.85795074  1.30906406 -0.57328590
  N -0.45543580  1.26581742 -0.50185807
  H -1.03964128  2.08880171 -0.54271821
  H -2.70999761 -1.04456624  0.03186162
  H -2.87694376  0.62661422  0.09983673
