16
opt_min/./Product_11707_0_opt.xyz
  C -1.74870800 -0.74878700 -0.16108900
  H -2.34118811 -1.01670478  0.71902993
  H -1.44657924 -1.61765705 -0.74006361
  C -1.71917632  0.60184490 -0.80763359
  H -2.40440054  1.30934943 -0.31113814
  N -0.69844011  0.19370355  0.13224246
  C -0.02770541  0.59267089  1.37443324
  H -0.10264211 -0.08194979  2.21952543
  H -0.08203910  1.64455767  1.62708595
  C  0.71567445  0.16195187  0.17627451
  C  1.74484468 -0.80399572 -0.25496686
  H  1.45640498 -1.58450892 -0.94521577
  H  2.49076277 -1.11333817  0.46446828
  C  1.76096112  0.62583382 -0.75599440
  H  1.46067291  0.80653955 -1.77800187
  H  2.52444188  1.29528176 -0.38725972
