12
opt_min/./Product_259_0_opt.xyz
  C  1.19624594 -0.00631903  0.73192409
  N -0.00909628  0.17447734 -0.06711327
  C -0.61159898  1.36834999  0.06877665
  N -1.12999956  2.38812982  0.12036804
  C -0.92142418 -0.96755507 -0.31081879
  H -0.64041072 -1.85656695  0.24434072
  H -1.97799306 -0.71555992 -0.18597559
  C -0.06585197 -0.50097249 -1.42346187
  H -0.63290239  0.15217770 -2.10683292
  H  0.99418457  0.18058189  1.78892240
  H  1.54314259 -1.02853958  0.59151919
  H  1.97104795  0.67791963  0.38430328
