14
opt_min/./Product_10673_0_opt.xyz
  O  2.79467700 -0.38316000  0.22057500
  N  1.53930816 -1.02367543  0.42747779
  C  0.42312020 -0.23140447  0.30828107
  C  0.13273227  1.07312507  0.40755296
  H  0.70271449  1.97007959  0.55019573
  C -1.34905585  0.86761205  0.22390107
  H -1.99874265  1.19373061  1.03669052
  H -1.74226092  1.22799961 -0.72489667
  C -1.02649208 -0.65564991  0.18821813
  O -1.36316277 -1.33432903 -0.99613722
  H -1.92530965 -2.08823039 -0.80400187
  H -1.38833562 -1.18246406  1.07642444
  H  1.52444440 -1.82701383 -0.19484011
  H  2.79827186  0.39291726  0.79487630
