8
opt_min/./Product_2166_1_opt.xyz
  O  1.16401500  1.50113700  0.01712600
  C  1.13205035  0.31092515 -0.15687936
  C -0.07048242 -0.52923302 -0.06711996
  C -1.26115522 -0.01315729  0.22386116
  H -1.35460778  1.04724458  0.39965765
  H -2.14958632 -0.61480066  0.29296238
  H  0.06285147 -1.58525458 -0.24941194
  H  2.05528724 -0.25419263 -0.40594716
