16
opt_min/./Product_3245_0_opt.xyz
  C -1.41678800  1.07528100  0.23304700
  C -0.74540994 -0.23136741 -0.05741379
  C  0.63961866 -0.14219136 -0.63883670
  C  1.68725551  0.07762346  0.46105909
  O  2.99663794  0.15661638 -0.04615466
  H  3.18660424 -0.65061840 -0.53882737
  H  1.51857575  1.03249681  0.96681776
  H  1.61054765 -0.72798862  1.20750502
  H  0.69748972  0.68287990 -1.35170292
  H  0.88337523 -1.07095317 -1.16358632
  C -1.31555039 -1.39673285  0.20306222
  H -2.29944848 -1.46904135  0.63427050
  H -0.82353536 -2.33100405 -0.01297655
  H -2.40876696  0.92011937  0.65014725
  H -0.82348001  1.64970893  0.94403369
  H -1.50696291  1.66494535 -0.67958209
