11
opt_min/./Product_10774_0_opt.xyz
  O  1.37788500  0.88493700 -0.46713000
  C  0.08872351  1.04831695  0.10664676
  H  0.06542387  1.80848862  0.88467692
  C -0.01634434 -0.46804929  0.33682524
  C -1.43317324 -0.35610210 -0.16151099
  H -2.17797457 -0.29478913  0.63803353
  H -1.75019551 -1.04554023 -0.94856969
  O -1.09750495  0.94808223 -0.67214708
  C  1.30605047 -0.51394718 -0.25278053
  H  1.87417639 -1.22220980 -0.82175288
  O  1.06521103 -0.86156276  1.11209009
