11
opt_min/./Reactant_10774_0_opt.xyz
  O  1.28616000 -1.59226400  1.23733200
  C  0.85874917 -1.28777363  0.16515659
  C  0.10100920 -0.01180473 -0.10619347
  C  0.81432061  1.27537511  0.23956495
  O  1.98567292  1.37640926  0.43877421
  H  0.13696165  2.15183773  0.23239901
  C -1.37195064 -0.01638254 -0.18819554
  H -1.91050649 -0.94612806 -0.04447291
  H -1.91042359  0.87976740  0.10751414
  O -0.58977162  0.09027353 -1.33234747
  H  0.97998625 -1.92064211 -0.73525725
