16
opt_min/./Product_8590_0_opt.xyz
  C -0.95557500  1.29939500 -0.24405600
  C -0.18011882 -0.01784522 -0.18520180
  C -1.08569800 -1.20776070 -0.50485465
  H -1.58128756 -1.06403236 -1.46515387
  H -1.84489049 -1.31266859  0.26606157
  H -0.50033485 -2.12509669 -0.53960964
  C  0.58231246 -0.30942799  1.08996145
  H  0.03928805 -0.51861660  1.99713226
  C  1.94000662 -0.33407450  0.93509412
  C  2.08596896 -0.02718889 -0.44791371
  H  3.01542226  0.09007134 -0.98758701
  N  0.93967997  0.04214317 -1.11628390
  H  0.82182179  0.18830651 -2.10889813
  H -0.38363559  2.08886562  0.24188306
  H -1.14366068  1.59185071 -1.27651725
  H -1.90824328  1.19293550  0.26776779
