9
opt_min/./Product_8194_1_opt.xyz
  O -2.24442433 -0.30145732  0.38350705
  C -30.62903034  11.16947044 -8.49565043
  C -39.54775588 -1.70493138  19.45067815
  C -9.59347015  5.15840009 -5.50762868
  C -17.05683584 -2.57254169  1.85804671
  H  9.09285906  4.09258814 -0.16706487
  H -15.39696025 -10.52570978 -7.37806010
  H -12.71407587  8.46525807 -15.40426016
  H -10.06102930  0.61325799  2.67746780
