15
opt_min/./Product_11394_0_opt.xyz
  C  1.93056200  0.69020700  0.08905900
  C  0.64657841 -0.05606852 -0.02648443
  C  0.41270944 -1.19806556 -0.67769474
  H  1.05893689 -1.79029039 -1.30029540
  O -0.84743020 -1.70636082 -0.51088209
  C -1.55842236 -0.77324896  0.24573392
  H -2.30561743 -1.23015669  0.87869332
  C -1.75552419  0.59740598 -0.32828487
  H -1.50129903  0.75139261 -1.36814323
  H -2.61641999  1.14730252  0.01422425
  C -0.61626919  0.35365566  0.63434183
  H -0.60167113  0.84788914  1.59308301
  H  2.41242663  0.48787247  1.04610458
  H  2.61037629  0.39971392 -0.70735761
  H  1.74614534  1.76252321  0.02746821
