12
opt_min/./Product_2008_0_opt.xyz
  C -2.77743100  0.28897401  0.05863200
  C -1.33846654  0.31120913  0.20450621
  C -0.14654399  0.33296421  0.32227251
  C  1.29351401  0.33232579  0.48848524
  C  2.00946141 -0.24389346 -0.69668322
  O  2.94107804 -1.06870616 -0.42537888
  H  3.10999857 -1.28435094  0.53150145
  H  1.56628700 -0.15908071  1.44473605
  H  1.63823277  1.37651688  0.52585511
  H -3.25209244  0.66906537  0.96334254
  H -3.07273122  0.91166117 -0.78532943
  H -3.12068612 -0.73041506 -0.11809926
