12
opt_min/./Product_8980_0_opt.xyz
  N  0.43694617 -2.14112170  1.64734362
  C  0.52675035 -1.71282346  0.31699007
  C -0.28918800 -1.74837350 -0.79417870
  N  0.08703379 -0.58308674 -1.36867966
  C  0.94126981 -0.30132430 -0.20043177
  N  0.33190686  0.60083930  0.58903059
  C -0.35356687  1.36390747  1.15440474
  H -0.94391042  1.97988055  1.76145809
  H  1.97989652 -0.04463226 -0.38549402
  H -0.97193491 -2.47008629 -1.20686287
  H  1.29473462 -2.55006882  2.00252189
  H -0.35212655 -2.75364709  1.80421093
