14
opt_min/./Product_5426_0_opt.xyz
  C -0.06990400  1.73614900 -0.02163400
  C  0.03401914  0.43611387  0.19291762
  C  1.32138642 -0.22614244  0.60582633
  O  1.51791017 -1.47878685 -0.00884603
  H  1.05556471 -1.46579661 -0.85918346
  H  1.30795554 -0.41156649  1.68961689
  H  2.16792188  0.44127075  0.38427012
  C -1.12070196 -0.50737851 -0.03603921
  O -0.95477199 -1.07006762 -1.33002497
  H -1.66593704 -1.69883395 -1.49551402
  H -1.10245897 -1.30512614  0.72154054
  H -2.07434905  0.03419509  0.03278535
  H -1.00030416  2.19437324 -0.31524230
  H  0.76631992  2.40324671  0.10806012
