9
opt_min/./Product_11827_0_opt.xyz
  C -1.04344800 -0.23905900  0.12157200
  H -1.57545193 -0.75573468 -0.67831991
  H -1.40602661 -0.55789140  1.09984132
  C  0.44173143 -0.07070995 -0.05660679
  O  1.48305730 -0.93541282 -0.09825653
  H  1.17327137 -1.82536927  0.10451003
  C  0.24900979  1.23951618 -0.19390810
  H  0.78658171  2.14721847 -0.37360829
  O -1.14032066  1.19273891 -0.02728774
