11
opt_min/./Product_4226_0_opt.xyz
  O  2.36776200 -0.89159900  0.32871300
  C  1.26802688 -0.40819226  0.19164380
  C  0.78239283  0.95663767  0.51836541
  H  1.41395132  1.71481352  0.93810546
  C -0.50722560  1.05227995  0.20852249
  H -1.14249536  1.90992341  0.32820479
  C -1.00467626 -0.24176396 -0.35628094
  H -1.81681310 -0.66787699  0.24348481
  H -1.37657446 -0.11386025 -1.37949212
  N  0.17692113 -1.05315609 -0.31044702
  H  0.20969583 -2.01372090 -0.60836664
