14
opt_min/./Product_8676_1_opt.xyz
  C  0.54503900 -1.13463500  0.29317100
  O  1.04201088 -2.18603521  0.58712991
  C  1.24008445  0.20733912  0.32100486
  H  1.87553690  0.25760110 -0.56748634
  H  1.89493188  0.26594767  1.19013735
  C  0.14590281  1.27578980  0.30114106
  H  0.17357380  1.87624590  1.21177266
  H  0.29225827  1.95892320 -0.53891034
  C -1.20054131  0.53956685  0.17411969
  H -1.84194505  1.00455844 -0.57632819
  H -1.74694326  0.56893615  1.11864479
  C -0.86252357 -0.90128438 -0.19587296
  H -1.56020096 -1.63093425  0.21994765
  H -0.85991524 -1.03481859 -1.28317904
