11
opt_min/./Product_3055_0_opt.xyz
  O -1.04854200  1.30901998 -0.71229103
  C -0.89159190  0.27668789  0.19392994
  H -1.65040381  0.30626111  0.96336094
  C -0.40518077 -1.07475794 -0.25769364
  H -0.83019057 -1.96014384  0.18299444
  H -0.11943045 -1.18091151 -1.29080918
  C  0.48088771 -0.20507187  0.60841133
  N  1.57779241  0.38578009  0.02978911
  C  2.49719134  0.89870832 -0.47085300
  H  0.63814926 -0.49195089  1.63802274
  H -0.19090905  1.70819945 -0.90311799
