12
opt_min/./Product_7494_0_opt.xyz
  O  1.68387368  0.81681388  1.64955429
  C  1.32022158  0.75918970  0.47507541
  C  2.28266786  0.76845444 -0.60606576
  C  3.13989601  0.79001149 -1.44568160
  H  3.87281580  0.80655552 -2.19799496
  C -0.02743041  0.67381857  0.01827952
  N -1.09039036  0.64985408  0.84599278
  C -1.11374731  0.68887001  2.15039122
  H -2.05728768  0.67362267  2.66268506
  H -0.18340730  0.75159597  2.68368077
  H -1.99133979  0.58946055  0.37452748
  H -0.23338844  0.62671379 -1.03713107
