12
opt_min/./Product_8097_1_opt.xyz
  N  0.66811700  0.89220100  0.10737100
  C  1.72485618 -0.07543825  0.04907217
  H  2.08595569 -0.15089851 -0.97847151
  H  1.44103347 -1.07374149  0.39832171
  H  2.54244263  0.29813693  0.66585802
  C -0.55145016  0.57713078  0.07539093
  O -1.46439398  1.56561548  0.13829383
  H -0.99621429  2.41238334  0.20024975
  C -1.18968073 -0.78160387 -0.02448516
  H -1.18984172 -1.25913184  0.95396824
  H -2.21779813 -0.66619988 -0.35369917
  H -0.64997843 -1.41309061 -0.72565574
