13
opt_min/./Product_8854_0_opt.xyz
  N  2.81019600 -0.17276500  2.34186600
  C  1.75608307  0.08322638  1.94729474
  C  0.49137127  0.40232004  1.48904767
  N  0.07754094  0.06625132  0.27250592
  C  0.57014517 -0.56418535 -0.77972929
  H  1.53502027 -1.00521999 -0.90791735
  C -0.66218589 -0.38924010 -1.61061907
  H -0.55693035  0.25430560 -2.48415276
  H -1.19045581 -1.29635599 -1.90192880
  C -1.21232318  0.32342759 -0.35423015
  H -2.03252850 -0.18643703  0.15161128
  H -1.44386037  1.38317855 -0.45601635
  H -0.19030927  0.93615526  2.13026935
