13
opt_min/./Product_3630_0_opt.xyz
  O  2.61293818  0.93611018 -0.62959476
  N  9.74641541 -7.33097839 -7.18738561
  C -19.71516470 -8.18670599  20.84235319
  C -4.03993284  1.19523546  4.20569881
  H -5.92766382  15.87233894 -16.99700077
  C  28.05834373 -30.59408514  6.52563809
  C  11.74944937  3.77965647 -2.85472958
  H -4.39550945  6.27778165 -10.89900747
  H  0.44763672  5.88344888 -4.62425614
  H -3.25914037  10.53428927 -6.35916354
  H  13.00361679 -1.50526239  13.91848456
  H  4.99763251  3.38624322  9.58501819
  H  1.05253913 -6.81014111  6.59662697
