14
opt_min/./Product_9743_0_opt.xyz
  C -2.23297478 -0.37110623  0.28664342
  C  33.74349696 -65.50916685 -56.09806937
  C -16.91297623  47.46504467  42.67422532
  C  36.46447516 -74.05735924 -63.97063884
  C -81.91940526  32.62098554 -12.67837376
  N  45.21833914 -18.67960577  20.60743910
  H -3.62910103  19.42753416  1.78005089
  H -50.23174471  8.09322658  17.08762148
  C  103.12642520 -33.96833229 -30.32033461
  H -5.76483101  61.87866847  73.54462667
  H -47.67020386  10.37852616  64.06594005
  H  30.82404707 -46.94121158  49.18506285
  H -3.52055792 -45.73556620 -87.83296796
  H -52.82347536 -49.05064900  10.30787178
