17
opt_min/./Product_9807_0_opt.xyz
  C  1.22460400  0.59893100  0.73738600
  C  2.26956883 -0.50550935  0.63697403
  H  1.81669796 -1.48826689  0.74512944
  H  2.78219384 -0.46394951 -0.32226617
  H  3.01090815 -0.38915785  1.42476948
  C  0.20303788  0.58085447 -0.41243703
  C -0.65665245 -0.63070009 -0.36720158
  C -1.96865598 -0.67406356 -0.10363327
  C -2.83523751  0.46722674  0.17412468
  O -2.52410041  1.63287250  0.22563558
  H -3.88770579  0.16728736  0.35413098
  H -2.46841149 -1.63433260 -0.09517188
  H -0.14666125 -1.56925188 -0.55939763
  H  0.74667057  0.58969071 -1.36175774
  H -0.41460984  1.47485506 -0.34635708
  H  0.69076368  0.51657638  1.68617838
  H  1.72792969  1.56771415  0.72321239
