9
opt_min/./Product_6322_0_opt.xyz
  O  2.14758900 -1.08464900  0.26548300
  C  1.07266068 -0.58914059  0.14119368
  N  0.82989023  0.79694299 -0.11376862
  H  1.58935628  1.45649933 -0.20539055
  C -0.44040585  1.12616941 -0.21542605
  C -1.12600262 -0.18578220 -0.00555915
  H -1.78588220 -0.14788694  0.86467820
  H -1.72610615 -0.45708293 -0.87735253
  O -0.11128231 -1.17440653  0.20486880
