16
opt_min/./Product_4077_0_opt.xyz
  C  2.42104300  0.12074800 -1.10155100
  C  1.10894069 -0.49721232 -0.90468353
  C  0.49504550 -0.25675707  0.40629902
  C -0.98276646  0.20503565  0.30600822
  C -1.78847528 -0.67737555 -0.64740879
  H -2.76433127 -0.24223471 -0.81821555
  H -1.25095376 -0.73997456 -1.58871452
  H -1.88378831 -1.67546443 -0.23710429
  O -1.02810413  1.54217078 -0.17020876
  H -1.01996449  2.14726311  0.57581625
  H -1.42214157  0.15514038  1.30986543
  H  0.46980492 -1.26458265  0.83763042
  H  1.04656186  0.39507541  1.10386445
  H  3.08189213 -0.50701174 -1.69863218
  H  2.93146323  0.50081069 -0.20649456
  H  2.18208547  0.98255218 -1.72861880
