15
opt_min/./Product_10278_0_opt.xyz
  C -1.25809200  1.33042200  0.42133300
  C -0.61344499  0.02786752  0.01880435
  C -1.45054914 -0.88447099 -0.83465064
  H -1.92009010 -0.31352304 -1.63386957
  H -2.23592805 -1.34167520 -0.22917310
  H -0.84134007 -1.67532152 -1.26661691
  C  0.58421108 -0.29089471  0.39612553
  C  1.82354092 -0.60642196  0.68460630
  C  2.93672917 -0.20783677 -0.17859413
  O  2.89446115  0.60727575 -1.06360309
  H  3.88641287 -0.72466639  0.07437933
  H  2.06101426 -1.18792008  1.56542518
  H -0.93569997  2.11662511 -0.26246919
  H -0.96815748  1.61596320  1.43087346
  H -2.34032167  1.24581524  0.36550731
