12
opt_min/./Product_5522_0_opt.xyz
  C -1.77031400 -0.04672100  0.09977200
  C -0.33349655  0.36362162  0.42247305
  O  0.54222206 -0.60564353 -0.11351638
  C  1.89265336 -0.32346584  0.13041718
  H  2.47121350 -1.12330304 -0.32307982
  H  2.10489650 -0.28698838  1.20726068
  H  2.18955326  0.63468914 -0.31369502
  H -0.17811819  0.43868012  1.50998208
  H -0.10004649  1.35070053 -0.00943308
  H -2.27908334 -0.43620039  0.97434790
  H -2.34200255  0.78599986 -0.28967246
  H -1.74404756 -0.82616380 -0.65211460
