12
opt_min/./Product_11171_0_opt.xyz
  N -1.79159900 -0.98096600 -1.24762200
  C -0.75445480 -0.65092356 -0.70668696
  N  0.45457544 -0.91894725 -0.57777099
  C  1.22107258 -0.12376354  0.23277648
  O  2.52332924 -0.42507428  0.36091783
  H  2.70144572 -1.21564837 -0.16337308
  C  0.59820814  0.90228655  0.84255037
  H  1.05706036  1.60752907  1.51093803
  N -0.79242118  0.97746011  0.51598479
  H -1.05501853  1.80841803 -0.00412934
  H -1.41472402  0.83963475  1.30568932
  H -2.69018872 -0.55813924 -1.16137660
