11
opt_min/./Product_122_0_opt.xyz
  N  1.52424701 -1.79937001 -0.84851395
  C  1.30323783 -0.73994720 -0.48303202
  C  0.96737749  0.61100423 -0.06621482
  O -0.36681389  0.95475832 -0.39276771
  C -1.32911416  0.42985728  0.47786303
  O -1.36564352 -0.95511632  0.50679340
  H -1.54743129 -1.30262409 -0.37515376
  H -1.13022243  0.73826395  1.51638814
  H -2.27454156  0.87187318  0.13405201
  H  1.60745709  1.31713149 -0.60638522
  H  1.14486107  0.70528577  1.01623899
