14
opt_min/./Product_9385_0_opt.xyz
  C -2.77679700  0.39015900 -0.31812300
  N -1.35431621  0.32197304 -0.35172658
  C -0.74458248 -0.67373749  0.08558050
  O  0.61148071 -0.77912649  0.09151668
  C  1.41546222  0.32538517  0.15063479
  O  1.02695368  1.43622599  0.34065864
  C  2.85643717 -0.10521520  0.02325173
  H  3.37502065  0.12035492  0.95349838
  H  2.92265116 -1.16603220 -0.18811477
  H  3.32079610  0.47458273 -0.77121523
  H -1.19633289 -1.58546885  0.51472458
  H -3.12547874  0.55353851 -1.33856188
  H -3.06105475  1.25813820  0.27579077
  H -3.24994478 -0.51293581  0.09149231
