14
opt_min/./Product_1525_0_opt.xyz
  C  1.43609700 -0.67710700 -0.02456300
  C  0.23712998  0.18756629 -0.32585279
  O  0.21671531  0.56529590 -1.63917337
  H -0.60587331  1.04143052 -1.81597767
  C -0.37362042  1.00437178  0.71779285
  H -0.88120986  1.91334734  0.43458979
  H  0.05233534  1.00488595  1.70761680
  C -1.13882469 -0.30259758  0.33845825
  C -2.24575937 -0.11621664 -0.49389278
  H -2.98159732 -0.92909808 -0.37988751
  H -0.98524202 -1.12010423  1.04622852
  H  1.38482293 -1.08820528  0.97680646
  H  1.49382966 -1.48443363 -0.74869976
  H  2.33686729 -0.07178934 -0.11426214
