9
opt_min/./Product_524_0_opt.xyz
  C -1.26000500  0.11396600 -0.30196400
  H -1.53013879 -0.91302039 -0.07056903
  H -2.10048857  0.74468518 -0.55748143
  N -0.05812389  0.35030499 -1.09128669
  C  0.84244139 -0.33567118 -0.16920908
  H  0.63899565 -1.37275459  0.08349208
  H  1.89115749 -0.10702708 -0.31462942
  C -0.06270407  0.71157115  0.31178838
  H  0.08865749  1.68778385  0.72225437
