12
opt_min/./Product_5625_0_opt.xyz
  C  1.31966800  0.20088400  0.00352400
  H  2.17216790 -0.38707613  0.34258694
  H  1.67770571  1.21500603 -0.19074082
  C  0.73188738 -0.35860808 -1.24674882
  C -0.57292080 -0.82109344 -0.67738348
  H -1.22360603 -1.45930125 -1.26804369
  O -0.30637714 -1.27605377  0.67224737
  C  0.07777001  0.08585150  0.91395517
  H  0.12168015  0.36491882  1.96499650
  C -1.01181140  0.54048464 -0.06382460
  H -2.01468835  0.47674310  0.34592513
  H -0.87659865  1.44605963 -0.64743398
