17
opt_min/./Product_10386_0_opt.xyz
  C  3.34859300  0.56163600 -0.10646500
  C  2.00106738  1.11758605 -0.30309730
  C  0.93485189  0.13125299 -0.11181245
  O -0.33843318  0.72114113 -0.03012253
  C -1.40954849 -0.17857220  0.05276085
  H -1.14377934 -1.22604053 -0.03529786
  C -2.54886849  0.16737985  0.96372225
  H -2.48331745  1.08924954  1.51229548
  H -3.03603573 -0.62986440  1.50111661
  C -2.72158445  0.24444101 -0.52878021
  H -3.33225881 -0.49542388 -1.01970106
  H -2.76494002  1.21795149 -0.98428834
  H  1.11080965 -0.54090282  0.75152551
  H  1.00068434 -0.50806603 -1.01446510
  H  3.40801433 -0.51893846  0.07236099
  H  3.98891206  0.85145590 -0.93660822
  H  3.73978560  1.08076702  0.76693940
