17
opt_min/./Product_10110_0_opt.xyz
  C  2.77982000  0.65054100 -0.16394700
  C  1.45530623  0.51278794 -0.79015862
  C  0.79790120 -0.76924294 -0.48365546
  C -0.72895352 -0.66643640 -0.49544484
  C -1.19795508  0.27606479  0.62318638
  C -2.69472868  0.37547978  0.59237673
  O -3.33272343  0.98561328 -0.21699083
  H -3.19859182 -0.19800019  1.39768791
  H -0.75180259  1.25495253  0.42515487
  H -0.86648166 -0.09689539  1.59285793
  H -1.05553948 -0.26364534 -1.45523862
  H -1.17351753 -1.65640941 -0.36028332
  H  1.14850685 -1.29919705  0.41606413
  H  1.10995492 -1.37396424 -1.35168656
  H  3.33408110 -0.28266415  0.00577742
  H  3.40379597  1.38649128 -0.66928297
  H  2.54952895  1.05064720  0.83042066
