12
opt_min/./Product_1667_0_opt.xyz
  C -0.88859300 -0.77925800  0.33545200
  H -0.82857473 -0.74055852  1.43226110
  H -1.71626007 -1.42265254  0.03501636
  O  0.28433965 -1.35320236 -0.19118547
  C  1.34083577 -0.47896730 -0.17915360
  H  2.28872037 -0.96133220 -0.33948816
  C  1.21481773  0.82935087  0.02258028
  H  2.04409369  1.51156611  0.07190959
  O  0.00735542  1.46344637  0.18114255
  C -1.07443618  0.64703453 -0.20145240
  H -1.97672250  1.10502343  0.20599172
  H -1.14164262  0.60238407 -1.29618841
