15
opt_min/./Product_6529_0_opt.xyz
  C -3.16350501  0.15923409 -0.14012680
  C -1.95579485  0.64513709  0.07076915
  C -0.69659176  0.02594601 -0.44864015
  O  0.14535978 -0.25824376  0.65908688
  C  1.34044995 -0.84359634  0.29623730
  C  2.49416209 -0.25110089  0.37208201
  C  3.62791724  0.36580762  0.48243497
  H  4.04927804  0.90879227 -0.34861577
  H  4.20628070  0.31747927  1.39136235
  H  1.26359377 -1.87167196 -0.06287854
  H -0.18539574  0.72894161 -1.12658693
  H -0.91738793 -0.89465291 -1.01041739
  H -1.80664798  1.53841192  0.66251363
  H -4.04381033  0.64277628  0.24791205
  H -3.32654703 -0.73541540 -0.71891305
