11
opt_min/./Product_2850_0_opt.xyz
  C -1.04909100 -0.06276000 -0.12065500
  H -1.65688725 -0.10001738 -1.03768642
  H -1.73953770  0.01989969  0.74623821
  N -0.03706050  0.94370136 -0.17190463
  H -0.26743279  1.88701297  0.07761514
  C  1.24527881  0.37234596  0.20629081
  H  2.02693287  0.63867698 -0.51617020
  H  1.59799773  0.68897488  1.19898550
  C  1.04304730 -1.11713080  0.18872616
  N -0.23721504 -1.26943442  0.00647772
  H -0.65993612 -2.17808074 -0.12439459
