17
opt_min/./Product_8390_0_opt.xyz
  C  1.82532500  0.27377600  0.33364300
  C  0.61211823 -0.16613937 -0.47523205
  H  0.92865505 -0.45089417 -1.48314484
  C -0.19443024 -1.29578678  0.20277902
  H  0.23763969 -1.58848954  1.15885136
  H -0.29250087 -2.17457693 -0.43542641
  C -1.53925338 -0.62069114  0.39516855
  H -2.33509676 -1.17539554  0.87922353
  C -1.38304272  0.85487801  0.62040302
  H -1.74554956  1.54686246  1.34181728
  C -1.82351816  0.35806890 -0.70222377
  H -2.63804245  0.53825726 -1.36185474
  C -0.44406769  0.92458040 -0.54677949
  H -0.17509339  1.87676244 -0.98979806
  H  2.51254304 -0.55889790  0.47798402
  H  1.51253214  0.63198623  1.31345773
  H  2.35427963  1.07442838 -0.17929511
