12
opt_min/./Product_2118_0_opt.xyz
  O  2.29591400 -0.06895600 -0.49266100
  C  0.98361418 -0.05846589 -0.16019083
  N  0.33137624 -1.01473970  0.46137570
  H  0.75579207 -1.90037607  0.69631263
  C -1.04097493 -0.82889147  0.48423177
  H -1.49964169 -1.03930099  1.44170216
  C -1.22505597  0.59172452 -0.06349673
  H -1.63799251  1.30999423  0.66299329
  H -1.88462751  0.59724510 -0.94267043
  N  0.14262118  1.01930612 -0.40734779
  H  0.27180862  1.51491161 -1.27559882
  H  2.86493895  0.13292845  0.26400213
