15
opt_min/./Product_8486_0_opt.xyz
  C  2.18691200  0.18548900 -0.54681400
  O  0.97661108  0.83204295 -0.16379266
  C  0.02788240  0.00747176  0.36532439
  O  0.51618978 -0.61834044  1.49761389
  H -0.09568560 -1.31193006  1.76868785
  C -1.34101864  0.71409075  0.46382940
  H -1.81186662  0.65358334  1.43967163
  H -1.30065426  1.74096227  0.12016952
  C -1.79499132 -0.31976221 -0.56730198
  H -2.56672670 -1.02022257 -0.24473596
  H -2.03613175  0.07218029 -1.55546058
  O -0.50604513 -0.95048159 -0.56783914
  H  1.97646720 -0.62746805 -1.24363538
  H  2.78211187  0.95516810 -1.03047966
  H  2.70582533 -0.20158820  0.33076299
