8
opt_min/./Product_2601_0_opt.xyz
  C  1.87836804  1.24618532  1.19119618
  C  2.16853820 -7.49558845  7.98054992
  N -10.12062419 -0.54581000 -3.99398166
  C  7.48073248  2.24532221  10.81821636
  C -0.61151993  7.52823054  1.00678563
  H  2.57627542 -0.29650231 -8.90660771
  H -6.85295374 -0.20634988 -5.60970563
  H  12.46216495  6.85765573 -11.07716908
