13
opt_min/./Product_10197_0_opt.xyz
  C  1.91597301 -0.82602392  0.28622417
  C  0.65940105 -0.43632650  0.29583036
  O -0.49186185 -1.15878159  0.54362914
  C -1.33508731 -0.03189322  0.28734402
  O -2.13683915 -0.18442923 -0.81580339
  H -2.35243774 -1.11930711 -0.91268550
  H -1.93325890  0.21033300  1.18055849
  C -0.08420812  0.87299395  0.07461983
  O -0.01498766  1.46409493 -1.18130910
  H  0.85082190  1.87050173 -1.29457823
  H  0.06015836  1.60100089  0.88240779
  H  2.18909123 -1.84808967  0.47882476
  H  2.69924800 -0.12356780  0.07235137
