12
opt_min/./Product_5292_0_opt.xyz
  O -2.02896400  0.50498100 -0.43209200
  C -1.16189072 -0.12510226  0.45931049
  C  0.21753932 -0.38582508 -0.16504946
  H  0.07473387 -0.89761529 -1.12489633
  C  1.24277473 -1.08310803  0.67698015
  C  2.02566475  0.17262259  0.46530290
  H  2.96158853  0.02263495 -0.08128480
  H  2.24972722  0.72073997  1.38554540
  O  1.01381207  0.79932909 -0.31822432
  H -1.61137917 -1.08405587  0.72617403
  H -1.01349362  0.47366030  1.36881906
  H -1.64021263  1.34587606 -0.70409650
