17
opt_min/./Product_7730_0_opt.xyz
  C -0.98289000  1.47737400  0.94201100
  C -0.00860185  0.42014642  0.48474295
  C  1.30587795  0.66062322  0.52327460
  C  2.37625007 -0.28049177  0.06794757
  H  3.33321501  0.23017272  0.00857264
  H  2.14239849 -0.69626593 -0.91101671
  H  2.47903739 -1.11316100  0.76555435
  H  1.64671037  1.61522198  0.90049696
  C -1.69905793 -1.14953871 -0.53091385
  C -0.52614127 -0.87367499  0.04340909
  H  0.14619167 -1.70586554  0.18282568
  O -2.68603180 -0.29274702 -0.88015856
  H -2.42152977  0.60822884 -0.65716062
  H -1.96399501 -2.16684818 -0.78445811
  H -1.30300822  2.11119279  0.11151251
  H -1.85774351  1.02836228  1.40835647
  H -0.50684420  2.12926342  1.67200399
