13
opt_min/./Reactant_2858_0_opt.xyz
  C -1.54028800  0.19184301 -0.00839912
  C -0.24094552 -0.32351379 -0.61234992
  C  0.93636864 -0.21123711  0.37412119
  O  2.13656058 -0.72507206 -0.16288383
  H  2.02233740 -1.66465542 -0.34476829
  C  1.15937675  1.18670416  0.71277152
  N  1.30981141  2.28646352  0.97885445
  H  0.67811681 -0.72853319  1.31738066
  H  0.00793162  0.24510396 -1.51187594
  H -0.34938286 -1.37567302 -0.89574617
  H -1.45253024  1.24563186  0.24964615
  H -1.79077368 -0.36574816  0.89314343
  H -2.35576135  0.07816710 -0.72060962
