15
opt_min/./Product_8433_0_opt.xyz
  C  0.73832700 -0.97306600  0.53245800
  H  1.49259836 -1.75190812  0.47144005
  H  0.36824587 -0.86512093  1.55173712
  C  1.15889549  0.32380595 -0.18419162
  H  2.18566160  0.68482444 -0.16731365
  C  0.17682782  1.43648800  0.25497610
  H  0.04226268  2.14743905 -0.57116094
  H  0.56573588  1.97251109  1.12623268
  O -1.03935599  0.88059727  0.67361368
  C -1.49980843 -0.14457340 -0.16715634
  H -1.96699897  0.26044059 -1.07678907
  H -2.24775487 -0.69009940  0.41224170
  C -0.33266439 -1.07391364 -0.57053872
  H -0.71400080 -2.02613375 -0.93692828
  C  0.65477308 -0.34121965 -1.43184721
