12
opt_min/./Product_8064_0_opt.xyz
  N  2.15186408  1.15064596 -1.00315387
  C  1.35480761  0.51743200 -0.48627518
  C  0.35070080 -0.29890518  0.16939219
  C -1.03934231  0.35750360 -0.00039184
  N -1.09316304  1.59905091  0.63957823
  C -1.11469388  2.62854313  1.17791638
  H -1.24829251  0.49011538 -1.06562462
  H -1.80358693 -0.29850258  0.42733465
  N  0.30734388 -1.62639066 -0.44144857
  H  1.22332140 -1.91311617 -0.76106601
  H -0.03335053 -2.31732615  0.21234574
  H  0.61001215 -0.31670628  1.24390624
