9
opt_min/./Product_9222_0_opt.xyz
  N  2.24770900  0.50083800  0.81779700
  C  1.43831583 -0.03268265  0.05715696
  C  0.20076962 -0.47726751 -0.47173638
  O -1.10974320 -0.67300230 -0.47794000
  C -1.97431713  0.06749383 -1.20763868
  O -1.69539820  0.98329878 -1.90651257
  H -2.97712108 -0.33746843 -1.00892716
  N  1.26876674 -0.77819993 -1.13869730
  H  1.86202512  0.96596178  1.63571104
