15
opt_min/./Product_8910_0_opt.xyz
  C -1.33568400 -1.11707500  0.02193600
  N -0.46263315  0.01864932  0.10059434
  C -0.81571877  1.27677804  0.34669622
  H -1.76461846  1.48410174  0.82384883
  C  0.16437531  2.17722812 -0.03272962
  H  0.10705296  3.24237820  0.11057058
  C  1.26557736  1.51915427 -0.60537068
  C  0.85208882  0.06386238 -0.55658304
  N  1.80545031 -0.69510108  0.22942462
  H  1.46740392 -1.64088394  0.39657931
  H  2.68594948 -0.75663617 -0.27112992
  H  0.72524986 -0.32727549 -1.58512410
  H -1.24981355 -1.73240653  0.92245469
  H -1.06278348 -1.72275312 -0.84574089
  H -2.37009676 -0.78601540 -0.09029196
