14
opt_min/./Product_8376_0_opt.xyz
  O -0.97485700  1.75584100  0.26617500
  C -0.56789164  0.46615812  0.64927838
  H -0.78801795  0.40364314  1.72048125
  C -1.18675573 -0.69616809 -0.18635587
  H -1.82561668 -0.36448716 -1.00370860
  H -1.69396348 -1.46179873  0.39667592
  N  0.15658051 -1.13306396 -0.65057685
  H  0.34639353 -1.05499014 -1.65547553
  H  0.45432203 -2.07085198 -0.36446484
  C  0.75056928 -0.03135541  0.17079198
  C  2.09965849  0.20250643  0.23102663
  O  2.95326209 -0.45343947 -0.38111143
  H  2.37630817  1.05683180  0.88298862
  H -0.42694104  2.05113952 -0.47211097
