18
opt_min/./Product_6816_0_opt.xyz
  C -2.24415500 -0.61576900 -0.32442200
  C -1.46606869  0.70362077 -0.19933879
  C  0.02174759  0.51708903 -0.42630857
  H  0.31799482  0.43218981 -1.46519537
  C  0.83339489 -0.31296399  0.57906721
  C  1.93070661 -1.23736023  0.10051450
  H  2.73973833 -1.26825521  0.82787196
  H  1.54871624 -2.24746536 -0.03619518
  H  2.33579325 -0.88910854 -0.84680447
  H  0.29417605 -0.68683750  1.44230476
  C  1.00062220  1.13063154  0.49460958
  N  1.58652334  2.13482113  0.93468701
  H  1.32203654  3.01902068  0.49743669
  H -1.84358946  1.42515124 -0.92595820
  H -1.61944444  1.13338113  0.79322981
  H -1.56422737 -1.46378024 -0.31531011
  H -2.94318738 -0.73753659  0.49857299
  H -2.80832194 -0.65011724 -1.25255549
