15
opt_min/./Product_7056_0_opt.xyz
  C -1.67720200 -0.70372900  0.67002400
  C -0.52907666 -0.11639512 -0.12538140
  O -0.85920897  0.12885510 -1.45419713
  H -0.57788278  1.02554561 -1.68155351
  C  0.38922332  0.83193573  0.59807409
  H  0.18705260  1.30476860  1.54295512
  C  0.88719746 -0.54595243  0.21675631
  H  1.14613286 -1.39165933  0.82243153
  C  1.80552586  0.21117691 -0.73232450
  H  1.68420148  0.01392448 -1.79798332
  H  2.86013009  0.17382720 -0.45651544
  O  1.24305051  1.47571194 -0.33593704
  H -2.27763325  0.09158670  1.10729365
  H -1.30851347 -1.34108632  1.46814061
  H -2.29971128 -1.28841781  0.00090923
