11
opt_min/./Product_4395_0_opt.xyz
  O  3.90694400  0.20753700 -0.17258300
  C  2.76813410  0.10417005  0.08839436
  C  1.55726445 -0.01708312  0.42585859
  C  0.29057383 -0.28101525  0.66132124
  C -0.74809502 -0.53954989 -0.39734771
  N -1.79263214  0.46969293 -0.38979434
  H -1.40020568  1.38874955 -0.57162659
  H -2.27191460  0.50490807  0.50586863
  H -1.21515300 -1.51476218 -0.21913018
  H -0.28831079 -0.54876334 -1.38998113
  H -0.10814793 -0.23404621  1.67352890
