9
opt_min/./Product_406_0_opt.xyz
  O  2.33263900  0.46490400 -0.70422900
  N  1.24026281  0.04155977  0.01809751
  C  0.14915623 -0.30262445 -0.36716372
  N -0.88481126 -0.93453056 -0.47128284
  N -2.19652559 -0.52445145 -0.45201178
  C -2.55811564  0.70385700 -0.30066474
  H -3.65841971  0.75572915 -0.31644470
  H -2.77914543 -1.36734172 -0.56283909
  H  3.00115731  0.67179872 -0.03539655
