13
opt_min/./Product_8774_1_opt.xyz
  O  2.58050937  0.56975286 -0.36712480
  C  1.42620970  0.43112831 -0.47142692
  C -0.21177254 -0.41219433  2.51382055
  H -0.72582613  0.43874577  2.92193088
  H  0.86489404 -0.36280517  2.52572757
  C -0.85812811 -1.45405409  2.03380159
  H -1.93489872 -1.50369352  2.02665917
  H -0.34746037 -2.30747313  1.62362219
  C -2.39910712  0.20542982 -0.57372754
  H -2.93917169  1.06399184 -0.21171332
  H -2.97271105 -0.64046003 -0.91492206
  C -1.10334341  0.19259284 -0.54652090
  C  0.16655642  0.29303413 -0.56715274
