8
opt_min/./Product_5224_0_opt.xyz
  C -1.15421300 -0.05009600 -0.04767800
  C  0.25348268  0.32817324  0.07467208
  C  1.29792246  1.28031642  0.31554362
  C  1.53338383 -0.09623097  0.03201695
  H  2.20090564 -0.91186900 -0.12073996
  H -1.29815034 -0.72872425 -0.88782912
  H -1.44732797 -0.57872645  0.86065957
  H -1.77629150  0.83604437 -0.16127448
