12
opt_min/./Reactant_1655_0_opt.xyz
  O  2.67129300 -0.13990000  0.08031700
  N  1.65645459  0.78185331 -0.20033299
  C  0.48145006  0.37988619 -0.02448613
  C -0.83453527  1.06570401 -0.21175183
  H -0.97987549  1.97188191  0.38054249
  H -1.07336292  1.28397986 -1.25740355
  N -1.49832992 -0.10535096  0.38230266
  H -2.23834009 -0.51922610 -0.17092147
  C -0.23610928 -0.86018826  0.42903725
  H  0.01113049 -1.20772249  1.43494545
  H -0.14029381 -1.70176741 -0.26483128
  H  3.48488328  0.34823961 -0.10714989
