9
opt_min/./Product_8355_0_opt.xyz
  C  2.42735400  0.59530800 -2.36278600
  C  1.50743727  0.36938730 -1.61848389
  C  0.47691929  0.11584698 -0.77053268
  C -0.43828838 -0.10948193 -0.01724118
  C -1.53101216 -0.38312759  0.88160095
  H -1.31130844 -1.26827083  1.47993571
  H -1.68692079  0.46159492  1.55402742
  H -2.44724928 -0.55607545  0.31601179
  H  3.22025605  0.79000817 -3.02000724
