15
opt_min/./Product_8783_0_opt.xyz
  O  2.11608800  0.32521500 -2.26969700
  C  1.92159091  0.16314642 -1.13142429
  C  1.71746022  0.04653649  0.13964317
  C  0.50645018 -0.52356416  0.79506958
  H  0.71651613 -1.45314636  1.31763121
  C -0.87131226 -0.38865218  0.20460876
  C -1.12000317  0.33754438 -1.09141376
  H -0.94767409 -0.32080491 -1.94225112
  H -2.14840533  0.69270822 -1.13107900
  H -0.45501282  1.19313697 -1.18707732
  H -1.51818712 -1.24983014  0.33832097
  C -0.50735142  0.38314989  1.43696082
  H -0.36080562  1.44764314  1.32661177
  H -0.93400696  0.09569552  2.38669838
  H  2.53644709  0.30726307  0.79563706
