18
opt_min/./Product_855_0_opt.xyz
  C  2.59526600 -0.03403000 -0.20752500
  C  1.13553095  0.34852239 -0.45062611
  C  0.19578844 -0.33435328  0.44529873
  C -1.19779735 -0.47152702 -0.00878118
  C -1.74472810  0.40222334 -1.15032866
  H -2.78193124  0.14339161 -1.35290140
  H -1.19013319  0.27529506 -2.07490054
  H -1.71254681  1.44893363 -0.85925854
  C -2.16961939 -0.47907424  1.17973629
  H -1.74384622 -1.03719368  2.00599316
  H -3.12283314 -0.92246696  0.90737834
  H -2.35132336  0.54016676  1.50686819
  H -1.12738332 -1.51318303 -0.37135306
  H  0.91047442  0.32023044 -1.52589148
  H  0.99547486  1.39314111 -0.13062429
  H  2.84026663  0.05974761  0.84539137
  H  2.76621181 -1.06219774 -0.51280121
  H  3.25882653  0.60867766 -0.77987052
