17
opt_min/./Product_7594_0_opt.xyz
  C  3.13630100  0.41106400  0.24034700
  C  2.14051521 -0.42171581 -0.51014050
  O  0.98678424 -0.39816234  0.11426125
  C -0.07019090 -1.15113647 -0.46493342
  C -1.30090605 -0.26557681 -0.62646203
  C -1.85128814  0.18326030  0.73044140
  O -3.03241338  0.93345191  0.61648939
  H -2.86265582  1.71629322  0.07890613
  H -2.11772329 -0.68970592  1.33616595
  H -1.07245294  0.74437010  1.26805120
  H -2.07054119 -0.80754865 -1.17786807
  H -1.01605168  0.61566599 -1.21153376
  H -0.28454007 -1.98801888  0.21216347
  H  0.26351700 -1.55947138 -1.42663411
  H  3.51173567  1.15347553 -0.46797437
  H  2.73085311  0.89792225  1.13009115
  H  3.98161145 -0.22406429  0.50104543
