13
opt_min/./Product_6698_0_opt.xyz
  C  2.10990300  0.23841200 -0.08058200
  C  0.66182855 -0.07493294 -0.00913856
  C -0.01746687 -1.20621585  0.22510450
  H  0.33634682 -2.19900234  0.40600008
  N -1.36779546 -0.89359528  0.19123854
  H -2.14465477 -1.51286404  0.32106982
  C -1.49872708  0.44472597 -0.06628324
  N -2.60292004  1.04504101 -0.16188254
  H -2.51573047  2.03503541 -0.35578669
  O -0.23346423  0.95989510 -0.19155008
  H  2.28864754  0.98219483 -0.85351978
  H  2.67609414 -0.66167020 -0.30731609
  H  2.46688953  0.64097561  0.86796315
