10
opt_min/./Reactant_1089_0_opt.xyz
  N  1.90090300  0.19738300  0.08759300
  C  0.74712173 -0.50389393 -0.12661808
  O  0.72268537 -1.63723092 -0.50849005
  N -0.39819179  0.28583005  0.10529174
  C -1.70357828 -0.13643847  0.00519826
  O -2.08698677 -1.23735345 -0.23304142
  H -2.38804373  0.71469706  0.20084376
  H -0.24235084  1.25929394  0.32453877
  H  1.92476641  1.05005679  0.61913454
  H  2.75686604 -0.33026559  0.03379635
