14
opt_min/./Reactant_4194_0_opt.xyz
  C  1.50737700 -0.32899900  0.68088200
  H  2.00459608 -0.08162474  1.60668139
  H  1.33864725 -1.38933592  0.54288522
  N  1.87053176  0.48782831 -0.45137507
  H  1.93801313 -0.00365361 -1.33581540
  C  0.53731015  0.61453204  0.07347145
  C -0.66062066  0.08837032 -0.67111883
  H -0.45157421 -0.25171960 -1.67886689
  C -1.74604462 -0.57971403  0.08793121
  H -2.29856307 -1.38551640 -0.37101305
  H -1.63716770 -0.64167627  1.16272426
  N -1.94936411  0.71134977 -0.52560007
  H -1.96355050  1.49296160  0.11971676
  H  0.37155602  1.56095837  0.57801494
