14
opt_min/./Product_11414_0_opt.xyz
  O  2.46593400  0.50780100  0.88840100
  C  1.96495606 -0.49703549  0.47126045
  C  0.76530224 -0.59601666 -0.42752067
  C  0.18265692  0.73108700 -0.76305581
  C -1.06268797  1.12490708 -0.47739154
  C -2.09217499  0.33754233  0.17775122
  N -1.93072265 -0.86710823  0.53041160
  H -2.73678356 -1.29409059  0.98006815
  H -3.03055776  0.88761164  0.33778562
  H -1.36754780  2.12602313 -0.74960046
  H  0.85740322  1.42641403 -1.24497982
  H  1.09632047 -1.10658523 -1.33723109
  H  0.00955605 -1.21913675  0.06052447
  H  2.37885903 -1.49068560  0.74010374
