13
opt_min/./Product_8524_0_opt.xyz
  O -0.72590900 -1.53079400 -0.00704600
  C  0.28130124 -1.04563652  0.84310058
  C -0.15784351  0.19238785  1.41296566
  H -0.08081549  0.66677828  2.36207247
  C -0.61785195  0.73808343  0.09530162
  H -1.04923617  1.72962858  0.00712199
  O  0.66030370  0.67605195 -0.59190221
  C  1.40043619 -0.48672073 -0.00602540
  H  1.70233387 -1.12024084 -0.83778348
  H  2.24403639 -0.11188051  0.57111560
  C -1.46060243 -0.40303189 -0.47286868
  H -1.40410396 -0.40407554 -1.56282499
  H -2.50352304 -0.41819867 -0.14313374
