13
opt_min/./Reactant_8524_0_opt.xyz
  O  1.09702500  2.12978000 -0.00674100
  C  0.68252384  1.00305259 -0.02440169
  C  1.42699546 -0.22951397  0.47798381
  H  1.71908415 -0.14036367  1.52710738
  H  2.34199226 -0.33690289 -0.12041384
  O  0.61192013 -1.36804473  0.27484987
  C -0.58096887 -0.97940915 -0.33794303
  H -0.95898052 -1.69824138 -1.04818312
  C -1.50906770 -0.13422434  0.47619165
  H -1.27503568  0.03072000  1.51586356
  H -2.56383711 -0.16868458  0.25805691
  C -0.60932796  0.50554096 -0.56629141
  H -1.02987890  0.99875623 -1.42660638
