10
opt_min/./Product_440_0_opt.xyz
  O  1.65558500 -0.64866900 -1.46764300
  C  0.67000451 -0.37584616 -0.56434332
  C -0.03935147  0.79732742 -0.52991545
  H  0.02891913  1.66290760 -1.15415361
  N -0.92945656  0.70677740  0.49587814
  H -1.60632143  1.38473421  0.80038798
  N -0.72948403 -0.53852231  1.06363995
  H -1.28619182 -0.82684563  1.85206686
  C  0.21776719 -1.25770634  0.48050760
  H  1.97660681 -1.53649043 -1.27316876
