12
opt_min/./Product_10609_0_opt.xyz
  O -0.79041000  0.82282000 -1.10646200
  C -1.59417951  0.01484815 -0.25026014
  H -2.20169939  0.52792929  0.47309938
  C -0.78632796 -1.18377038 -0.01434611
  N -1.85112379 -1.35108351 -0.70039475
  C  0.61010992 -0.92166777 -0.07288429
  H  1.34605781 -1.69013629 -0.25513146
  C  0.52246538  0.41623442 -0.89758014
  H  1.14116810  0.56408367 -1.76922657
  C  1.06527482  0.40338054  0.49397801
  H  2.13562697  0.49677666  0.59506326
  H  0.48683001  0.88716135  1.26589444
