13
opt_min/./Reactant_1983_0_opt.xyz
  N  0.70655962  0.14537016  1.71369314
  C -0.31730139 -0.23229431  0.76903227
  C  0.09658817 -0.16557505 -0.73918469
  N -0.92730604 -0.59618118 -1.67279693
  H -1.03788184 -1.60160749 -1.66291960
  H -1.82147039 -0.17210455 -1.45766436
  C  0.47128112  1.20119299 -1.05679530
  N  0.76299691  2.28616547 -1.26765037
  H  0.98673508 -0.78875724 -0.88998491
  H -0.61551798 -1.26312712  0.98865431
  H -1.18306083  0.41500608  0.92365873
  H  1.54304107 -0.41481876  1.58466651
  H  0.97209178  1.11535842  1.57282092
