14
opt_min/./Reactant_9317_0_opt.xyz
  C  1.79807685  0.06378489  0.54976051
  C  0.72436737 -0.36736413 -0.45406502
  C -0.67265690  0.04023133 -0.01494909
  C -0.84051872  1.43629171  0.27468755
  N -0.98177955  2.54701988  0.50435613
  C -1.86894303 -0.68291668 -0.48608877
  H -2.81339314 -0.15821218 -0.57871823
  H -1.73953886 -1.51977567 -1.16235776
  O -1.39066903 -0.84497225  0.81078746
  H  0.91431834  0.07719198 -1.43265164
  H  0.73210420 -1.45155130 -0.57180660
  H  2.74523160  0.23463688  0.05006077
  H  1.94716329 -0.69668526  1.30766885
  H  1.51373276  0.98517928  1.04772479
