15
opt_min/./Product_11382_0_opt.xyz
  C  1.77441700 -0.22405100 -0.12480000
  C  0.26883834 -0.29422767 -0.04071818
  C -0.56224370  0.29064264  1.13406674
  H -0.64948828 -0.30114896  2.04494559
  H -0.29316488  1.31538657  1.37668812
  C -1.68686593  0.14565811  0.10977092
  H -2.68095806  0.56950220  0.20684799
  O -1.68560617 -1.30849923 -0.04877586
  C -0.45223243 -1.65025103 -0.15092995
  C -0.67359951  0.52237368 -0.96884220
  H -0.85133520  0.13886637 -1.97304192
  H -0.42115848  1.57872656 -1.00995835
  H  2.07581370 -0.07926677 -1.15959637
  H  2.20383817 -1.15038613  0.24413450
  H  2.14759283  0.61152016  0.46406008
