13
opt_min/./Product_2189_0_opt.xyz
  C  2.03555600 -0.42370700  0.59025600
  O  0.71332076 -0.69257030  0.15398930
  C -0.02109848  0.37731460 -0.16664059
  N  0.46572247  1.53865075 -0.11273362
  H -0.16959242  2.28261218 -0.36324695
  C -1.43182394 -0.02439767 -0.57438286
  O -2.09624878 -0.75026455  0.43264327
  H -1.58801912 -1.54610346  0.62092684
  H -2.03274503  0.86880785 -0.75145335
  H -1.38071663 -0.61263591 -1.50131013
  H  2.46674210 -1.38734214  0.84829472
  H  2.02185567  0.23880035  1.45195155
  H  2.61151072  0.03866376 -0.21291406
