13
opt_min/./Product_2253_0_opt.xyz
  C -0.88832985 -0.35082953 -0.75163495
  C  0.44922857 -0.97229622 -0.43503222
  C  1.47091420 -0.28480092 -0.02491335
  C  2.47411938  0.42984761  0.37540564
  H  3.18623050  0.83880912 -0.32293785
  H  2.64049728  0.60922308  1.42522381
  H  0.52697592 -2.04844244 -0.51966833
  C -1.61441936 -0.01815756  0.52240740
  N -2.13199146  1.06735994  0.86979622
  H -2.04399902  1.82304728  0.18713391
  H -1.68747375 -0.83649329  1.23662573
  H -1.49912890 -1.06247146 -1.31471939
  H -0.75781519  0.55477252 -1.35198475
