13
opt_min/./Product_7173_0_opt.xyz
  C -1.69119151 -0.73617511  0.17847763
  C -0.93250003  0.49975473 -0.23861510
  H -1.02493256  0.74651919 -1.29895754
  C -0.54905581  1.54923491  0.70973279
  H -0.75504184  2.33772519  1.38204291
  N  0.38104910  0.72540498  0.34505059
  C  1.60702052  0.26609969  0.34749121
  C  1.95646821 -0.83636130 -0.41966750
  N  2.27777104 -1.73307647 -1.07013345
  H  2.34101418  0.72201741  0.99379997
  H -1.49047095 -1.55707169 -0.50831883
  H -2.76075584 -0.52985122  0.17139567
  H -1.40389021 -1.04140783  1.18341570
