15
opt_min/./Product_6590_0_opt.xyz
  C -2.47904711  0.82207872  0.02137963
  C -1.78816897 -0.49150731 -0.21131940
  C -0.52068522 -0.61415232 -0.46129342
  C  0.76275273 -0.69060348 -0.66378259
  C  1.73503223 -0.86861822  0.42614021
  C  2.86902758 -0.23317442  0.47342603
  C  3.98344559  0.42466328  0.49588089
  H  4.05463913  1.39791396  0.95348018
  H  4.89052555  0.02174903  0.07442921
  H  1.44255269 -1.52742485  1.23345278
  H  1.16566504 -0.63652237 -1.66707774
  H -2.42002909 -1.37111031 -0.20559520
  H -1.81799259  1.52038385  0.53283924
  H -2.76923107  1.26657004 -0.93201830
  H -3.37784239  0.67520848  0.61760988
