14
opt_min/./Product_11227_0_opt.xyz
  N  3.21781700  0.58092900  0.97851000
  C  2.04507363  0.26192372  1.18523803
  O  1.00092531  0.31262645  2.01626307
  C  0.84017739 -0.38516200  0.74015473
  C -0.07577417  0.24054847 -0.27849794
  C -1.49756404 -0.31073348 -0.19617917
  C -2.34950881 -0.03991873 -1.33855349
  H -3.40277343 -0.23456562 -1.06772337
  H -1.47324383 -1.41213138 -0.34991258
  H -1.91715771 -0.16165849  0.80775347
  H  0.32897692  0.06269674 -1.27855572
  H -0.09889531  1.32115076 -0.11652864
  H  0.76403364 -1.46265080  0.87087487
  H  3.66028244  1.11931618  1.72190948
