19
opt_min/./Product_6743_0_opt.xyz
  C  2.06553300 -0.71913500 -0.06576500
  C  0.66100657 -0.27863719  0.34658463
  H  0.50994973 -0.51986476  1.40477899
  C  0.44616385  1.23133119  0.18716684
  H  0.94238906  1.75301635  1.00612002
  H  0.88459951  1.57977528 -0.74934393
  C -1.06288855  1.54713624  0.19213293
  H -1.27324923  2.47721350  0.72254135
  H -1.43358428  1.65179726 -0.83943426
  O -1.81158875  0.55957870  0.86016587
  C -1.79284092 -0.68255392  0.18579428
  H -2.03755805 -1.42711499  0.94777835
  H -2.58136415 -0.70234673 -0.58332151
  C -0.42737655 -0.99549467 -0.44924963
  H -0.27361447 -2.07442359 -0.45841421
  H -0.39774893 -0.64146544 -1.48242100
  H  2.44162310 -0.11034464 -0.88563902
  H  2.75933440 -0.63218094  0.76734270
  H  2.06013755 -1.75709400 -0.39188172
