8
opt_min/./Product_4715_0_opt.xyz
  O  2.14817972  0.16714586 -0.66996681
  N  2.58028415  5.03654251  12.41995506
  C  1.44754467  2.59734918  10.41615552
  N  2.52812247  0.38768973  15.08205052
  C -7.80696803  3.27408087  12.02810831
  O -11.14097154 -11.88754424 -8.42508349
  H -20.09137511 -0.12345808 -20.36396721
  H -1.67197211 -5.56554155  7.70348440
