8
opt_min/./Reactant_4715_0_opt.xyz
  O  2.04110300  0.28880400 -0.06915400
  C  0.76993168  0.01481571  0.13292147
  N  0.28030634 -1.19308395  0.24365569
  O -1.05978913 -1.00581414  0.43974186
  C -1.25604705  0.30570291  0.43578008
  H -2.24452610  0.69194372  0.57636205
  N -0.17889366  0.99405926  0.25897909
  H  2.53767377 -0.53272281 -0.17462126
