16
opt_min/./Product_221_0_opt.xyz
  C  0.79724500  0.98747800 -2.03671400
  C  1.02493147  0.81731320 -0.53427456
  C -0.26886972  0.93982203  0.20647099
  C -0.87908179  0.01044994  0.94299442
  C -0.41937879 -1.33088705  1.21305892
  C -1.08236776 -2.20132650  1.96726375
  H -0.71664566 -3.19721292  2.14901312
  H -2.02050294 -1.94440072  2.43238510
  H  0.51932727 -1.63014438  0.76442199
  H -1.82608357  0.25899315  1.40561611
  H -0.74879856  1.90298875  0.08845720
  H  1.70861740  1.59344862 -0.18623110
  H  1.48761152 -0.15191118 -0.34332126
  H  0.03506767  0.29622571 -2.38829020
  H  1.71553710  0.78476072 -2.58256528
  H  0.47784671  1.99900987 -2.27319082
