12
opt_min/./Product_2782_0_opt.xyz
  N  0.63253104 -0.60698699  1.33113708
  C -24.43943136  3.59759303  11.19394790
  C  65.38088875 -31.08104736  4.31866527
  H -5.64617752 -18.94243835 -15.36048109
  H  4.94043277  22.68403046  18.10194238
  N  6.67155976 -24.60296426  11.12145904
  C -0.95353082  14.70258743 -11.62368392
  H -0.81269538  0.88122498  8.03703004
  H  10.75017298 -10.24449303 -23.49370598
  C  0.16884261  14.32907931 -12.34432381
  H -0.02121000 -4.17302767  6.63593232
  H  23.67386274  5.29752637  1.97673371
