10
opt_min/./Reactant_237_0_opt.xyz
  C -1.17230700  0.63213000  0.30124800
  H -2.09263068  1.15222796  0.52654820
  C -0.91797607 -0.64970594  0.77359225
  H -1.63085394 -1.18246631  1.38760101
  N  0.21159083 -1.28235683  0.49439474
  C  1.08695814 -0.63295848 -0.25731524
  H  2.00834988 -1.15059512 -0.48431427
  C  0.83272261  0.64991603 -0.73019840
  H  1.54453367  1.18347960 -1.34404344
  N -0.29676960  1.28224257 -0.45088551
