16
opt_min/./Product_10332_1_opt.xyz
  C  1.39421700  0.65110700  0.72198400
  C  2.72261978  0.01633422  0.77640235
  H  3.35975894  0.55386341  0.07625227
  H  3.13531084  0.21174757  1.76527303
  H  2.76819636 -1.06043150  0.56267361
  C  0.30869152 -0.27703965  0.36073774
  C -1.07413258  0.38212105  0.26405763
  C -1.97474946 -0.36386735 -0.72767971
  H -1.54212531 -0.34756029 -1.72314220
  H -2.09655689 -1.39585688 -0.40620029
  H -2.95509529  0.10252914 -0.76865033
  O -1.63371591  0.35924534  1.56561522
  H -2.38058932  0.96172638  1.60425477
  H -0.94894305  1.42321650 -0.07034371
  H  0.25165208 -1.03840172  1.14692530
  H  0.55074717 -0.81352469 -0.56348679
