11
opt_min/./Product_11757_0_opt.xyz
  C  2.87151502  0.41162272  0.51500299
  C  1.68148245  0.34488669  0.36626933
  C  0.29275284  0.26419493  0.19764099
  C -0.71689750  0.11233589  1.16148729
  C -1.92673943  0.09399373  0.28425230
  H -2.47346888 -0.84411752  0.40669699
  H -2.63667180  0.87563543  0.55370821
  N -1.54247161  0.23697428 -1.09411048
  N -0.27123218  0.32447639 -1.05072823
  H  0.24408247  0.43032691 -1.92208394
  H  3.90811558  0.47586751  0.66055560
