13
opt_min/./Product_2918_0_opt.xyz
  C -0.52959700 -1.27564300  0.11654000
  C  0.26911804 -0.00982598  0.07035735
  N  1.60493042 -0.09811019  0.00139592
  C  2.41054938  0.88948091 -0.07182262
  H  3.46319362  0.66053725 -0.10526713
  H  2.11671542  1.93793441 -0.11196137
  O -0.33448501  1.15694896  0.10150970
  C -1.60559134  1.39054807  0.20029982
  H -1.88736050  2.42576183  0.20364771
  H -2.34589478  0.61290250  0.24581208
  H -1.08645784 -1.36041392  1.05098545
  H  0.15208069 -2.11493254  0.03342348
  H -1.24275851 -1.30606463 -0.70954406
