12
opt_min/./Product_10162_1_opt.xyz
  N  1.67892600 -0.48630500  0.25911800
  C  2.54597011  0.32008130  0.27416770
  O  3.42572753  1.05563364  0.43935045
  C  0.42200803 -0.92856941 -0.20701790
  C -0.66428148 -0.56438246  0.79154555
  H -0.44329867 -0.86398100  1.81674327
  C -1.55750865  0.57605005  0.57749979
  H -1.98286315  1.09231610  1.43063092
  H -1.45947744  1.16610651 -0.32768416
  O -1.98598588 -0.74634423  0.39153100
  H  0.19000412 -0.49280127 -1.18664085
  H  0.46485287 -2.02035731 -0.30089023
