14
opt_min/./Reactant_10162_0_opt.xyz
  N  2.38356900  0.57526100 -0.03216200
  C  1.93809508 -0.62824463 -0.45108452
  O  2.59763947 -1.39239697 -1.11432999
  C  0.52701544 -0.94954498  0.04701237
  C -0.45854290  0.10988338 -0.39260952
  H -0.57959960  0.19776026 -1.47003625
  C -1.57182386  0.52288518  0.46375725
  H -1.69150377  0.07738431  1.44422364
  H -2.48340363  0.89941127  0.01343248
  O -0.44142228  1.33162121  0.29487117
  H  0.23134701 -1.91978843 -0.35294841
  H  0.54847320 -0.99957977  1.13691582
  H  1.74839538  1.23862466  0.38183956
  H  3.27057068  0.90324241 -0.37851872
