14
opt_min/./Product_6648_0_opt.xyz
  C  1.33378000 -0.81613300 -0.75898400
  H  1.50861408 -1.80562300 -0.30785990
  N  1.66312574  0.23855087  0.30928003
  H  2.01925742  1.13362636 -0.00973452
  H  1.95022554  0.01379029  1.25967469
  C  0.28400609 -0.10063685 -0.05992113
  C -0.86814095 -0.20881776  0.97024721
  H -0.97981238 -0.75957671  1.90052287
  C -1.82539305 -0.18064772 -0.23012609
  H -1.80241591 -1.01908117 -0.91881661
  H -2.83206363  0.16487583 -0.01373318
  C -0.78774470  0.93540662 -0.41682876
  H -0.77052019  1.74409722 -1.13989228
  O -0.90828013  1.24887661  1.00554632
