14
opt_min/./Product_267_0_opt.xyz
  C -1.40068200 -0.78848700  0.20861200
  C -0.17444753 -0.07031867 -0.30594791
  H  0.03017318 -0.38058379 -1.34079854
  C  1.09812065 -0.08644939  0.64225579
  C  1.63778098 -0.89406791 -0.37894058
  H  2.16905821 -0.28747535 -1.12754148
  H  0.90963926 -0.46859050  1.64174181
  O  1.15838452  1.36383542  0.62965223
  C -0.05062894  1.44797274 -0.09669610
  H  0.04439263  2.05734186 -1.00115493
  H -0.85690705  1.84405908  0.53441647
  H -2.27453834 -0.44752857 -0.34744556
  H -1.56176786 -0.58859544  1.26626626
  H -1.29432739 -1.86172323  0.06740482
