12
opt_min/./Reactant_3724_0_opt.xyz
  C  2.52442200  0.82586800 -0.26032400
  C  1.27449956  0.17719899  0.04101274
  C  0.23423682 -0.37438746  0.29182703
  C -0.98790543 -1.06482182  0.58928793
  O -1.01247573 -2.23696437  0.88146964
  C -2.22336023 -0.20023732  0.51152164
  H -2.44507805  0.18450704  1.50256464
  H -2.08167713  0.63983014 -0.16071362
  H -3.06636135 -0.80167679  0.18872428
  H  3.25369494  0.59801800  0.51452067
  H  2.38835979  1.90402752 -0.31981098
  H  2.89444628  0.46556424 -1.21699851
