16
opt_min/./Product_7643_0_opt.xyz
  C -1.81696500  0.00764300 -0.07022700
  C -0.33615183  0.03591474  0.19490971
  C  0.32863029  1.27913380  0.68731070
  H  1.10304262  1.18980959  1.44166594
  H -0.26156144  2.17996932  0.78396015
  C  0.64609103  0.76972794 -0.70171604
  H  0.36829794  1.34031882 -1.57346896
  C  1.80762609 -0.14496935 -0.71655642
  H  2.70926505  0.03119886 -1.28337258
  N  1.69419769 -1.19759229 -0.02580710
  C  0.37796258 -1.25632171  0.58392886
  H -0.13910230 -2.12983466  0.16924686
  H  0.48204709 -1.41117192  1.65940169
  H -2.06134811 -0.72989478 -0.83702351
  H -2.15706811  0.98470083 -0.40880176
  H -2.35942405 -0.25359132  0.83859428
