11
opt_min/./Product_3636_1_opt.xyz
  O  2.78252167 -0.00917489  0.84426721
  N  1.89470281 -0.49222367  0.15942772
  C  0.60396166 -0.11066550  0.18107558
  C -0.13912783  0.98307169 -0.13589084
  H  0.13075316  1.99147302 -0.39304636
  C -1.43493321  0.23982808 -0.16464041
  H -2.14166025  0.51977294  0.61544155
  H -1.94954288  0.21704274 -1.12571310
  C -0.60173574 -1.03312336  0.12436084
  H -0.58898215 -1.75171064 -0.69039393
  H -0.81854530 -1.53968581  1.06240761
