12
opt_min/./Product_5338_0_opt.xyz
  C -1.22440666 -0.64781454 -0.12855881
  C -8.98889155  3.91328215 -3.75120367
  C -6.23864425 -3.42277418  26.45855000
  C  5.25306513  0.68742517 -0.65563725
  O -13.54212636  23.93859510  4.61179554
  H  8.36234600  17.24197392  4.82058137
  O -21.07819637  0.43370616  1.46660427
  H -26.81177605 -8.54979834  2.83172837
  H -8.55530138  1.79538805  9.13543394
  H  3.61735673 -5.75863583  8.74291367
  H -2.93290402 -6.67918005  1.53640813
  H -0.77458781  0.36159571 -0.13283329
