15
opt_min/./Product_3100_0_opt.xyz
  C  2.09610000  0.63863300  0.16022400
  C  1.14561752 -0.01851069 -0.83693407
  N -0.07594363 -0.44376602 -0.19050136
  C -1.18576152  0.21097111 -0.31835168
  C -2.34023907 -0.41552504  0.40402593
  O -3.36551808  0.49810549  0.71066825
  H -3.39631891  1.14992481  0.00059230
  H -2.72808295 -1.20087502 -0.27782021
  H -2.07647330 -0.90251354  1.35454733
  H  0.02595893 -1.27717459  0.40335484
  H  0.87163899  0.68823254 -1.62231444
  H  1.62750301 -0.89219757 -1.29014541
  H  1.59720889  1.46983708  0.65215652
  H  2.97912075  1.00925114 -0.35337200
  H  2.41209349 -0.07508218  0.91884758
