7
opt_min/./Product_2776_0_opt.xyz
  O -1.51284865  1.81136544  0.59807188
  C -1.10086579  0.78283327  0.39897596
  N -3.55733981 -1.86247142  0.80519451
  N -2.48985053 -2.03182815  0.41118535
  C -1.44900156 -2.49942335 -0.02812415
  H -0.53028956 -2.00515352 -0.22244016
  H  3.25887280  4.22758639 -0.10108006
