7
opt_min/./Reactant_2776_0_opt.xyz
  O  0.01081700 -0.90612300  0.02660100
  C  1.04504265 -0.05851891 -0.10683402
  H  2.05503228 -0.39991905 -0.01437948
  N  0.66417113  1.14722573 -0.34698095
  N -0.68588565  1.12676285 -0.37966884
  C -1.04131065 -0.09003581 -0.15745020
  H -2.04384144 -0.46284067 -0.11360698
