15
opt_min/./Product_6583_0_opt.xyz
  C  0.03173302  1.49649295 -0.45146116
  C  0.19415899  0.05409122 -0.02265147
  C  1.54232303 -0.27852346  0.32305395
  C  2.68182041 -0.55563938  0.57430417
  H  3.68419846 -0.78757340  0.78505421
  C -0.62796137 -1.00900502 -0.62436421
  H -0.15630964 -1.95912534 -0.83963225
  H -1.39816680 -0.72362993 -1.32898923
  C -0.87981242 -0.70488527  0.85592893
  C -2.00407509 -0.02121637  1.36199321
  H -2.50077018  0.58273554  0.57760267
  H -0.42812047 -1.39917430  1.56234829
  H -0.95006373  1.89351738 -0.21028927
  H  0.18152135  1.56143512 -1.52978224
  H  0.78459794  2.11766517  0.03416564
