19
opt_min/./Product_10399_0_opt.xyz
  C -2.26543800  0.04676200 -1.24154000
  C -1.91438382 -0.33540201  0.14200626
  C -0.69463461 -1.11960770  0.43298480
  C  0.56958765 -0.41567508 -0.03115182
  C  1.36872936 -0.93436686 -0.94805941
  H  1.16981548 -1.88808597 -1.40717281
  H  2.25735237 -0.42203916 -1.27291302
  C  0.79569301  0.93180313  0.61860894
  C  2.15615550  1.46896686  0.44441667
  H  2.30371451  2.52444654  0.32029715
  H  2.99460323  0.89276948  0.78929443
  H  0.56641685  0.81703884  1.69340111
  H  0.05476134  1.63011534  0.21922492
  H -0.62754383 -1.31519531  1.50487626
  H -0.73686491 -2.08349018 -0.08956357
  H -2.56248774 -0.02468088  0.94288360
  H -3.11485498 -0.54082136 -1.61068891
  H -1.42450831 -0.11833051 -1.91186074
  H -2.56971034  1.09385859 -1.29960826
