13
opt_min/./Product_9885_0_opt.xyz
  C -0.58406900 -1.21473600  0.13923000
  C -0.14078567  0.11061370 -0.34091165
  O  1.18497689  0.35357205 -0.61021854
  C  2.17296703 -0.19596883  0.09688623
  O  2.07696981 -0.90522509  1.04987735
  H  3.12600767  0.13238360 -0.35250345
  C -1.02939277  1.14911959 -0.46037712
  C -2.39316006  0.94020708 -0.40601029
  H -2.97181170  1.79512126 -0.04547648
  H -0.61659944  2.12931333 -0.70166161
  H -1.63933667 -1.30281760 -0.13544370
  H  0.01951960 -2.01062806 -0.29435526
  H -0.51430001 -1.29814929  1.22524656
