15
opt_min/./Product_11470_0_opt.xyz
  C  1.41557804 -1.10619595  0.29339798
  C  0.86091886  0.28991975  0.48509982
  H  1.20690521  0.78633511  1.38405229
  N  0.68222457  1.21696130 -0.60891051
  H  0.90178808  0.86607601 -1.53169099
  C -0.50639782  0.66257051  0.00136384
  C -1.41613686 -0.28998185 -0.74294689
  H -1.85853960  0.21700068 -1.59757949
  H -2.21915031 -0.62391354 -0.09190922
  H -0.87118522 -1.15848478 -1.10127129
  N -1.21781948  1.57144413  0.76803176
  C -1.82376403  2.32459027  1.41707068
  H  0.66182923 -1.86917603  0.46096172
  H  1.81032028 -1.22802950 -0.71123265
  H  2.22257622 -1.28143539  0.99378025
