12
opt_min/./Product_2779_0_opt.xyz
  N  1.91523400  0.47688800  0.03669299
  C  2.68971611  1.34241870 -0.00444357
  C  0.96392170 -0.54826295  0.08373263
  N -0.22264621 -0.17279738 -0.64849149
  C -1.05343421  0.86612028 -0.08765146
  H -0.76934051  1.31128315  0.86003952
  H -1.45539707  1.56451372 -0.80797220
  C -1.50478219 -0.53908688 -0.10212953
  H -1.53193804 -1.08364989  0.83708722
  H -2.23332230 -0.86441428 -0.83158325
  H  0.76240484 -0.76720666  1.15173533
  H  1.38691542 -1.44256096 -0.39235015
