15
opt_min/./Product_8909_0_opt.xyz
  C -1.21935700 -1.50265600 -0.22310800
  N -0.31637951 -0.46578364 -0.67475203
  C -0.58722767  0.91171663 -0.23253558
  H -1.53993895  1.20422398  0.17332073
  C  0.45093091  1.73148337 -0.97118766
  H  0.35904815  2.47229625 -1.74187948
  C  1.46897815  1.04815782 -0.44801784
  H  2.52759229  1.02255310 -0.62185996
  C  0.53477819  0.15319766  0.36537385
  N  0.69986838 -0.43760747  1.63089473
  H  1.64862947 -0.75666841  1.77492155
  H  0.40816585  0.15693108  2.39669316
  H -1.49818570 -2.10497958 -1.08787083
  H -0.71353226 -2.13241225  0.51019026
  H -2.12769462 -1.10355474  0.23769769
