15
opt_min/./Product_8882_0_opt.xyz
  C  3.09230588 -0.16188149 -0.01949788
  N -0.54245804 -39.50787340  100.32436624
  C  26.93867456 -57.95861229 -40.75572460
  C -71.94792403 -23.94687319  17.49859614
  C  55.69703580 -56.36401233 -43.41127934
  C -52.50710522  63.08107067  19.30382554
  H -48.09016958 -6.02810125  54.51014008
  H  10.28664984 -6.97337337 -18.05703323
  N  35.79140079 -8.96316294 -6.76862993
  H -33.01757344  22.81545461  70.46628388
  H -42.16959532  52.29834877  32.67263158
  H  36.07509607 -12.52213287 -25.16814388
  H -37.97017924 -27.75999008 -24.32948979
  H  5.67860372  43.74498736  59.99510854
  H  62.25578019 -31.82786252 -36.34275237
