10
opt_min/./Reactant_11397_0_opt.xyz
  N  1.85152600  0.05310500 -0.15955300
  C  0.54148923 -0.27109531 -0.04367636
  N  0.07915549 -1.43211455  0.27409564
  O -1.30032978 -1.29104492  0.37868135
  C -1.65967177 -0.02375152  0.10843081
  O -2.76737252  0.42000460  0.10726796
  N -0.47308089  0.64983845 -0.17145130
  H -0.40769255  1.62690210 -0.39622118
  H  2.08859832  0.81349225 -0.77584141
  H  2.47395304 -0.73928035 -0.18006651
