11
opt_min/./Product_3647_0_opt.xyz
  O -1.22687500  1.66064100 -0.94466000
  C -0.43847585  0.60229951 -0.73039541
  C -0.88501052 -0.78739669 -0.49479193
  H -1.95804290 -0.87275293 -0.34108013
  H -0.47835882 -1.55559391 -1.14430241
  C -0.01946575 -0.40215251  0.72100317
  N  1.34098759 -0.57962914  0.07971358
  H  2.10067134 -0.51635189  0.75468737
  C  0.86803690  0.68962315 -0.27379505
  H  1.42854752  1.60386146 -0.15892491
  H -2.15537293  1.39784180 -0.96766495
