12
opt_min/./Product_8975_0_opt.xyz
  N  2.20366500 -0.40739100 -0.09407600
  C  0.85133330 -0.20773248  0.01393418
  C  0.31124253  0.77018375  0.83331574
  H  0.91395296  1.35517459  1.51800895
  N -0.99556591  1.05984442  0.83027515
  C -1.76401691  0.36094882  0.05962476
  H -2.81891534  0.58963458  0.02488586
  N -1.29474990 -0.66405788 -0.69605122
  H -1.96421163 -1.20984196 -1.22707388
  C -0.00280638 -1.03631714 -0.79773097
  H  2.78602827 -0.18933393  0.69725452
  H  2.44536223 -1.25898526 -0.57901327
