16
opt_min/./Product_10726_0_opt.xyz
  N  2.49101300  0.49065800 -0.84546400
  C  1.76759786  0.03508423  0.08290861
  O  1.71347429  0.69392422  1.24073089
  H  2.19965939  1.52354353  1.15255705
  C  0.91906576 -1.21339791  0.07183324
  C -0.38387313 -0.97484405 -0.70171062
  C -1.16506758  0.23237983 -0.17492536
  O -0.56162250  1.46461648 -0.48201903
  H -0.42942460  1.52617810 -1.43439034
  H -1.21325167  0.20357078  0.91596310
  H -2.19230682  0.20301256 -0.57150300
  H -1.01250594 -1.86403467 -0.62915270
  H -0.15240799 -0.81071104 -1.75945459
  H  0.69530150 -1.48249802  1.10490191
  H  1.47414706 -2.02626283 -0.40064673
  H  2.49968566 -0.05874507 -1.69702830
