16
opt_min/./Product_479_0_opt.xyz
  C -1.81708800 -0.92561300  0.27525600
  C -0.78072541  0.08571720 -0.05271868
  C -0.70250301  1.41378715  0.01108794
  H -1.37396237  2.19803134  0.30272331
  C  0.71597112  1.48200315 -0.49806244
  H  1.44338007  1.85437797  0.21710279
  H  0.84593910  1.98649199 -1.45126657
  C  0.63352420 -0.07294871 -0.57540661
  C  1.58795006 -0.84244353  0.32781167
  H  1.58721327 -0.41551235  1.32556038
  H  2.60159451 -0.80662995 -0.06186303
  H  1.27972527 -1.88154012  0.39704712
  H  0.69355625 -0.46408275 -1.59280051
  H -1.61413600 -1.86380291 -0.23565001
  H -2.80277797 -0.57014808 -0.01538831
  H -1.83471316 -1.11707035  1.34755091
