10
opt_min/./Product_7504_0_opt.xyz
  C  1.21800959 -0.27072333 -0.83651068
  C  2.29510207 -0.11756401 -1.34312538
  H  3.23701742  0.02593347 -1.77436500
  N  0.02371905 -0.44604831 -0.26838452
  C -0.47614738  0.40432418  0.69283110
  C -1.56993895  0.16539051  1.40734105
  H -2.14466722 -0.73801043  1.29111728
  H -1.92757046  0.88065665  2.12243782
  H  0.09841896  1.31298661  0.81174086
  H -0.43105031 -1.33898815 -0.39831508
