14
opt_min/./Product_6934_0_opt.xyz
  N -2.25668700 -0.44635200 -0.21936700
  C -1.09693529  0.01162706  0.51978167
  H -1.29328331  0.09345805  1.61097381
  C  0.13408118 -0.83208800  0.31675698
  H  0.16887127 -1.88715281  0.49464938
  C  1.11179589 -0.01267436 -0.12138733
  N  2.44177523 -0.29150980 -0.37221567
  H  2.95663622  0.48249363 -0.76716486
  H  2.62759484 -1.15231871 -0.86330805
  C  0.51192942  1.31317205 -0.21382065
  H  1.03564481  2.20396544 -0.51808884
  N -0.71969458  1.34530723  0.11232890
  H -2.62226087 -1.29350402  0.19957724
  H -2.97184635  0.27066123 -0.19078762
