16
opt_min/./Product_9957_0_opt.xyz
  C  3.04351103  0.59833583  0.23421626
  C  2.04013575 -0.19240100  0.02614420
  C  1.01830081 -0.96910305 -0.15645870
  C -0.31531300 -0.77385306  0.52763185
  N -0.92303214  0.45454794  0.05621714
  C -2.30512513  0.68908733  0.38376417
  H -2.55700034  1.70342569  0.65974405
  H -2.84383061 -0.07594243  0.93626742
  C -1.89528826  0.37898516 -1.00264934
  H -1.83378489  1.17795903 -1.72961864
  H -2.16032068 -0.58966619 -1.41459744
  H -0.95335173 -1.65052082  0.33086514
  H -0.17631384 -0.68062431  1.60825113
  H  1.08552782 -1.78385942 -0.86669146
  H  3.79132887  0.37419340  0.97903631
  H  3.18266913  1.48688114 -0.36048164
