12
opt_min/./Product_570_0_opt.xyz
  C  1.07078800 -0.03814700  0.15574700
  H  1.81789468  0.61645586 -0.28626977
  H  0.77992131  0.26810349  1.15422088
  C  1.03320964 -1.48588160 -0.26861378
  H  1.47811335 -2.43887817 -0.13518807
  C -3.02785214 -1.44681681 -2.00126226
  H -3.61558016 -0.66220202 -1.55909743
  H -3.58287570 -2.16597438 -2.58269854
  C -1.71378338 -1.37439501 -2.10303833
  H -1.10933501 -2.06598736 -2.68014098
  O -1.01562436 -0.41433747 -1.41295189
  C  0.08818892 -0.72164563 -0.73809220
