12
opt_min/./Product_5952_0_opt.xyz
  N  4.80538796 -2.14460129 -4.68268795
  C  3.93091825 -1.01781422 -4.47390521
  C  2.63024828 -1.36789175 -3.74204047
  O  2.05202042 -2.59965383 -4.02661749
  H  2.06518550 -2.73064232 -4.98369223
  C  2.10798989 -0.53996287 -2.88065733
  N  1.66894894  0.30425449 -2.11332412
  H  0.95549305  0.94656177 -2.44690414
  H  3.70353982 -0.57713610 -5.45359346
  H  4.46780186 -0.27408461 -3.88206743
  H  4.36172559 -2.86079685 -5.24813177
  H  5.07028150 -2.56468348 -3.79841247
