12
opt_min/./Product_2637_0_opt.xyz
  C -1.57404000  0.37139800 -0.04538500
  C -0.35804435  0.45460953  0.87094954
  C  0.66409442 -0.54958656  0.51521248
  C  1.78148671 -1.15656991  1.16650322
  C  1.00833752 -1.27443021 -0.66816194
  C  2.19102354 -0.70110596 -0.11963505
  H  3.01434306 -0.13888974 -0.50178629
  H -0.64803732  0.30394999  1.91363643
  H  0.11322654  1.43962284  0.78465047
  H -2.08318425 -0.57938288  0.08993518
  H -2.27145521  1.17454418  0.18085017
  H -1.27112364  0.45052880 -1.08723965
