17
opt_min/./Product_7115_0_opt.xyz
  C  2.58875700 -0.72238500 -0.07502100
  C  1.53241162  0.31031494  0.13922874
  O  0.27865693 -0.09602998  0.07197839
  C -0.80378582  0.59481888  0.10027194
  O -2.00555969 -0.08753778  0.09141858
  C -1.91122867 -1.47832187 -0.10579955
  H -2.93417528 -1.84845550 -0.11806078
  H -1.42297525 -1.71536025 -1.05675000
  H -1.35059047 -1.95313515  0.70641264
  C -0.89187200  2.07981158  0.18609114
  H -1.88973313  2.38350629 -0.11306079
  H -0.15307674  2.52747522 -0.48213988
  H -0.69649522  2.45208036  1.19478989
  H  1.76038625  1.35934435  0.20399526
  H  2.47406255 -1.23595207 -1.03343273
  H  2.58424069 -1.48493539  0.70763762
  H  3.56056335 -0.23543238 -0.06495178
