17
opt_min/./Product_11042_0_opt.xyz
  C -1.76935300  0.10370700  0.86404600
  C -1.26499718 -0.94270226 -0.11974568
  C -0.30938054 -0.34036048 -1.15218487
  C  0.95007387  0.11481762 -0.54328361
  C  1.75962464  0.30630460  0.45399626
  O  2.06665313  0.23552804  1.75439042
  H  2.94545771  0.60466997  1.90503200
  C  2.26450665  0.80077543 -0.85955105
  H  3.04761861  0.25225509 -1.38044200
  H  2.28064082  1.86759011 -1.07130959
  H -0.08198046 -1.08239981 -1.92633028
  H -0.79116322  0.50886014 -1.64903706
  H -0.74922293 -1.73616153  0.42580904
  H -2.11237660 -1.38984742 -0.64555414
  H -2.38843779 -0.35953545  1.62975541
  H -0.92967612  0.59622357  1.34899574
  H -2.36325442  0.85798889  0.34904703
