13
opt_min/./Product_9764_0_opt.xyz
  O -0.53400205 -2.11578478 -0.60188101
  C -3.09808423 -2.08450859  2.04567363
  H -3.35710470 -3.03707313  2.48385286
  H -3.87352170 -1.33364891  2.03369537
  C -2.03314671 -1.95996228  1.31311059
  C -0.88985018 -1.83102043  0.72095527
  C  0.47278829 -1.28613229  1.07418470
  H  1.04189604 -1.90730359  1.76136365
  H  0.51408213 -0.24232179  1.37259001
  C  0.78108479 -1.59161926 -0.39687225
  O  1.78297735 -2.52362127 -0.56638942
  H  1.69555928 -2.93086478 -1.43599438
  H  0.93614228 -0.70986030 -1.04178933
