13
opt_min/./Product_1979_0_opt.xyz
  N -2.39592900 -0.02281100  0.29197400
  C -1.12025083 -0.54321762 -0.15887917
  C  0.07501586 -0.04879359  0.65054486
  H  0.08255500 -0.35810158  1.69476078
  C  1.32162246  0.33358778  0.02158758
  N  2.42242489 -0.09719587 -0.57715016
  H  2.66020310 -1.07387937 -0.55711274
  H  3.13479139  0.56482138 -0.83598198
  N  0.62357675  1.33017149  0.36943805
  H -1.11824072 -1.63622068 -0.07981016
  H -0.96814323 -0.27213671 -1.20521671
  H -2.52507906 -0.25171552  1.27320602
  H -2.38862966  0.98982455  0.22042615
