11
opt_min/./Product_8426_1_opt.xyz
  O  2.53533000  0.54270500  0.39065500
  C  1.41103409  0.09127928 -0.23162687
  C  0.20023104  0.21129484  0.31755035
  C -1.00201681 -0.25355217 -0.32263140
  C -2.21754583 -0.14368653  0.20741202
  H -2.36915405  0.31241369  1.17133114
  H -3.09437345 -0.50266086 -0.30231500
  H -0.87533297 -0.71568884 -1.29395475
  H  0.11156405  0.67709683  1.28695340
  H  1.54717793 -0.37171704 -1.20298664
  H  3.31340614  0.35053525 -0.14088086
