15
opt_min/./Product_11078_0_opt.xyz
  C  1.68317900 -0.51919100 -0.84078300
  C  1.28381305 -0.12746752  0.55993042
  C -0.16133563 -0.30739976  0.91646293
  H -0.31327188 -1.18819202  1.54679231
  C -1.24224085  0.11886866 -0.02345679
  N -1.86658058 -0.22354210 -1.18273078
  H -1.84101275 -1.21157162 -1.39624099
  H -2.78302499  0.18505887 -1.31039452
  C -1.08118577  0.87523624  1.02882243
  H -1.36568872  1.67959242  1.65645943
  N  2.07048220  0.28814294  1.45004764
  H  3.04386906  0.37730537  1.16050910
  H  2.58239706  0.00957220 -1.15317938
  H  0.88041015 -0.31622803 -1.54574119
  H  1.89173456 -1.59016366 -0.85288037
