12
opt_min/./Product_2952_1_opt.xyz
  O -2.37780577  0.67869556  0.39378210
  C -1.07447766  0.35819359  0.26089809
  C -0.01688867  0.98356671 -0.25319561
  H  0.15076183  1.94712316 -0.68918378
  C  0.90121386 -0.18872774  0.03506033
  O  1.91820950  0.00446498  0.98308609
  H  2.55858747  0.62853728  0.62415468
  H  1.29972488 -0.68713139 -0.86156848
  C -0.34028298 -0.89388071  0.64322048
  H -0.24059432 -1.07991227  1.71067774
  H -0.65032991 -1.80382002  0.12782461
  H -2.83750570 -0.02214149  0.87285544
