12
opt_min/./Product_1699_0_opt.xyz
  C  2.17608501 -1.28235699  0.05066398
  C  1.28871984 -0.50437431 -0.15092258
  C  0.23657414  0.48687637 -0.37317437
  C -0.92388256  0.14730017  0.52471466
  C -1.98439928 -0.53954627  0.15223422
  H -2.77956087 -0.77455394  0.83746259
  H -2.10860227 -0.90717216 -0.85463497
  H -0.80572463  0.51563235  1.53418840
  O  0.67234475  1.79653519 -0.05849331
  H  1.51172292  1.95912421 -0.50433222
  H -0.07378074  0.43317577 -1.43248429
  H  2.94667960 -1.97570939  0.22476687
