14
opt_min/./Product_9496_0_opt.xyz
  C  1.92438300  0.20770300  0.05410000
  N  0.52852732 -0.09061649  0.01641354
  C -0.50431203  0.82101527  0.00549010
  N -0.25368946  2.07670487  0.03642082
  H -1.09974489  2.63802636  0.02782986
  C -1.70949166  0.00661371 -0.03965237
  H -2.71043935  0.38646348 -0.05770863
  C -1.33161734 -1.29199143 -0.05430912
  H -1.93440619 -2.17922214 -0.08611637
  N  0.02019260 -1.37622838 -0.02174135
  H  0.60613164 -2.19072096 -0.02449947
  H  2.49254808 -0.71585151  0.15530844
  H  2.23034151  0.72824989 -0.85664130
  H  2.13483038  0.86319265  0.90191146
