11
opt_min/./Product_9179_0_opt.xyz
  O  2.46807600  0.42983900  0.07074100
  C  1.27914276  0.18792962  0.03516831
  C  0.20883929  1.17239641  0.05473335
  H  0.47362915  2.21354829  0.10502132
  C -1.06994771  0.75757541  0.00983530
  H -1.90014460  1.45185633  0.02203589
  N -1.35991383 -0.57713793 -0.05358317
  H -2.32834547 -0.86027997 -0.08625482
  C -0.45258060 -1.57631572 -0.07723083
  N  0.81743550 -1.12950173 -0.03114551
  H  1.53857651 -1.84034808 -0.04636650
