17
opt_min/./Reactant_6436_0_opt.xyz
  C  1.82743600 -0.02117000 -0.44409200
  C  0.37225432 -0.01302865 -0.05483760
  C -0.23853173 -1.15916549  0.77413111
  H -0.16408785 -1.07630159  1.86269105
  H  0.10702776 -2.13905624  0.45562797
  C -1.55345598 -0.77788298  0.12715398
  H -2.45901419 -1.36066442  0.10952120
  C -1.56581897  0.73591715  0.00888563
  H -2.48164927  1.29139672 -0.11085001
  C -0.25726807  1.23540582  0.58165024
  H -0.17375981  1.33254402  1.66663429
  H  0.06814266  2.15622658  0.10264663
  C -0.85879539 -0.10239224 -1.01656917
  H -0.95635325 -0.16882602 -2.08473896
  H  2.41748702  0.45367217  0.33961459
  H  2.18419368 -1.04149785 -0.58122789
  H  1.98250046  0.52573490 -1.37383437
