11
opt_min/./Product_11224_1_opt.xyz
  O  1.48109100 -0.29571800 -0.90145100
  C  0.94101659  0.66222328 -0.03752813
  H  1.58394460  1.43420905  0.34953063
  C -0.57655202  0.72751420 -0.24609330
  H -1.05306781  1.30142667  0.54536794
  H -0.92032041  1.07218892 -1.21677923
  C -0.63692482 -0.79801446  0.00794412
  H -1.24132746 -1.10175196  0.85568790
  H -0.90219264 -1.38365792 -0.86977626
  C  0.87791066 -0.77212503  0.26459721
  H  1.44217308 -1.36060595  0.96601061
