9
opt_min/./Product_2537_1_opt.xyz
  N  0.80357800  1.25545900 -0.34525600
  C  0.38652733  0.09880766 -0.07160128
  O  1.27785222 -0.89253844  0.06528354
  H  2.16448985 -0.52797158 -0.07374288
  C -1.02624464 -0.36885244  0.14780801
  H -1.73727208  0.37311296 -0.20510051
  H -1.18430998 -0.54075934  1.21089937
  H -1.18373708 -1.31052500 -0.37119089
  H  0.08758959  1.96623933 -0.43623946
