15
opt_min/./Reactant_2537_0_opt.xyz
  C -1.95418300 -0.62853400  0.12698300
  C -1.11471170  0.62270283 -0.12200891
  N  0.28044828  0.30605623 -0.32932304
  C  1.22629846  0.51540176  0.61849651
  O  0.98571507  1.05649602  1.67528166
  C  2.60633925  0.04198402  0.21247130
  H  3.27870998  0.13550826  1.05961233
  H  2.57553792 -0.99477414 -0.11386993
  H  2.97559124  0.65774832 -0.60452139
  H  0.52246367 -0.19655673 -1.16766467
  H -1.49106127  1.16107436 -0.99787789
  H -1.15524303  1.27868254  0.74928826
  H -1.87266427 -1.32187477 -0.70792759
  H -2.99848494 -0.35628093  0.24770155
  H -1.61476945 -1.12836915  1.02991279
