15
opt_min/./Product_10631_0_opt.xyz
  O  2.31654300 -0.08195500  0.12475300
  C  0.93445622 -0.08247357  0.06238060
  C  0.20225274  1.24613346 -0.11975003
  H  0.39077092  1.91619474  0.71976979
  H  0.52962170  1.73313554 -1.03811487
  C -1.25540921  0.77302970 -0.18524314
  H -1.86010101  1.19100836  0.62034609
  H -1.72494796  1.01103511 -1.13899285
  C -1.09058146 -0.73010737 -0.02158099
  H -1.96642362 -1.36031519 -0.04266698
  C  0.20231240 -1.19617537 -0.62574781
  H  0.48828148 -1.96585992 -1.29956502
  C  0.08576118 -1.05116497  0.84514374
  H  0.25240233 -1.68016321  1.68788901
  H  2.59296600  0.21889306  0.99767416
