16
opt_min/./Product_3910_0_opt.xyz
  C  1.90811400 -0.09319100  0.30531700
  C  0.62506781  0.72693182  0.20892664
  C -0.52045268 -0.02972633 -0.47674530
  C -0.96638329 -1.25497839  0.31871703
  H -0.15631492 -1.97278745  0.41452516
  H -1.29577135 -0.95851268  1.31142892
  H -1.79669874 -1.74495250 -0.18442311
  C -1.69031795  0.89916435 -0.66558569
  C -2.90411600  1.02323558 -0.25623355
  H -1.48212482  1.74152338 -1.33095330
  H -0.17643933 -0.35492928 -1.46709705
  H  0.83446763  1.64356623 -0.35100088
  H  0.30574665  1.03319701  1.20809990
  H  1.81194435 -0.90060507  1.02322168
  H  2.16886513 -0.50475954 -0.66648506
  H  2.72867562  0.54397394  0.62782622
