14
opt_min/./Product_3584_0_opt.xyz
  C  0.96810400  0.58658100 -0.53285800
  H  0.75898254  1.60666966 -0.22694720
  H  1.38267534  0.59885135 -1.53945576
  C  1.72996629 -0.24286146  0.50790787
  H  2.16648992  0.27808080  1.36105143
  H  2.50347068 -0.89886004  0.11332115
  C  0.49563183 -1.02856711  0.85975536
  C -0.21811774 -0.36541735 -0.29795795
  C -1.59833481  0.23413586  0.02899792
  O -2.59462513 -0.74438949  0.12100331
  H -2.35743509 -1.35597813  0.82783639
  H -1.51757771  0.80476423  0.96513087
  H -1.90138854  0.91431323 -0.76894477
  H -0.37118662 -1.09317842 -1.09704582
