13
opt_min/./Product_700_0_opt.xyz
  C -1.76477300  0.08018900  0.18459200
  C -0.28869976  0.05890633  0.00647569
  C  0.50032466  0.99125378 -0.54006058
  H  0.23597191  1.94953926 -0.94715511
  N  1.82668744  0.53729795 -0.51382405
  H  2.59166050  1.08435550 -0.87712828
  C  2.01043405 -0.65518525  0.01843885
  C  0.61354155 -1.07492745  0.41646696
  H  0.36297287 -2.01801671 -0.06714425
  H  0.57724548 -1.24553519  1.49288751
  H -2.23907930 -0.54438339 -0.56954601
  H -2.13975322  1.09651491  0.10061879
  H -2.03335005 -0.30516144  1.16609943
