13
opt_min/./Reactant_7928_0_opt.xyz
  C -1.28664400  0.68754800 -0.11154100
  H -1.62346616  1.40105911  0.64085109
  H -1.68129622  0.96524519 -1.08912085
  C -1.44479633 -0.81359689  0.26560021
  H -1.96334769 -1.43068322 -0.46204451
  H -1.85130076 -0.99368327  1.25717298
  C  0.05941615 -0.84435915  0.19847198
  N  1.21764200 -1.43476043  0.28683305
  C  2.09926062 -0.42737207  0.00694609
  H  3.15433010 -0.61473160  0.00239992
  C  1.46782220  0.77158249 -0.24111381
  H  1.84687362  1.74055866 -0.48428893
  N  0.14969029  0.46794245 -0.11116315
