17
opt_min/./Product_10872_0_opt.xyz
  C  1.94078100 -0.05824200  0.32361300
  C  0.75514634  0.72611770 -0.21163745
  H  0.71384564  1.71495741  0.24731747
  O  0.76274595  0.84606688 -1.65095109
  C -0.38626604  0.24599754 -1.86629241
  C -0.63078765  0.02139471 -0.35886347
  C -0.74438037 -1.43697848  0.04990831
  H -0.95218533 -1.52660223  1.11301166
  H -1.56538260 -1.88618801 -0.50346998
  H  0.15767033 -1.99163660 -0.18641144
  C -1.82022738  0.82947796  0.14834497
  H -2.00423515  0.62260832  1.19887423
  H -2.70289701  0.56241398 -0.42443676
  H -1.65089696  1.89682550  0.02742781
  H  2.74999031  0.60992354  0.60570089
  H  2.30880258 -0.73012060 -0.44660049
  H  1.65372210 -0.63564612  1.19545958
