13
opt_min/./Product_6836_0_opt.xyz
  N -2.15362800  0.29195900 -0.06703400
  C -0.88466614 -0.13091772  0.48240132
  H -0.89222880 -0.16443273  1.59800348
  C -0.49580926 -1.56564720  0.16799033
  N  0.75595873 -1.46221446 -0.23410070
  H  1.33982594 -2.24480306 -0.49338018
  C  1.24670730 -0.15157156 -0.31955643
  O  2.52202762  0.00670900 -0.74169053
  H  2.73503151  0.94284487 -0.80984712
  C  0.30203506  0.70631341  0.06979328
  H  0.32656150  1.77454602  0.11124791
  H -2.49161913  1.12536879  0.40289073
  H -2.83628830 -0.44675264  0.05716258
