13
opt_min/./Product_8541_0_opt.xyz
  O  2.29844800 -0.63650900 -0.09361000
  C  1.00853614 -0.16578022  0.03594138
  C  0.71684525  1.12087039  0.20153824
  H  1.46072516  1.89562707  0.30363902
  O -0.55064327  1.61438382  0.26765579
  C -1.54654408  0.65888287 -0.02047344
  H -2.47188693  1.03041431  0.42921744
  H -1.66469092  0.59299214 -1.11950420
  O -1.29603317 -0.58606407  0.52820005
  C -0.12176912 -1.17189070 -0.01800853
  H  0.09783403 -2.04084889  0.60465862
  H -0.30294010 -1.51378541 -1.04596284
  H  2.65299936 -0.86165278  0.77535655
