13
opt_min/./Product_976_0_opt.xyz
  C  0.18791000 -1.50956400 -0.22033200
  N  0.17371108 -0.19915875  0.40043282
  C  1.04520629  0.73550337 -0.27783955
  H  1.01814347  1.69726709  0.23299560
  H  2.06419357  0.35244686 -0.24419369
  H  0.75455202  0.89845278 -1.32776765
  C -1.14736801  0.29722010  0.60084709
  C -1.62243922  1.38953877  0.08449303
  O -1.97013768  2.42539769 -0.33458221
  H -1.77187370 -0.32683809  1.22080866
  H -0.16872964 -1.48496901 -1.26168459
  H  1.20622389 -1.89456417 -0.20160397
  H -0.45645859 -2.18470317  0.34144830
