12
opt_min/./Product_10596_0_opt.xyz
  O  2.58611000  0.51177400 -0.59085800
  C  1.80969684 -0.05808680  0.11988280
  C  0.45012232  0.47895128  0.47689383
  H  0.50140880  1.56420590  0.62967267
  C -0.60969591  0.13564386 -0.66836073
  H -0.70874489  0.92192827 -1.41386711
  H -0.33097427 -0.79409999 -1.17647374
  C -1.87284915  0.06554760  0.19384366
  H -2.87716096  0.16153404 -0.14629200
  C -1.33106449 -0.27912940  1.36102569
  N -0.09386677 -0.28288214  1.60842667
  H  1.99400461 -1.06917108  0.52030829
