13
opt_min/./Product_5430_0_opt.xyz
  C  0.20942700  1.41188800  0.02105300
  C  0.33306757 -0.07808983 -0.01983368
  C  1.42733238 -0.73036875  0.33995865
  H  1.49927361 -1.80487606  0.30505065
  H  2.31031623 -0.21051076  0.67189321
  C -0.91346167 -0.80587623 -0.45320106
  O -1.96090611 -0.65762841  0.48743085
  H -1.63548432 -0.93497453  1.35205687
  H -0.70363306 -1.87299071 -0.61173877
  H -1.30271420 -0.37680407 -1.38254621
  H -0.69104068  1.69114529  0.57035043
  H  1.07474315  1.86859568  0.49676225
  H  0.11581032  1.79848623 -0.99463098
