19
opt_min/./Reactant_8300_0_opt.xyz
  C -0.82100800  0.59703600  1.19948000
  C -0.85987768  0.18196483 -0.26941755
  C -1.81725187 -1.00156388 -0.44709856
  H -1.90726263 -1.27225240 -1.49463472
  H -1.44890232 -1.86474142  0.09769398
  H -2.80228693 -0.74991841 -0.07066373
  C  0.49298036 -0.17194170 -0.86905078
  H  0.38063565 -0.61198934 -1.85072958
  C  1.69922166  0.71317927 -0.70806985
  H  1.62393911  1.54241083 -0.02479023
  H  2.32539157  0.91375899 -1.56266282
  C  1.70180271 -0.67065293 -0.12194733
  O  1.69025203 -0.87876688  1.25406460
  H  2.31102834 -0.28040844  1.67960187
  H  2.30289141 -1.41603945 -0.63871595
  H -1.24988018  1.02918147 -0.84718423
  H -1.81795930  0.89070293  1.51952664
  H -0.16647800  1.44857456  1.35095785
  H -0.48585295 -0.22100319  1.82628881
