18
opt_min/./Product_6811_0_opt.xyz
  C -1.93353900  0.78316000  0.48064600
  C -1.11522987 -0.19892893 -0.34410711
  H -1.75636637 -0.66188804 -1.09467335
  C -0.22582907 -1.20304315  0.42529503
  H -0.44682227 -2.25088936  0.23611216
  H -0.21178846 -1.03408612  1.49866700
  C  1.03056010 -0.66361078 -0.29606047
  C  2.15209012 -0.11041109  0.56887505
  H  1.74057577  0.48462675  1.38250839
  H  2.75406296 -0.91029415  0.99196138
  H  2.80067697  0.53650874 -0.01985746
  H  1.44071626 -1.36284915 -1.02708365
  C  0.13600768  0.37699536 -0.95860667
  N  0.27931828  1.37310064 -1.69933762
  H  1.24290548  1.57456865 -1.96583960
  H -1.33134521  1.18988696  1.29099099
  H -2.81137446  0.30295385  0.90399855
  H -2.24513631  1.60930072 -0.15314956
