12
opt_min/./Product_2371_0_opt.xyz
  C  2.25403800  0.81793300  0.10575400
  O  1.00883737  0.49595479  0.04458736
  C  0.46728498 -0.63263542  0.37037561
  C -0.98504852 -0.80996937  0.21997943
  H -1.34173070 -1.79361665  0.50809746
  C -1.92056805  0.32798638  0.32776833
  H -2.92523938  0.15416009  0.69675700
  H -1.52268031  1.32155237  0.49227975
  O -1.62258652 -0.25541737 -0.90478184
  H  1.07406937 -1.44263045  0.75382292
  H  2.99976060  0.11832374  0.44898917
  H  2.51597646  1.79469912 -0.24551167
