16
opt_min/./Product_2559_0_opt.xyz
  C -1.50463300  0.96213200 -1.00200200
  C -0.69224645 -0.32160990 -0.78989238
  C -1.07228148 -0.98043967  0.53397170
  H -0.51481692 -1.90400128  0.67461904
  H -2.13554786 -1.20938751  0.54698629
  H -0.85022620 -0.31368069  1.36472049
  C  0.77698212 -0.01941409 -0.83856280
  O  1.51141024 -0.23223784  0.19204874
  C  2.77643495 -0.00509302  0.33258257
  H  3.20188552 -0.27456603  1.27676612
  H  3.37055394  0.41149555 -0.46220460
  H  1.20337691  0.41599449 -1.73621132
  H -0.93562968 -1.01027230 -1.61341499
  H -1.31249691  1.66939938 -0.19727171
  H -1.23406150  1.43290649 -1.94610326
  H -2.56925255  0.73867077 -1.02193555
