9
opt_min/./Product_10558_1_opt.xyz
  C -0.29379900 -0.09885600 -0.48166400
  C -1.59405264 -0.18790226  0.14408682
  H -1.80856855  0.45336303  0.99170860
  H -2.14241310 -1.12045230  0.07019938
  O -1.36046637  0.47897554 -1.09697733
  C  1.09418113  0.12734556 -0.38335748
  N  2.10106319  0.74326234 -0.04872894
  H  2.99264586  0.32684040 -0.30642349
  O  0.64800854 -1.02203311 -1.00841501
