17
opt_min/./Product_11051_0_opt.xyz
  C  2.69101300 -0.00196400 -0.50869300
  N  1.93798906 -0.85307650  0.48529765
  C  0.88336960  0.05236441  0.94137526
  O  1.08326127  0.75411989  1.91713728
  N -0.26381301  0.05879195  0.20787939
  C -1.13227192  1.20941631  0.31650486
  H -2.16883555  0.88110357  0.34736808
  H -0.88620451  1.72748112  1.23963396
  H -0.99086214  1.89505647 -0.52383844
  C -0.51909824 -0.88629361 -0.85575890
  H -1.50705627 -0.69099042 -1.25939125
  H -0.50314032 -1.91253220 -0.47815715
  H  0.20645142 -0.79797604 -1.67219417
  H  1.64008375 -1.72928249  0.05895238
  H  2.57487575 -1.02614316  1.26471059
  H  2.00972458  0.31126502 -1.30264574
  H  3.04708307  0.88142730  0.01584044
