16
opt_min/./Product_8627_0_opt.xyz
  C  0.41277000 -0.88593800 -0.35421000
  H  0.29476133 -1.75676742  0.29181874
  H  0.53201448 -1.20120295 -1.38642318
  C  1.53248645  0.01183355  0.16590524
  H  2.34950857 -0.56368443  0.59413459
  H  1.92213728  0.64116640 -0.63367805
  C  0.81524571  0.86618197  1.22463973
  H  1.09702974  1.92433164  1.16569662
  H  1.01140288  0.50353556  2.24123402
  O -0.58414585  0.73378759  1.00443688
  C -0.81824985  0.01596932 -0.18120622
  O -0.87736532  0.89846569 -1.27706588
  H -1.36228356  1.68850708 -1.00373075
  N -2.03693900 -0.72481582 -0.01489444
  H -2.01227064 -1.60253271 -0.51852442
  H -2.84286900 -0.18869725 -0.31210533
