14
opt_min/./Product_8263_0_opt.xyz
  C -1.50255500 -0.48594000  0.38640700
  C -0.40081802  0.21193731 -0.40065753
  H -0.81002395  0.61157211 -1.33672593
  N  0.13854843  1.34440964  0.37871733
  H -0.50822598  2.06646034  0.66936004
  C  1.39024261  1.39304950  0.69197183
  C  1.97578627  0.13059137  0.07613393
  O  3.11474433 -0.24074978  0.12731253
  C  0.84060619 -0.63244978 -0.63093232
  H  1.09870691 -0.74037596 -1.68420131
  H  0.76066179 -1.62840682 -0.19578814
  H -1.91012234 -1.31364667 -0.18883277
  H -1.11012310 -0.86851069  1.32655858
  H -2.31307893  0.20841083  0.60466941
