10
opt_min/./Product_9124_1_opt.xyz
  C  0.43996900 -0.11552700  0.41397200
  O  1.70732198 -0.11163940 -0.16463434
  H  2.08776924 -0.99555904 -0.09891946
  H  0.45297737 -0.31087128  1.48529049
  C -0.73834743 -0.59958897 -0.37840696
  H -0.55455374 -0.93905261 -1.38545168
  H -1.53833218 -1.11560963  0.12892213
  C -0.54545773  0.87300625 -0.10490618
  H -0.22967734  1.48882012 -0.93235555
  H -1.21953256  1.35694469  0.58301082
