14
opt_min/./Product_7802_0_opt.xyz
  C -2.14551000  0.33394900  0.38349500
  C -0.68126079  0.17612710  0.28171504
  C  0.38157777  0.94134390  0.55721571
  H  0.52444669  1.93007280  0.95134687
  C  1.33865162 -0.10127443  0.10704827
  N  2.58054638 -0.52264826  0.63383053
  H  2.98666773  0.17047083  1.26874563
  O  2.46865607  0.07259949 -0.66484382
  C  0.13704154 -0.99904856 -0.22335759
  H  0.08636698 -1.90665383  0.37338383
  H  0.03485820 -1.24242399 -1.27710177
  H -2.58424361 -0.52571106  0.88653736
  H -2.58314735  0.39205596 -0.61348518
  H -2.39683023  1.24037854  0.92690341
