17
opt_min/./Product_7418_0_opt.xyz
  C  2.54004100 -0.26772200  0.15774000
  C  1.09331012  0.00746589 -0.08767154
  C  0.09534497 -0.88622071 -0.19664058
  H  0.16625615 -1.95427535 -0.11141551
  C -1.20584701 -0.18835689 -0.46486738
  C -2.28696650 -0.48717145  0.57946516
  H -3.19122640  0.06860552  0.35305940
  H -1.93549654 -0.19956924  1.56477321
  H -2.52069203 -1.54755902  0.58786867
  H -1.58950736 -0.48383717 -1.44684248
  C -0.78442945  1.24814237 -0.48071024
  H -1.46378316  2.06652561 -0.63569082
  C  0.53460433  1.33661794 -0.26458991
  H  1.10808055  2.24488937 -0.22149040
  H  3.07456074  0.65019845  0.38217701
  H  2.98895047 -0.72760462 -0.72060222
  H  2.66223680 -0.95426175  0.99188252
