15
opt_min/./Product_6955_0_opt.xyz
  C -0.82481111 -0.64414043  1.24079724
  C -0.26444610 -0.03894079 -0.02368168
  C -0.80923560  1.32616152 -0.38745305
  H -1.89784266  1.32072629 -0.39182375
  H -0.45416057  1.63394017 -1.37020405
  H -0.47118244  2.06048777  0.34224017
  N  0.11403165 -0.98288992 -1.04606135
  H -0.07073952 -0.79262110 -2.02458812
  C  1.14896289 -0.30235131 -0.37688390
  C  2.29214071  0.27393069 -0.44216102
  N  3.44569559  0.58435821 -0.16093972
  H  3.83905258  1.40471805 -0.60923996
  H -1.91199015 -0.67154956  1.19019298
  H -0.45179829 -1.65702127  1.36093919
  H -0.52974134 -0.05170517  2.10448484
