15
opt_min/./Reactant_6955_0_opt.xyz
  C -0.89401514  1.35119692  0.76020196
  C -0.13871058  0.12529912  0.29408882
  C -1.00101406 -0.96970036 -0.29943846
  H -1.92715440 -1.05984266  0.25924976
  H -1.24209408 -0.75272870 -1.33677616
  H -0.48994348 -1.92927643 -0.27393153
  N  1.02405367 -0.19095724  1.08070314
  H  1.21674229 -1.18268512  1.17199559
  C  1.23824553  0.33215515 -0.26527813
  C  1.71249885 -0.52405484 -1.29333814
  N  2.08324799 -1.23242436 -2.11374904
  H  1.65586160  1.33264216 -0.30569442
  H -0.20863926  2.06001196  1.21159948
  H -1.39916380  1.81823933 -0.08093639
  H -1.63648311  1.06738877  1.49816750
