12
opt_min/./Product_1947_0_opt.xyz
  C -1.65509800 -0.24629300  0.05801600
  N -0.24827933  0.04164566  0.04126675
  C  0.34214997  1.27454824  0.17257824
  H -0.25641620  2.15120387  0.33152129
  C  1.72237953  1.19251405  0.08161281
  N  1.88380303 -0.17200156 -0.12301304
  H  2.78458743 -0.61064793 -0.23463395
  C  0.72843363 -0.84761430 -0.14499930
  H  0.59288273 -1.90088042 -0.28098119
  H -2.17003658  0.52302377  0.63248168
  H -1.83465972 -1.21797669  0.51819276
  H -2.06475849 -0.25598382 -0.95465787
