17
opt_min/./Product_7599_0_opt.xyz
  C  0.99854100  1.55271300  0.08456200
  C  0.48767547  0.19865596 -0.29452315
  C -0.92111984 -0.04882915 -0.74996776
  C -1.73135341 -0.83702975  0.29257723
  O -3.03815215 -1.12725081 -0.13430962
  H -3.48613276 -0.30010257 -0.35127491
  H -1.74469935 -0.29570899  1.25052154
  H -1.26003941 -1.81024124  0.45911574
  H -0.94760837 -0.59895898 -1.69449582
  H -1.40197382  0.92163821 -0.90651413
  O  1.26423297 -0.83375878 -0.28043197
  C  2.51234377 -0.91624375  0.06994404
  H  2.93214520 -1.90222990  0.00363987
  H  3.11405091 -0.07243689  0.35556994
  H  1.45336193  1.50975020  1.07963160
  H  1.76038274  1.91277122 -0.61420943
  H  0.19287676  2.28062323  0.09281488
