19
opt_min/./Product_6516_0_opt.xyz
  C  1.56292300 -1.27345200  0.20390700
  C  1.09825188 -0.04312141 -0.51970256
  C  2.14260387  0.83794417 -1.14362611
  H  1.69294171  1.77749368 -1.45291888
  H  2.58821588  0.36325176 -2.02109467
  H  2.94435809  1.04855538 -0.43610733
  O -0.11511811  0.40894164 -0.60439005
  C -1.29192627  0.07007095 -0.15907693
  C -2.42150045  0.89163051 -0.70434725
  H -2.04913591  1.85798365 -1.03577523
  H -3.18043247  1.05100868  0.05912362
  H -2.90691570  0.40550225 -1.55644420
  C -1.60257582 -1.14198552  0.66928556
  H -0.86285039 -1.29596231  1.45082269
  H -1.65820103 -2.04821330  0.05665687
  H -2.57114906 -1.01060824  1.14575677
  H  1.81107926 -1.05049090  1.24855531
  H  0.81691939 -2.06131675  0.19372030
  H  2.46509910 -1.64389367 -0.27605126
