18
opt_min/./Product_8964_0_opt.xyz
  C  0.54437400  1.69413800 -0.44957200
  C  0.33669271  0.30604034  0.15127958
  N -0.85477178 -0.25917385 -0.44227253
  C -2.12290180  0.01455355  0.19550685
  H -2.12303806  0.60758256  1.10557819
  H -2.93698341  0.23639137 -0.47845984
  C -1.52892870 -1.33371674  0.23461277
  H -1.11308142 -1.68457916  1.17321430
  H -1.91259938 -2.11513161 -0.40432978
  C  1.52913092 -0.61628685 -0.15469191
  O  1.51693531 -1.76787880  0.66673383
  H  2.20140315 -1.69807510  1.33689319
  H  1.44854969 -0.93952732 -1.19453138
  H  2.45254750 -0.04635067 -0.02251446
  H  0.23664633  0.38766942  1.25221941
  H  0.70615047  1.60369973 -1.52096922
  H -0.34601727  2.29683405 -0.29933692
  H  1.39955756  2.19036343 -0.00244054
