13
opt_min/./Product_9172_1_opt.xyz
  O  2.51975100 -0.15498100 -0.11704000
  C  1.33500020  0.60351936 -0.07038429
  C  0.09083877 -0.27567709  0.06958068
  O -1.03752435  0.56537401  0.08753464
  C -2.24011163 -0.13212011  0.27195511
  H -2.25352361 -0.67551868  1.22535637
  H -3.03014727  0.61377866  0.25371391
  H -2.40468877 -0.86627704 -0.52995577
  H  0.01839800 -0.98481893 -0.77408988
  H  0.15676859 -0.86033321  0.99988428
  H  1.23172956  1.23883102 -0.95557713
  H  1.42709835  1.23140839  0.81834796
  H  2.51887524 -0.67834993 -0.92737775
