13
opt_min/./Product_6512_0_opt.xyz
  C  1.10822404 -1.56463099 -1.66763799
  C  0.59967075 -1.05155119 -0.70914174
  C  0.01709337 -0.43488532  0.42703157
  C  0.28852714  1.04607974  0.58023704
  C -0.51008191  1.73562458 -0.49283686
  O -1.58607755  2.23596749 -0.34040629
  H -0.01365160  1.71928343 -1.48688547
  H -0.06668295  1.38031118  1.55725595
  H  1.35307916  1.24324171  0.45874693
  C -0.73961878 -1.11971575  1.28054778
  H -1.19041358 -0.64901296  2.13813813
  H -0.92788140 -2.17055189  1.14386218
  H  1.54493140 -2.00605596 -2.51482394
