10
opt_min/./Product_370_0_opt.xyz
  N  1.47133400  0.44759300  0.42892300
  C  0.33981716 -0.24281829 -0.11129194
  H  0.60837319 -1.03141512 -0.84875492
  N -0.61434786  0.59955456 -0.77098884
  C -1.72786558  0.29752763 -0.23778212
  H -2.68041129  0.70753213 -0.51468609
  N -1.61962992 -0.69267730  0.76156577
  N -0.42847329 -0.99323479  0.87724338
  H  2.14929664 -0.19964208  0.80424195
  H  1.89828290  1.02032905 -0.28627948
