16
opt_min/./Product_5151_0_opt.xyz
  C  1.50327500  0.44982800 -0.32433500
  C  2.97614626  0.23474109 -0.03154357
  H  3.18489427 -0.82567098  0.08686320
  H  3.58008797  0.62291969 -0.84838270
  H  3.24923633  0.74653056  0.88783509
  O  0.73837321  0.03471921  0.84396562
  C -0.52174465 -0.07224171  0.90843032
  C -1.34235149  0.25354907 -0.31030436
  C -2.83675445  0.19114667 -0.01321578
  H -3.08272000  0.87322904  0.79646307
  H -3.41732345  0.46653760 -0.89172800
  H -3.11422282 -0.81451153  0.29005425
  H -1.09414062 -0.47982803 -1.08958814
  H -1.07618030  1.24321712 -0.70434033
  H  1.18096022 -0.14549889 -1.18591853
  H  1.28688282  1.50597552 -0.51671453
