15
opt_min/./Product_9692_0_opt.xyz
  O  2.79399300  1.11180800 -0.04144000
  C  1.46958524  0.85796015 -0.40714262
  C  1.09956029 -0.59849984 -0.19952759
  C -0.34428015 -0.94249454 -0.48636293
  C -1.18978840 -0.52151318  0.68112678
  C -2.16962764  0.36040963  0.61375624
  H -2.75736067  0.62753716  1.47128583
  H -2.43494450  0.84622395 -0.30860056
  H -0.94911225 -0.98848908  1.62563160
  H -0.41424853 -2.02323904 -0.61780286
  H -0.68828148 -0.43489708 -1.38516516
  O  1.92296071 -1.38781964  0.19013647
  H  0.80431439  1.47769408  0.20046112
  H  1.29944443  1.12909300 -1.45907754
  H  3.25217792  0.25794357 -0.00047631
