12
opt_min/./Product_10989_0_opt.xyz
  C -1.76017500  0.05166300  0.15085100
  C -0.28965496  0.12967392  0.02116351
  C  0.60078449  1.05013574 -0.34725132
  H  0.57539673  2.09527753 -0.58241440
  C  1.78208402  0.06442095 -0.23976982
  H  2.61527768 -0.01397997 -0.91461674
  O  1.76678373 -0.43023564  1.06083552
  C  0.80039884 -0.94732630  0.16359893
  H  0.75080912 -2.01539636  0.06781684
  H -2.05260125 -0.85254418  0.68152433
  H -2.13889636  0.91890109  0.69134960
  H -2.22391353  0.04252592 -0.83712611
