12
opt_min/./Product_9792_0_opt.xyz
  N  2.63787300  0.02900400  0.78074000
  C  1.39988851 -0.41318301  0.63441570
  O  0.89738295  0.04364522 -0.53507010
  C -0.43480243 -0.34229796 -0.81031891
  H -0.50803997 -0.64616159 -1.85352773
  C -1.31223675 -0.92133713  0.25776438
  H -1.50676325 -1.77758312  0.85112351
  C -1.55772681  0.31187726 -0.09484723
  O -2.26193042  1.43108474  0.02892857
  H -1.92681124  2.11049742 -0.56977218
  H  3.15355658 -0.22431654  1.60470281
  H  3.11072265  0.61157685  0.08935409
