12
opt_min/./Reactant_9792_0_opt.xyz
  N  2.36356600  0.15583600  0.18672500
  C  0.99486592 -0.10642383  0.10323410
  C -0.04629946  0.76362285 -0.01704655
  H  0.01577783  1.83129616 -0.05520638
  C -1.21935590 -0.03852611 -0.08183352
  O -2.50423533  0.38512008 -0.20165281
  H -2.51383752  1.34806585 -0.22422390
  C -0.80783411 -1.33472586 -0.00170567
  H -1.33827722 -2.26290710 -0.01673893
  O  0.54056654 -1.38559436  0.11280355
  H  2.71372711  0.04304698  1.13313644
  H  2.88938924 -0.47401420 -0.41152639
