13
opt_min/./Reactant_3407_0_opt.xyz
  N  1.34814300  1.13903700  0.29803700
  C  1.74069004  0.03336494 -0.15428917
  O  0.97046728 -0.98270366 -0.50737386
  C -0.43319574 -0.93248689 -0.43588884
  H -0.79196674 -1.87195030 -0.84669022
  C -1.26172329  0.29227722 -0.66732868
  H -2.16406702  0.15998448 -1.24779120
  H -0.76396042  1.23530514 -0.82278140
  C -1.18949661 -0.32081340  0.70089116
  H -0.61853752  0.21432638  1.44209489
  H -2.04485815 -0.85455367  1.08647919
  H  2.78890699 -0.26889483 -0.31929065
  H  2.09145377  1.79275333  0.51643469
