11
opt_min/./Product_3187_0_opt.xyz
  C  1.85320100 -0.06828400 -0.44093600
  O  0.79533987 -1.01164820 -0.44532568
  C -0.37346815 -0.55599393 -0.01643735
  C -1.63454452 -0.75130543  0.22764953
  H -2.50068802 -1.35950172  0.23574032
  C -1.09418958  0.63420520  0.52894305
  H -1.33913921  1.46067968 -0.13052093
  H -0.94180360  0.93808068  1.55972554
  H  2.73441564 -0.59975810 -0.79485775
  H  2.03454735  0.31082260  0.56839541
  H  1.63867266  0.77227404 -1.10496803
