12
opt_min/./Product_2332_1_opt.xyz
  O  3.14396000 -0.76978600 -0.33293000
  C  1.95614293 -0.55736294 -0.38602952
  C  1.18987357  0.06262540  0.68165636
  C -0.13215562  0.32116215  0.67297411
  C -1.06647704  0.04334504 -0.38397051
  C -2.36236193  0.34208910 -0.28907141
  H -3.05669636  0.13178681 -1.08330387
  H -2.77326316  0.80947306  0.59131999
  H -0.69576283 -0.42478774 -1.28426640
  H -0.56518552  0.79081009  1.54851175
  H  1.77899683  0.32615644  1.54970473
  H  1.38273119 -0.84000248 -1.29059056
