15
opt_min/./Product_2646_0_opt.xyz
  C -2.18481600 -0.00883700  0.10601800
  C -0.79868057 -0.63930603  0.02190015
  C  0.24155010  0.41431626 -0.31309328
  H  0.16679323  0.77994778 -1.34271365
  C  0.87567022  1.22269477  0.72877257
  H  0.94649427  2.08765383  1.32689513
  N  1.59299926  0.27207272  0.20403424
  C  2.65015998 -0.45446251  0.05200963
  H  3.53236328 -0.24702140  0.62789224
  H  2.62792381 -1.27313814 -0.63996979
  H -0.79552281 -1.42091968 -0.74255310
  H -0.54305349 -1.09832259  0.97918477
  H -2.94138193 -0.76655450  0.29355580
  H -2.42511005  0.49751151 -0.82618375
  H -2.21501058  0.72140200  0.91082066
