15
opt_min/./Product_8169_0_opt.xyz
  O -1.29441200  1.76316700  0.31143600
  C -0.64173933  0.57262331  0.04697219
  C -0.95549846 -0.41402600 -1.06756210
  H -1.13053289 -0.26285431 -2.11577189
  C -0.80635421 -1.47038205 -0.27473475
  H -0.79955393 -2.53202851 -0.42737523
  C -0.48403935 -0.63955888  0.95379708
  H -0.88000971 -0.80668432  1.93860362
  C  0.71366424  0.23516727  0.62427390
  C  1.89672921 -0.25331812 -0.17807950
  H  2.77569028 -0.32221336  0.45961014
  H  1.71232728 -1.23755456 -0.59839201
  H  2.13223011  0.42571962 -0.99549296
  H  0.98344008  0.90797827  1.43096924
  H -1.59372196  2.14549625 -0.51983819
