14
opt_min/./Product_7702_0_opt.xyz
  C -0.49221000  1.41560400  0.20376900
  C -0.07631346 -0.03832295  0.44343903
  C -0.92813051 -1.03072309 -0.36332505
  H -0.47074592 -1.20759932 -1.33968066
  H -1.93078610 -0.64751384 -0.51361659
  H -0.99715446 -1.99092054  0.14084588
  C  1.37799605 -0.23234241  0.05973088
  H  2.08014294  0.51735899  0.41068544
  O  1.88610994 -1.56212192  0.08776156
  C  1.73613368 -1.09020663 -1.09024067
  H -0.17876714 -0.26964817  1.51139527
  H -1.18304660  1.75420392  0.96918788
  H  0.36483379  2.08366520  0.21142111
  H -0.98059819  1.52641405 -0.76050628
