13
opt_min/./Product_9765_0_opt.xyz
  O  2.40651200 -0.71816000  0.43774800
  C  1.68173755  0.02595679 -0.52480688
  C  0.21686810  0.08100835 -0.23665797
  C -0.52460435  0.86921761  0.59147503
  H -0.15635694  1.67099306  1.20029688
  C -1.86625720  0.42609319  0.46922744
  H -2.72671309  0.82046787  0.97340767
  C -1.83499166 -0.60190913 -0.41728485
  H -2.59935201 -1.24126222 -0.81833289
  O -0.58169002 -0.82425096 -0.84487945
  H  1.83743098 -0.46355802 -1.48999107
  H  2.08212411  1.05153688 -0.55875599
  H  1.91549253 -0.72157234  1.26923355
