10
opt_min/./Reactant_3939_0_opt.xyz
  O  1.51797496  0.72685401  1.02857905
  C  1.45198231 -0.20816140  0.27847265
  N  0.31183059 -0.70769693 -0.24519531
  C -0.96755910 -0.08836428  0.06025494
  C -1.05996190  1.24795374 -0.49995683
  N -1.14817968  2.29077327 -0.95580992
  H -1.77773620 -0.69627467 -0.34933183
  H -1.08606060 -0.00206108  1.14866000
  H  0.33178206 -1.51489715 -0.84400452
  H  2.33818097 -0.77920174 -0.06193834
