12
opt_min/./Product_5849_0_opt.xyz
  O -1.20755682 -0.30551954  1.02855796
  C -0.79712051 -1.15069251  0.09758106
  C  0.01513171 -0.44653535 -0.94580317
  C  0.40334503  1.01992188 -0.69417965
  C  1.26466002  1.13438143  0.46441299
  C  1.96865749  1.19239080  1.43046076
  H  2.59023597  1.24887607  2.27320703
  H  0.92845377  1.41419718 -1.56935207
  H -0.49762639  1.61808546 -0.53025936
  H -0.58229259 -0.52637808 -1.86111010
  H  0.90655386 -1.05876689 -1.11155985
  H -1.74543832 -0.75696051  1.70047501
