13
opt_min/./Product_3125_0_opt.xyz
  O  2.07636700  0.08319200  0.22922600
  C  0.73542840 -0.19949026  0.52340156
  H  0.62752643 -0.54963644  1.56547971
  C -0.26192724  0.92116229  0.20231943
  H  0.18216138  1.56472762 -0.55866845
  H -0.52075641  1.52035147  1.07210542
  C -1.45416187  0.15221966 -0.39951094
  H -1.97119366  0.70065366 -1.18479779
  H -2.19181030 -0.10023534  0.36694956
  C -0.90081536 -1.15552859 -0.91467750
  N  0.27552695 -1.26338564 -0.37368291
  H  0.90889268 -2.02826605 -0.56452819
  H  2.49677149  0.51940257  0.97561802
