13
opt_min/./Product_5466_0_opt.xyz
  O  0.47329700  1.35289100 -0.26020500
  C -0.88385431  0.99167634 -0.06588000
  H -1.21564208  1.31048936  0.92971442
  H -1.49371747  1.50493309 -0.81217876
  C -0.94779027 -0.53286614 -0.18683054
  H -0.99627444 -0.82484374 -1.23358729
  H -1.79702476 -0.95552074  0.34028841
  C  0.40288674 -0.92217217  0.41166735
  H  0.34990628 -0.87487098  1.49784914
  H  0.75369195 -1.90332672  0.10408474
  C  1.29688004  0.20821618 -0.11229153
  H  2.11997559  0.44085023  0.56989867
  H  1.72516686 -0.04923411 -1.08844611
