13
opt_min/./Product_506_0_opt.xyz
  C -2.02327900  0.54661500  0.08212300
  N -0.72690869  0.30878641  0.05961512
  C  0.27976317  1.12552713  0.39628507
  H  0.10781367  2.12537850  0.74087714
  C  1.52052597  0.46659876  0.23248790
  H  2.47458117  0.91613974  0.43139598
  C  1.30519148 -0.79213784 -0.20546308
  H  2.02436115 -1.54875589 -0.44397038
  C -0.17543969 -0.97728092 -0.35001840
  H -0.56581952 -1.76967103  0.29627072
  H -0.46467134 -1.21554900 -1.37788796
  H -2.70723839 -0.21524482 -0.23100538
  H -2.37396790  1.50738500  0.40006045
