15
opt_min/./Product_6496_0_opt.xyz
  O  0.56954100  0.24938800 -1.47449800
  C  0.84291405 -0.01187068 -0.33721027
  N  2.13821648 -0.47952551  0.07436451
  C  3.16139562 -0.43558521 -0.72972551
  H  4.05240810 -0.84762889 -0.21575474
  H  2.14384198 -0.83923466  1.03733847
  N -0.01248522  0.09647464  0.70818579
  C -1.37090994  0.57289734  0.50131406
  C -2.26095326 -0.53534103 -0.04525615
  H -3.26369709 -0.15268018 -0.22130801
  H -1.85515362 -0.89167991 -0.99064039
  H -2.31546094 -1.37261604  0.64860165
  H -1.74774510  0.94426470  1.45659981
  H -1.33796488  1.39978625 -0.21733038
  H  0.30237599 -0.04851618  1.65413181
