12
opt_min/./Product_349_0_opt.xyz
  C -1.49081300  1.03858601  0.80542500
  C -0.21454859  0.41387711  0.35843609
  O -0.12249537 -0.87402829  0.37032300
  C  0.92597322 -1.59580110  0.04951831
  C  2.13689573 -1.07883106 -0.39259257
  C  3.19245372 -0.61144179 -0.74414978
  H  4.11491109 -0.21871966 -1.04915656
  H  0.77118112 -2.65981337  0.11663731
  H  0.62998879  1.01287229  0.04676468
  H -1.59045244  0.99406571  1.89348427
  H -1.51743777  2.07991951  0.50147901
  H -2.35167637  0.52496265  0.37783311
