9
opt_min/./Product_9191_1_opt.xyz
  O -1.91483000  1.35166800  0.16353100
  C -0.87414690  0.77148986  0.09763381
  C -1.05533965 -0.83649320 -0.13840098
  H -2.05722703 -1.19160995 -0.20650299
  C  0.12523107 -1.31187076 -0.18760854
  N  1.31977739 -0.89114921 -0.10684992
  C  1.41046108  0.42319276  0.08464207
  H  2.39799696  0.84640586  0.16191803
  N  0.37012828  1.19162606  0.17859942
