14
opt_min/./Product_7960_0_opt.xyz
  C  2.31836000 -0.06923600 -0.20093800
  C  1.02420302 -0.50882046  0.38707694
  C -0.15317542 -0.00963644  0.01455034
  C -1.54289803 -0.35612263  0.53296788
  H -1.81743696 -1.39996249  0.34147983
  H -1.67400642 -0.14826055  1.59940375
  N -2.30544516  0.55605199 -0.29781371
  H -3.29951262  0.67631564 -0.28212742
  N -1.52335174  1.25176605 -1.10892754
  N -0.32324692  0.96753105 -0.97013742
  H  1.06418648 -1.26460470  1.15760753
  H  2.89134067  0.50677901  0.52647149
  H  2.14427507  0.55493959 -1.07083773
  H  2.92629020 -0.92755791 -0.48171055
