15
opt_min/./Product_11500_0_opt.xyz
  O  1.71889200 -1.17056800 -0.86710800
  C  1.41199426 -0.17037543 -0.00657520
  C  2.28894512  0.78127003  0.28480694
  H  2.06060357  1.55507567  0.99234859
  H  3.25885790  0.78551138 -0.17455142
  C  0.03797065 -0.21904169  0.63153581
  C -1.07417946 -0.57711913 -0.32177918
  C -2.37121899  0.14175512 -0.08785369
  H -2.30709751  1.12838583 -0.54729833
  H -2.56579206  0.27457293  0.97360490
  H -3.19401801 -0.39587909 -0.55450528
  O -0.93659855 -1.39481078 -1.20396724
  H -0.16046764  0.72067401  1.14560762
  H  0.04495936 -1.01462781  1.38957682
  H  0.88843366 -1.56888475 -1.19000987
