12
opt_min/./Product_8055_0_opt.xyz
  N  3.11166300 -0.28411200 -0.57420000
  C  2.16083368  0.32147859 -0.78873394
  C  0.96993759  1.06471810 -1.03281988
  N -0.21725534  0.73305392 -0.76261097
  C -0.51887675 -0.52291715 -0.14680024
  C -1.13419883 -0.30657422  1.21111636
  N -2.16643249 -0.93494728  1.52879434
  H -2.52096875 -0.77186997  2.47111729
  H -0.58494505  0.40447570  1.83952247
  H  0.36609376 -1.17141229 -0.02627545
  H -1.27038526 -1.02037937 -0.77167492
  H  1.13051944  2.03623698 -1.49574920
