8
opt_min/./Product_10534_1_opt.xyz
  O -1.15518701  1.14276800 -0.54072099
  C -0.68514761  0.70050841  0.60457583
  C  0.18220798 -0.51559049  0.33588588
  C  1.55282870 -0.09487641  0.48141797
  N  2.63715145  0.25534847  0.56481298
  H  0.05499701 -0.91874708 -0.67702754
  H -0.02777208 -1.27616090  1.09142854
  H -1.69377371  1.94330257 -0.41406180
