18
opt_min/./Product_851_0_opt.xyz
  C -1.80158000  0.78267700  0.35510000
  C -0.62180335 -0.20492011  0.45616785
  C  0.70951206  0.52706756  0.43832029
  H  0.67504284  1.45712604  0.98969821
  C  2.00907312 -0.21123516  0.53145930
  H  2.00349876 -1.28804935  0.52092498
  H  2.78240446  0.19900190  1.16265681
  C  1.65603827  0.52637047 -0.72410287
  H  1.41140879 -0.04443933 -1.60395353
  H  2.18307194  1.43903871 -0.94677051
  C -0.73646008 -1.27313145 -0.63011533
  H -0.74884672 -0.82384223 -1.61981224
  H  0.08522713 -1.98289696 -0.57672121
  H -1.66376360 -1.82528252 -0.49810819
  H -0.68735657 -0.72292270  1.41947627
  H -2.39753578  0.58476979 -0.52860376
  H -1.45498718  1.80994100  0.28660316
  H -2.45119097  0.71249459  1.22136445
