9
opt_min/./Product_1636_1_opt.xyz
  N  2.06241200 -0.28009900  0.47789700
  C  0.99827992 -0.03440180 -0.08307125
  O  0.42656475  0.60805334 -1.15857050
  C -0.40270316 -0.08362044 -0.23711528
  C -1.73662831  0.15238689  0.26584868
  H -2.37138129  0.86586551 -0.24373735
  H -1.96250052 -0.05283774  1.30394390
  O -1.37389834 -0.99306761 -0.51206956
  H  2.89677222  0.09328073  0.03183543
