14
opt_min/./Product_4185_0_opt.xyz
  C  1.72333400 -0.10366500  1.14120800
  H  1.47677814 -0.64594088  2.04489550
  H  2.52417999  0.61792265  1.25913633
  N  1.62253904 -0.88170669 -0.07177113
  H  2.32023258 -0.71280712 -0.78524603
  C  0.66732376  0.16820234  0.14200918
  N -0.69225713 -0.26925756  0.32780820
  H -0.81576051 -0.75853486  1.21606990
  C -1.48723094 -0.60252160 -0.90478196
  H -2.13660908 -1.46135014 -0.67142765
  C -1.82651554  0.57423607 -0.07382247
  H -1.56203247  1.56944580 -0.41569014
  H -2.60490756  0.61064255  0.69726363
  H  0.71705141  1.08745734 -0.43562534
