8
opt_min/./Product_7334_0_opt.xyz
  N  1.30347400 -0.21055200 -0.05775700
  C  0.13825467 -0.35721938 -0.59536397
  C -1.09766464 -0.18372860  0.06832809
  N -1.69497221  0.93347948  0.23463484
  H -1.11157747  1.74147144  0.01230076
  H -1.69610446 -1.07770161  0.23756940
  H  2.13517225 -0.27236021 -0.63215944
  H  1.47035568 -0.05082074  0.93920578
