9
opt_min/./Product_4257_0_opt.xyz
  C -1.36588800 -0.01154100 -0.79267700
  C -0.23768045  0.27600042  0.06442431
  O -0.42700377  0.45040259  1.44360501
  H  0.25511888 -0.06249424  1.90637513
  C  0.90103366 -0.69980365 -0.22962798
  O  1.48231444 -1.24616179  0.66078620
  H  1.10208172 -0.85920955 -1.29448822
  H  0.11895557  1.22513645 -0.39323686
  H -2.29619336 -0.01767703 -0.20712735
