10
opt_min/./Product_446_0_opt.xyz
  O  2.31436900  0.37295600 -0.59203700
  C  1.52619941  0.26671616  0.52249586
  C  0.40204601 -0.38556864  0.55610261
  C -0.75873462 -0.99839496  0.42241959
  N -1.87018089 -0.43515021 -0.13700112
  N -2.17736975  0.74911400  0.09454536
  H -2.97857857  1.02065105 -0.49136515
  H -0.86835216 -2.06076803  0.59329071
  H  1.88453434  0.74972633  1.42504058
  H  3.14873666  0.79410289 -0.37398316
