16
opt_min/./Reactant_5172_0_opt.xyz
  C  2.33870200  0.27357400 -0.61301100
  O  1.23108014  0.11408772 -1.46371186
  C  0.11828554 -0.50006411 -0.86280719
  C -0.61511787  0.37698866  0.15743223
  C -1.93605757 -0.26935938  0.57729724
  O -2.81739908 -0.49145361 -0.49518528
  H -2.97922137  0.34875519 -0.93812900
  H -2.41748087  0.35530401  1.34367587
  H -1.74926627 -1.25662601  1.00575080
  H -0.00312001  0.52311673  1.04816746
  H -0.81017291  1.35569044 -0.28755927
  H  0.41426652 -1.44401119 -0.37924821
  H -0.55824539 -0.73316841 -1.68919061
  H  3.16752796  0.57747813 -1.24789028
  H  2.17540512  1.05068671  0.14137855
  H  2.58692989 -0.66581884 -0.10849415
