16
opt_min/./Reactant_8095_0_opt.xyz
  C  2.80111800  0.33501600 -0.49450700
  C  1.30080876  0.43969792 -0.56504866
  N  0.78476949  1.31867986 -1.29260607
  H -0.22492589  1.37214598 -1.33045978
  O  0.75358061 -0.51307698  0.23505801
  C -0.60765378 -0.77379971  0.40438494
  H -0.67664177 -1.60586958  1.10005212
  C -1.69902791  0.25145271  0.48673902
  H -1.45849154  1.28766836  0.30002583
  H -2.44585162  0.11909472  1.25788171
  C -1.66384402 -0.72047836 -0.66062103
  H -2.37891421 -1.53221356 -0.67276825
  H -1.41127563 -0.36553891 -1.64803216
  H  3.09167339 -0.21805421  0.39264697
  H  3.16983648 -0.18027318 -1.37976831
  H  3.23180584  1.33237837 -0.48188701
