13
opt_min/./Product_1748_0_opt.xyz
  N  3.16585000 -0.77956001  1.17183199
  C  2.28274932 -0.20023529  0.73737940
  C  1.15338083  0.50839216  0.19549980
  C -0.04409973 -0.44115423  0.04302406
  C -1.25912051  0.31984326 -0.53666928
  C -2.29084242 -0.71094882 -0.71141109
  H -2.69254601 -0.99018462  0.28250409
  H -1.54138053  1.11190161  0.16750525
  H -0.98363207  0.75857479 -1.49804566
  H  0.22017695 -1.25860085 -0.62691944
  H -0.29983087 -0.86569320  1.01460293
  H  0.90845910  1.33255379  0.86746934
  H  1.43682224  0.92873266 -0.77295740
