16
opt_min/./Product_4480_0_opt.xyz
  C -1.38397900 -1.08791600 -0.37467900
  H -1.52075383 -0.90677755 -1.42936779
  H -1.93660824 -1.92451129  0.02384276
  C -0.11214589 -0.68922531  0.22557661
  C  1.00139110 -0.13185622 -0.62900823
  C  2.07450027  0.56240024  0.21150895
  H  2.56864300  1.34043210 -0.36288138
  H  1.63009173  1.02588655  1.08843413
  H  2.83054806 -0.14601460  0.54329318
  H  1.44320883 -0.95706830 -1.19215623
  H  0.57206531  0.57508976 -1.33870385
  H  0.24281914 -1.24943658  1.08402487
  C -1.36532408  0.17265285  0.52344808
  C -1.48246751  1.38982259 -0.18685707
  H -2.05674347  2.12827456  0.40150576
  H -1.79355679  0.03022714  1.51963857
