7
opt_min/./Product_8990_1_opt.xyz
  N  1.34927200 -0.22299300 -0.62594700
  C  0.15033290 -0.45872674 -0.33154530
  N -0.85454938  0.43638831 -0.09769547
  H -0.70284931  1.39381664 -0.37691467
  H -1.80949625  0.12290177 -0.10145425
  H -0.13512257 -1.49532290 -0.18624476
  H  1.56456746  0.76772396 -0.73582705
