15
opt_min/./Product_10615_0_opt.xyz
  O  0.35937800  1.13912300 -1.96386500
  C -0.09941557  0.71504515 -0.93847319
  C -1.53967220  0.33680249 -0.66684975
  H -2.02265234 -0.14411030 -1.51499935
  H -2.07490050  1.26885304 -0.45818974
  C -1.45663935 -0.51341057  0.60312890
  H -1.29473033 -1.57486876  0.35041674
  H -2.34483782 -0.48659483  1.23391414
  C -0.20263644 -0.22426405  1.32313338
  C  0.67088574  0.50362933  0.36749208
  C  1.96423871 -0.32029118  0.17309665
  H  2.75437071  0.02962944  0.82934811
  H  1.77891389 -1.36970607  0.39313315
  H  2.28768625 -0.22829428 -0.86126761
  H  0.94739993  1.47828802  0.77763612
