18
opt_min/./Product_8116_0_opt.xyz
  C -2.39684700 -0.29704300 -0.09424000
  N -1.24187710  0.57385740 -0.08946514
  C  0.03305499  0.01355273  0.00382046
  O  1.07972388  0.90078355  0.12675416
  C  0.84367040  2.27154685 -0.05370978
  H  1.83345495  2.72318720 -0.14483327
  H  0.27843234  2.47745117 -0.96956747
  H  0.32536806  2.72733769  0.79869831
  C  0.31544810 -1.29045414 -0.05971484
  C  1.71560339 -1.82345906 -0.07024339
  H  2.06590747 -1.96995239 -1.09460004
  H  1.75048661 -2.78650393  0.43570931
  H  2.39231775 -1.13152986  0.42161794
  H -0.48269406 -2.00733255 -0.12600427
  H -1.37254774  1.37959636  0.51050047
  H -2.46466390 -0.92368521  0.80456428
  H -3.29115778  0.32027685 -0.15887673
  H -2.34802771 -0.94249946 -0.96997010
