17
opt_min/./Product_7041_0_opt.xyz
  C  1.87873800  0.13978400 -0.47033800
  C  0.59335248  0.20451059  0.34666000
  O  0.78591406  1.05120208  1.44194514
  H  0.06497393  1.70330710  1.43318470
  C  0.00317517 -1.20164360  0.67134306
  H -0.22499813 -1.32484957  1.72770699
  H  0.64345801 -2.01720587  0.34071292
  C -1.21047392 -0.94105254 -0.22103992
  H -1.26931321 -1.56684057 -1.10965328
  H -2.17006774 -0.96687592  0.29366929
  C -0.70076845  0.50619708 -0.46509022
  C -1.46765600  1.66838720 -0.08768805
  H -2.52201419  1.55055905 -0.38667900
  H -0.47594576  0.71151632 -1.52270880
  H  1.76782223 -0.51775138 -1.33103585
  H  2.15428353  1.13798856 -0.80218198
  H  2.67517441 -0.25169366  0.15904993
