11
opt_min/./Product_11424_0_opt.xyz
  C -0.87977500 -0.67221500  0.19562200
  H -1.57394859 -1.25047807 -0.39488075
  H -0.68365555 -1.06203704  1.18230946
  C -0.82684108  0.79463138 -0.00636781
  H -1.48944802  1.25156815 -0.72517052
  H -0.58963739  1.41464053  0.84514124
  C  0.30025683 -0.06313136 -0.54026457
  C  1.58273101 -0.01375286  0.17892990
  O  1.70585749  0.18847327  1.36021648
  H  2.47525649 -0.19108563 -0.45285270
  H  0.37152634 -0.22175626 -1.60744639
