13
opt_min/./Product_1058_0_opt.xyz
  C  1.42215000 -0.25017300  0.29892700
  C  0.38500474  0.77078150 -0.04659238
  O  0.90872711  2.07116613 -0.16752672
  H  0.19407372  2.66519374 -0.41669984
  C -0.91756415  0.61730692 -0.24780050
  O -1.93508652  1.20272966 -0.54764500
  N -1.31492835 -1.13192234 -0.00536477
  H -1.07495144 -1.64211303 -0.84769191
  H -2.32223612 -1.10976748  0.12513699
  H -0.83765495 -1.51605033  0.80203634
  H  1.47210708 -1.05213234 -0.43875414
  H  2.37977200  0.26213777  0.30933311
  H  1.26698144 -0.68952725  1.28678854
