10
opt_min/./Product_10172_1_opt.xyz
  N  1.46643000 -0.33455300  0.08208500
  C  0.17400485  0.06180681 -0.22397761
  O -0.22385974  1.31311779 -0.84457405
  C -0.92559500  0.80788099  0.29940553
  H -1.20234167  1.41506233  1.13018594
  C -1.20313368 -0.55077755 -0.30412787
  H -1.42699404 -1.36552529  0.37082961
  H -1.71136948 -0.59422248 -1.25812053
  H  1.86153476  0.18872142  0.85811250
  H  2.07434745 -0.23143757 -0.72283990
