15
opt_min/./Product_8133_0_opt.xyz
  C  0.78698800  0.65495600 -0.40834000
  O  1.73535437 -0.25820703 -1.01015282
  C  2.87727843 -0.50095985 -0.54961066
  H  3.12697899  0.09187041  0.36934172
  C -0.19638627 -0.14237426  0.43133733
  H  0.33672793 -0.67484222  1.22176263
  C -1.19155608 -1.00611182 -0.35517270
  H -1.09867188 -0.95581154 -1.44309302
  H -1.25830802 -2.05031109 -0.03950840
  O -2.29439050 -0.23032122  0.12109945
  C -1.44613024  0.60897810  0.90359078
  H -1.51327583  1.65669192  0.59469397
  H -1.67177488  0.52598807  1.97005411
  H  0.27554424  1.15923006 -1.23165117
  H  1.32591794  1.38304154  0.21080091
