13
opt_min/./Product_2912_0_opt.xyz
  C -1.48022906 -1.20374373  0.10686688
  C  8.11285509  4.59798632 -24.29858156
  N -0.04272161  13.33194885 -13.33414149
  C -9.63072956 -8.42511548  3.50595692
  H -8.44082821  7.44112784  3.68166057
  O -6.39286681  6.01190988 -9.05332745
  C  1.18061885  1.11740762  0.93614470
  H  19.26473739 -11.32369401 -1.90587737
  H  5.16688935 -2.60856133  10.28977951
  H  5.83815720 -1.08714934 -2.84476321
  H -3.73533881  1.67784154 -8.33767378
  H -7.71332129  19.52027096 -16.71068876
  H  14.24931377  5.24100900  10.50750405
