11
opt_min/./Product_6130_0_opt.xyz
  N  2.65188638  0.10554472 -0.17840022
  C  6.07255048 -7.81172481 -4.41689780
  C  5.24723280 -15.64348999 -18.70774660
  C -20.10948737  4.95773657  11.75325134
  H  8.57615580  16.63702905  3.24598191
  H  1.69007666  1.47977589  11.18015884
  O  22.74588021  18.46734943 -1.04653127
  C  31.22677600  1.67240404  2.20471760
  H -12.16302698  3.79799470  20.02865488
  H  3.69305908 -31.34632441 -2.21023266
  H  5.33576846  2.08327852 -2.47894837
