14
opt_min/./Product_1433_0_opt.xyz
  C  2.18683500 -0.06299700  0.09965600
  O  1.02812923 -0.82220525 -0.12639690
  C -0.19171833 -0.19420370 -0.02314456
  C -0.36367759  1.11571904  0.12491456
  O -1.58026455  1.73784606  0.24499907
  H -2.27737502  1.07366868  0.18546599
  H  0.44191390  1.82977715  0.18015631
  C -1.32467556 -1.18241805 -0.11980389
  H -2.06267268 -0.87134075 -0.85951467
  H -0.91423765 -2.14103170 -0.42478369
  H -1.81850654 -1.30908380  0.84418841
  H  3.01179758 -0.77521497  0.10181439
  H  2.35060992  0.67240433 -0.69463565
  H  2.14394896  0.45219265  1.06421396
