11
opt_min/./Product_2351_0_opt.xyz
  O  0.85876500  1.97259800  0.15460300
  C  1.55033569  1.24973458 -0.50692074
  O  1.47523957 -0.07248671 -0.58767563
  C  0.50859836 -0.74666538  0.15327518
  N -0.79198989 -0.47506759  0.08835734
  C -1.48772298  0.43935824 -0.55667356
  H -1.00380083  1.15159421 -1.19177066
  H -2.52788629  0.54384187 -0.32582073
  H -1.33694304 -1.09301400  0.68427753
  H  0.84398982 -1.69318618  0.52915177
  H  2.35728824  1.59313772 -1.17611474
