9
opt_min/./Product_2874_0_opt.xyz
  C -0.92763574  0.99147190  0.38523368
  C -0.30275843 -0.15433208  0.12222536
  O -0.92085507 -1.36745764  0.04808169
  H -1.87900519 -1.24657363  0.02552121
  C  1.09260822 -0.21499045 -0.15172084
  C  2.24925287 -0.30385905 -0.45857782
  H  3.24765019 -0.35135182 -0.77986131
  H -1.99150072  1.03060449  0.54579897
  H -0.37390030  1.91012742  0.43422276
