14
opt_min/./Product_11109_0_opt.xyz
  C -1.33301800  0.12792200 -0.60727500
  H -1.80948164  1.11242136 -0.65406460
  H -2.05358585 -0.59091711 -1.00130495
  C -0.09560653  0.11902057 -1.46540559
  C  0.91885416 -0.52350064 -0.65476448
  H  1.81442531 -0.93296139 -1.10528972
  C  1.06133904  0.87385073  0.07152974
  H  0.64640823  1.77166245 -0.39797947
  H  2.11266774  1.04469063  0.30111834
  N  0.36169160  0.35448137  1.24055048
  C -0.87703323 -0.26167745  0.77675221
  H -1.57967427 -0.47944446  1.56901397
  C  0.38696860 -1.01631544  0.69802746
  H  0.66353175 -1.89091466  1.25843158
