12
opt_min/./Product_5510_0_opt.xyz
  C  1.33932300  0.08213400  0.33028400
  H  1.52897194 -0.46733175  1.23963304
  H  2.11189414  0.77552369  0.04156976
  C -0.05458352  0.49782581 -0.03934224
  O -0.39884483  1.79032960 -0.38708644
  H -1.28685609  1.97829933 -0.06798062
  C -1.00188400 -0.60438330  0.42714420
  H -2.01804244 -0.51392721  0.03563357
  H -1.02433671 -0.81766662  1.49792684
  O -0.26785795 -1.58347241 -0.31736016
  C  0.62793650 -0.59918409 -0.81710338
  H  1.00794838 -0.67589561 -1.81888734
