12
opt_min/./Product_10749_0_opt.xyz
  N  0.90454200 -1.39405300 -0.21912800
  C  0.72204737  0.02210926 -0.00350842
  C  1.83552483  0.90953067  0.19836009
  O  1.80152792  2.09791449  0.42969208
  H  2.80901237  0.36444643  0.14660412
  C -0.55150800  0.45916674  0.04008529
  N -1.57272466  1.24158915  0.12293056
  N -1.85022018 -0.17817345 -0.10276011
  H -2.17593950 -0.46492534 -1.02638795
  H -2.22839493 -0.72715464  0.66992529
  H  1.04595775 -1.58268672 -1.21062444
  H  1.75869268 -1.68324425  0.25088638
