17
opt_min/./Reactant_11294_0_opt.xyz
  C -1.65198000 -0.44235700  0.35523200
  C -0.44237662  0.03543091 -0.45628453
  O -0.83640868  0.35619454 -1.77751836
  H -1.45935263  1.09195961 -1.74288064
  C  0.26025581  1.22209431  0.25806412
  H -0.37152311  1.68518049  1.01479730
  H  0.54478628  1.98530489 -0.46840597
  C  1.49027758  0.60388027  0.86010577
  H  2.10050076  1.16706603  1.54035709
  C  1.69053781 -0.62679709  0.42858026
  H  2.50933823 -1.26939038  0.70351765
  C  0.63632251 -1.06893029 -0.53959246
  H  1.03651532 -1.09630409 -1.55339968
  H  0.24371192 -2.05552407 -0.30932928
  H -2.12303652 -1.27608818 -0.15364054
  H -2.38053908  0.35836083  0.45820834
  H -1.33976637 -0.75742661  1.34400760
