8
opt_min/./Product_3778_0_opt.xyz
  N  1.10918900 -0.11102700 -0.04992800
  H  2.08129672  0.13409199 -0.17763458
  C  0.11356350  0.70272531  0.27251053
  H  0.18701107  1.75626739  0.44914131
  N -0.97558325 -0.07227614  0.32552776
  H -1.89772097  0.26607579  0.54940506
  C -0.63780560 -1.39627291  0.02754227
  N  0.66360060 -1.37011771 -0.19776497
