10
opt_min/./Product_2856_0_opt.xyz
  C -1.23585977 -0.41722377  0.42519289
  C -16.29803563 -4.26588658  2.53668738
  C  7.26158845  6.00744054 -6.12738629
  C  41.02560477 -41.25264431  3.10172874
  N  18.40445254  1.90945055  1.05685614
  H -56.16076025  24.47616515 -4.93277826
  H  65.22150004 -5.47606151  32.63470595
  H -12.33528232 -1.87125784  12.27203421
  H  38.82191677 -31.95969924 -14.76642106
  H -15.64058917 -52.88836132 -16.30743297
