15
opt_min/./Product_1595_0_opt.xyz
  C -1.64550300  0.19216000 -0.16641200
  H -2.20299549  0.10872490 -1.10444170
  H -2.28206291  0.70591805  0.55970186
  C -0.27736989  0.85330779 -0.33668844
  H -0.07428775  1.51368599  0.50755160
  H -0.19263656  1.43405250 -1.25238848
  C  0.70947790 -0.34171186 -0.32036318
  C  2.09442200 -0.03760444  0.25178970
  H  2.12716635  0.96138862  0.67978192
  H  2.86636759 -0.10297964 -0.51037282
  H  2.33472036 -0.75356480  1.03410672
  H  0.81488926 -0.71833712 -1.34732814
  C -0.02487034 -1.47139910  0.37471708
  N -1.28032163 -1.13132456  0.34538538
  H -1.98538813 -1.71162314  0.77888798
