11
opt_min/./Product_756_0_opt.xyz
  C -1.70937000 -0.04385400  0.19055800
  C -0.24081351 -0.20061899  0.06316022
  N  0.37547347 -1.40555486  0.12899993
  N  1.63388736 -1.25715224  0.00838969
  N  1.89399132  0.03624850 -0.16498731
  H  2.83575171  0.37367619 -0.28717772
  C  0.74134338  0.74772193 -0.14513684
  H  0.69569896  1.80722837 -0.26185645
  H -2.04019312 -0.44353739  1.14790256
  H -2.22182247 -0.60819419 -0.58455988
  H -1.98785529  1.00335491  0.12945786
