9
opt_min/./Product_9444_1_opt.xyz
  N  3.34431200 -0.68827100  0.10952400
  C  2.20725890 -0.58556269 -0.03603154
  C  0.82840756 -0.49560560 -0.21096114
  O  0.26770972  0.66962114 -0.28882819
  C -0.99267982  0.92597323 -0.45895937
  C -2.00156151 -0.02735101 -0.59594883
  N -2.83207075 -0.81068087 -0.74334512
  H -1.23704106  1.97821394 -0.49592509
  H  0.24265973 -1.40656573 -0.28724203
