19
opt_min/./Product_6515_0_opt.xyz
  C -1.61428800  0.75359100 -0.91593800
  O -0.44822443 -0.01462831 -1.06520341
  C  0.12249974 -0.48738473  0.16048684
  C  0.89498360  0.42842119  1.01638335
  C  1.38731750  1.66028995  0.36897935
  H  1.18241464  1.77141982 -0.69957929
  H  2.46013261  1.75015931  0.55984445
  H  0.92738645  2.48123747  0.92535064
  C -0.84633620 -1.37158301  0.95293794
  H -1.63472725 -0.77020292  1.39972261
  H -1.28826068 -2.11928913  0.29712410
  H -0.29913259 -1.86588612  1.75080597
  C  1.38859330 -1.30004409 -0.23720810
  H  1.09627674 -2.31965807 -0.47123753
  H  1.82720627 -0.82868501 -1.11303603
  H  2.11413181 -1.31087767  0.57642975
  H -1.78819054  1.23813905 -1.87696918
  H -1.49927408  1.51949789 -0.13951106
  H -2.48197958  0.13214994 -0.66976404
