14
opt_min/./Product_4633_0_opt.xyz
  C  0.58286600 -0.90659600  0.47618800
  H  1.05542030 -1.76941570  0.00550060
  H  0.80727110 -0.94248366  1.54449792
  C  1.22195901  0.40466075 -0.06930064
  H  2.29240793  0.41477752  0.13209471
  H  1.05983361  0.45612766 -1.14546744
  C  0.46974654  1.47271820  0.68290816
  H  0.91492167  2.05725546  1.46640548
  C -0.80998450  1.37037045  0.39594330
  C -1.52944562  0.37685387 -0.06287326
  H -2.41259966  0.42426640 -0.67631057
  C -0.94798533 -0.98984098  0.27620677
  H -1.18265177 -1.60595494 -0.59721378
  H -1.41162509 -1.46072435  1.14528259
