16
opt_min/./Reactant_1214_0_opt.xyz
  C  1.91186300 -0.05527800  0.27837600
  C  0.60765233  0.73089655  0.19280451
  C -0.54365618 -0.07240040 -0.44208700
  C -1.02476170 -1.23092612  0.42304424
  H -0.24391294 -1.97284382  0.55757355
  H -1.33685141 -0.86417052  1.39736598
  H -1.87984664 -1.71076555 -0.04548454
  C -1.67181099  0.88408630 -0.72938074
  O -2.79418169  0.79315125 -0.32086760
  H -1.36710564  1.74754802 -1.36028202
  H -0.19817316 -0.45005869 -1.41146275
  H  0.77667261  1.62779954 -0.40621634
  H  0.30258987  1.05176082  1.19011007
  H  1.75265466 -1.04102762  0.70503424
  H  2.35085013 -0.17810959 -0.70875209
  H  2.62673765  0.46973729  0.90607949
