14
opt_min/./Product_11108_0_opt.xyz
  C -1.67072000 -0.13635600  0.34089100
  H -2.62365062 -0.22392309  0.83317569
  C -0.98032077 -1.12329002 -0.21167455
  H -1.25712820 -2.16044090 -0.26095459
  C  0.30060473 -0.61945054 -0.78610669
  H  0.41739070 -0.81188838 -1.85459429
  C  1.54346257 -0.75663100  0.06827294
  H  2.26957511 -1.53352641  0.19490761
  C  1.42128356  0.52419131  0.42866804
  H  1.92934185  1.21390895  1.07727399
  N  0.31970701  0.82800458 -0.40800069
  C -0.95999660  1.18164046  0.20225407
  H -0.80788138  1.67631969  1.16674048
  H -1.50928837  1.86672482 -0.45522629
