12
opt_min/./Product_252_0_opt.xyz
  C -1.50640986 -0.55422328 -0.09653867
  N -0.28408022  0.08055169  0.37033686
  H -0.00729941 -0.23544720  1.30330808
  C  0.06500583  1.43991098 -0.11789591
  H  0.57208898  1.99411833  0.68710950
  C  0.85110087  0.23997464 -0.55883700
  C  2.10429602 -0.13750597  0.00535401
  N  3.11871466 -0.37563924  0.48636692
  H  0.70100084 -0.14604452 -1.56438821
  H -1.97586892  0.11901440 -0.81346035
  H -1.29951681 -1.51221162 -0.57760916
  H -2.18621533 -0.71753959  0.73746660
