20
opt_min/./Product_9804_0_opt.xyz
  C -2.16681100  0.43967200  0.14823000
  C -1.67498469 -0.96993740 -0.15074307
  C -0.44476229 -0.97201261 -1.06190008
  N  0.72687020 -0.42022418 -0.39187914
  C  1.31302762 -1.21141133  0.49525290
  H  1.00235572 -2.23308609  0.57281384
  H  2.16026041 -0.87448800  1.05311192
  C  1.07326365  0.82123531 -0.69123250
  C  2.22339052  1.49410115 -0.02764163
  H  2.05579744  1.62469075  1.04693736
  H  3.14344179  0.91544170 -0.14614336
  H  2.37988599  2.47593836 -0.46766203
  H  0.45644949  1.36854307 -1.37878679
  H -0.65156200 -0.38057483 -1.95641809
  H -0.21881332 -1.99744090 -1.36652622
  H -1.42276981 -1.47404220  0.78424278
  H -2.46511855 -1.54201854 -0.64138760
  H -1.38240923  1.02100235  0.62793260
  H -3.02458933  0.40749232  0.81606746
  H -2.46215123  0.94685795 -0.76785027
