20
opt_min/./Reactant_9804_0_opt.xyz
  C -1.97296700  0.64915300  0.02684200
  C -1.50346975 -0.78871421 -0.23708485
  C -0.40742570 -0.87889816 -1.31350356
  N  0.93487802 -0.48350816 -0.95647806
  C  1.66356688 -1.15262513  0.08742554
  H  2.68083543 -1.42151040 -0.17168426
  H  1.15951078 -1.88332696  0.71471537
  C  1.29268517  0.27482675  0.21166681
  C  2.31599575  1.37584828  0.01949905
  H  2.00882503  2.27712766  0.54415349
  H  3.28923360  1.07260304  0.40181196
  H  2.42003407  1.60116768 -1.03917381
  H  0.51514185  0.50646557  0.93420924
  H -0.70139896 -0.26188737 -2.16855740
  H -0.33450376 -1.91689822 -1.65623964
  H -1.13844827 -1.24845487  0.68415647
  H -2.34258428 -1.39104774 -0.58706422
  H -1.81209633  0.94338076  1.06209301
  H -1.43064148  1.34839623 -0.60702175
  H -3.03460366  0.75395666 -0.18633279
