16
opt_min/./Product_3950_0_opt.xyz
  C  2.74170700  0.01167500 -0.77669400
  C  1.28886213 -0.29910377 -1.11217829
  C  0.36013919  0.66593308 -0.42830438
  C -0.74439419  0.34102510  0.16655058
  C -1.85979017  0.00090313  0.73424285
  C -3.18256377 -0.09747023  0.03310875
  H -3.11920595  0.31567082 -0.97200691
  H -3.94578513  0.43583373  0.60102239
  H -3.48308741 -1.14504456 -0.03604732
  H -1.89055915 -0.24224688  1.78867099
  H  0.68421759  1.69883688 -0.46188065
  H  1.04241716 -1.32232298 -0.81384270
  H  1.13807219 -0.21797867 -2.19664489
  H  3.00777285  1.01459459 -1.11214894
  H  2.90514067 -0.04779798  0.29891531
  H  3.40404762 -0.70279276 -1.26240840
