12
opt_min/./Reactant_11891_0_opt.xyz
  C -1.02798848  0.74482238 -0.03137284
  C -0.06527100 -0.42616910  0.24280818
  O -0.63764754 -1.67568148 -0.10192134
  H -1.01363995 -1.60828862 -0.98414562
  C  1.20169673 -0.20784455 -0.46535071
  C  2.23488764 -0.10325019 -1.05939707
  H  3.13929501 -0.00618329 -1.58099092
  C  0.23734123 -0.45236073  1.67190210
  N  0.46985291 -0.46531360  2.78912295
  H -1.17824768  0.84882427 -1.10513168
  H -0.62002984  1.67532840  0.35665351
  H -1.98350718  0.54124218  0.44693104
