12
opt_min/./Product_9140_0_opt.xyz
  C  1.73053300 -0.49662600  0.04785700
  C  0.31110428 -0.05575826 -0.04034895
  C -0.04176504  1.38573069  0.19895621
  O -1.18589748  1.74189109  0.24790211
  H  0.80697270  2.07027025  0.38510438
  N -0.63099277 -0.85875919 -0.27170539
  C -1.96472916 -0.63689505 -0.35837111
  O -2.62728505 -0.54458308 -1.35378673
  H -2.42656415 -0.73870378  0.65185236
  H  1.99145389 -1.05501313 -0.84778400
  H  2.40214105  0.34934172  0.15630446
  H  1.85904716 -1.16416931  0.89744652
