11
opt_min/./Product_6241_1_opt.xyz
  O  2.44597203 -0.69314750  1.06249927
  C  1.87112767 -0.14535753  0.17034759
  N  0.49676071 -0.04017308  0.05679177
  C -0.29327341  0.54182453 -0.89477446
  H -0.06791558  1.06714673 -1.78849566
  C -1.49858628  0.10602159 -0.11543726
  H -2.12458490 -0.62912554 -0.61607604
  H -2.13010480  0.90013978  0.27307827
  C -0.51554516 -0.48064660  0.85247766
  H -0.50684627 -1.02882608  1.76200126
  H  2.38437905  0.34134069 -0.68495354
