14
opt_min/./Product_2822_0_opt.xyz
  C -0.25379100  1.52236500  0.24030500
  C  0.13603436  0.08707976 -0.02118315
  O  1.54726776 -0.00704008 -0.13931921
  C  2.08011392 -1.19263146 -0.19620574
  H  3.17038047 -1.00797599 -0.29424484
  C -0.63024638 -1.05239714  0.58119400
  H -0.05689461 -1.89746814  0.92660753
  H -1.49237366 -0.80190834  1.17763741
  C -0.69797496 -0.80696586 -0.89649335
  H -1.60610589 -0.41893256 -1.32744116
  H -0.14943807 -1.48129677 -1.53814416
  H  0.26042685  2.16798476 -0.46894227
  H -1.32365410  1.65308919  0.11633426
  H  0.02874722  1.81712339  1.24798920
