11
opt_min/./Product_91_0_opt.xyz
  N -1.19644600 -1.14018700 -0.45065900
  C -0.96829529 -1.43934434  0.86762911
  C -1.19784835 -2.63805426  1.53070785
  N -0.77538923 -2.40642722  2.81963289
  H -0.87557521 -3.21971991  3.58115470
  H -1.59599281 -3.58009384  1.18936490
  N -0.46219841 -0.49325146  1.73744209
  C -0.43339851 -1.03340523  2.93040246
  H -2.99163223  9.98441117 -2.15959867
  H -2.07318018 -1.45971014 -0.84969189
  H -0.94775541 -0.18188100 -0.67551641
