13
opt_min/./Product_8020_0_opt.xyz
  O  1.51808696 -1.12855539  1.51595801
  C  1.49184989 -0.28959130  0.38072078
  C  0.08926895  0.10823150 -0.03478550
  C -0.36748327 -0.11316650 -1.23883091
  C -0.74755276 -0.28773116 -2.46068035
  H -0.59817799  0.47635493 -3.20921983
  H -1.24850163 -1.17656258 -2.79985884
  C -0.69990940  0.69437061  0.98490384
  C -1.35151961  1.16330989  1.87797763
  H -1.91932696  1.56656311  2.66418938
  H  2.06521226  0.62415765  0.60745366
  H  1.98082691 -0.81665265 -0.44602424
  H  0.63737393 -1.14915281  1.90983381
