12
opt_min/./Product_8974_0_opt.xyz
  N  1.93243700  0.61204800  0.58414500
  C  0.82678808  0.23274366  0.10624194
  C -0.36243724  1.15056860  0.06788494
  H -0.40403367  1.63490330 -0.92067199
  H -0.27258002  1.95065679  0.80565074
  N -1.62348245  0.49508170  0.26544740
  C -1.69163534 -0.75821911  0.10463557
  H -2.63086421 -1.26811848  0.28231395
  N -0.68633246 -1.58503867 -0.38006482
  C  0.49140264 -1.09969870 -0.42406742
  H  1.27552103 -1.72280002 -0.84704624
  H  2.67508179 -0.08852899  0.55914987
