15
opt_min/./Product_7226_0_opt.xyz
  O  2.45215420  0.95758083 -0.47722329
  C  1.19774169  0.64487306  0.07294328
  C  0.72177885 -0.76483612 -0.29678731
  C -0.66750442 -1.06050694  0.27134993
  C -1.71945653 -0.16413814 -0.33392189
  C -2.44552344  0.64933877  0.35895281
  O -3.10133007  1.36876115  1.00030366
  H -1.84731449 -0.20494889 -1.40267779
  H -0.64732654 -0.91560322  1.35324521
  H -0.92217359 -2.10307239  0.06833658
  H  0.71683102 -0.86145963 -1.38410807
  H  1.43433259 -1.49210625  0.10317537
  H  1.21913722  0.73652934  1.17098820
  H  0.50893937  1.39386170 -0.32148701
  H  3.09914363  0.31591340 -0.16192483
