11
opt_min/./Product_1375_0_opt.xyz
  N  0.62812200 -0.52929500  0.81340500
  C  1.55209364  0.42520375  0.57758319
  O  1.54041303  1.18734770 -0.35237371
  H  2.34432812  0.43086396  1.35146123
  C -0.49796372 -0.70590711 -0.07448996
  C -1.49530106  0.43353233 -0.00286492
  O -2.50086859  0.48341734 -0.64604052
  H -1.21471306  1.23232038  0.70954128
  H -0.14768880 -0.76205526 -1.11256744
  H -1.01280121 -1.63940447  0.15803866
  H  0.72065919 -1.13794801  1.60850379
