17
opt_min/./Product_10657_0_opt.xyz
  C  2.95399700  0.27707700 -0.48003500
  C  1.70020386 -0.31303076  0.06792026
  C  0.52484176  0.29844797  0.07850742
  C -0.72975026 -0.30526914  0.60434980
  H -0.51269335 -1.17825767  1.23006831
  O -1.56972515  0.62904632  1.31213406
  C -2.64898525  0.45948341  0.38843150
  H -3.53420937  0.05348155  0.87955913
  H -2.90408140  1.39670652 -0.10936171
  C -1.84314547 -0.54390551 -0.44246147
  H -1.59606889 -0.22282022 -1.44834712
  H -2.24328387 -1.55036377 -0.46172564
  H  0.42546941  1.29646935 -0.32356672
  H  1.78207075 -1.31084799  0.48055548
  H  3.41247910 -0.40099858 -1.19502889
  H  2.75531388  1.23193303 -0.95677878
  H  3.67063419  0.43382694  0.32530356
