13
opt_min/./Product_10122_0_opt.xyz
  O  3.67216800 -0.67796300 -0.32309900
  C  2.64216285 -0.16407183 -0.17704068
  N  1.52800396  0.21764237 -0.08157688
  C  0.53094319  1.12855463  0.31767196
  C -0.83524143  0.46228563  0.40541457
  H -1.51530169  1.00100669  1.06401028
  N -1.36105471 -0.11671066 -0.80789212
  H -2.35777464  0.01752357 -0.94466212
  C -1.00951781 -1.00048324  0.27894012
  H -1.78722768 -1.49149949  0.85315727
  H -0.13167261 -1.60455947  0.09295889
  H  0.47797670  1.94024805 -0.41982270
  H  0.77906363  1.55565053  1.29794213
