12
opt_min/./Reactant_4918_0_opt.xyz
  O -1.05783700  1.86948500 -0.48772800
  C -0.52838244  0.84637163 -0.16299378
  C  0.95096141  0.57887012  0.01880840
  H  1.21773025  0.87164935  1.03628485
  H  1.56592081  1.12772475 -0.68773941
  C  1.00986546 -0.93915272 -0.12709454
  H  1.07973593 -1.21798611 -1.18839285
  H  1.81837332 -1.41359519  0.42883868
  O -0.21093043 -1.41937091  0.41286851
  C -1.21911652 -0.47851449  0.11886225
  H -1.80436840 -0.77448267 -0.76338753
  H -1.89501271 -0.40778892  0.97464712
