11
opt_min/./Product_2320_1_opt.xyz
  O  3.08358900 -0.33920400 -0.34214600
  C  2.25692275  0.09194516  0.41503530
  N  1.01915146 -0.39650003  0.63819685
  C -0.12437827 -0.23206284  0.19335142
  C -1.03800039  0.40296059 -0.75739818
  H -1.26698083  1.45104255 -0.62750066
  H -1.00952287  0.09237166 -1.79072179
  C -1.53031206 -0.58512614  0.30025376
  H -2.09867912 -0.21099281  1.13858721
  H -1.83648842 -1.56979828 -0.02187840
  H  2.49361860  0.86721848  1.18222356
