13
opt_min/./Reactant_5506_0_opt.xyz
  C -1.43282300  0.20993801  0.18715000
  C -0.36605448 -0.88229809  0.14673403
  O  0.80882720 -0.54376185  0.86514466
  C  1.56861172  0.50423820  0.30842665
  C  2.06567732  0.21624979 -1.02664122
  N  2.44005969 -0.01692745 -2.08104913
  H  2.42326263  0.63918458  0.97993409
  H  0.99399920  1.44338389  0.25640180
  H -0.11903036 -1.13258526 -0.89290640
  H -0.72302768 -1.78103573  0.65492998
  H -1.53231901  0.57968611  1.20588281
  H -2.38878668 -0.20059356 -0.12457350
  H -1.18750974  1.03699046 -0.47441747
