19
opt_min/./Product_10911_0_opt.xyz
  C  2.99865700  0.41294300  0.08299500
  C  1.80593154 -0.41413143 -0.26628006
  C  0.62245402 -0.32287693  0.31667718
  C -0.57078583 -1.14543721 -0.05709851
  C -1.69385692 -0.31036480 -0.67962402
  C -2.32771109  0.67091908  0.30794302
  O -3.48255762  1.28516862 -0.21109981
  H -3.24874613  1.76131355 -1.01520109
  H -2.66337991  0.13992145  1.20116179
  H -1.59375316  1.42769249  0.61383591
  H -2.48030429 -0.98278149 -1.03268583
  H -1.30438608  0.23671116 -1.54171487
  H -0.26833530 -1.91616064 -0.76681931
  H -0.96089656 -1.63840355  0.83780311
  H  0.47190001  0.38566148  1.12067361
  H  1.95398972 -1.12749574 -1.06693804
  H  3.20655971  1.12474951 -0.71425407
  H  3.87721126 -0.21753600  0.20141605
  H  2.83624622  0.96445967  1.00482766
