15
opt_min/./Reactant_11878_0_opt.xyz
  C -1.91176400 -0.36643500  0.61230400
  C -1.14017113  0.28216860 -0.53453720
  N  0.27641676  0.26991025 -0.28780094
  C  1.13884276 -0.75616787 -0.55313064
  H  0.81557196 -1.65096507 -1.04661759
  C  2.35668938 -0.36124215 -0.08243570
  H  3.29555263 -0.87864303 -0.09981118
  N  2.26096836  0.88117703  0.45861240
  C  1.00974588  1.22593194  0.32818428
  H  0.58870888  2.15806325  0.65239017
  H -1.46047209  1.32174422 -0.66184441
  H -1.33981153 -0.25416449 -1.46837410
  H -1.75118396  0.18281727  1.53814049
  H -2.97728473 -0.36672559  0.39136666
  H -1.58021793 -1.39260415  0.75780034
