10
opt_min/./Product_4910_0_opt.xyz
  N -1.36727200 -0.38020100 -0.21056500
  C  0.13867655  0.58348658  0.35882080
  O -0.26246168  1.53806538  0.96767719
  C  1.16925770 -0.13300307 -0.05090509
  O  2.48457776  0.29153886  0.16125935
  H  2.44302859  1.07180317  0.72547323
  H  1.11227612 -1.04174784 -0.61946400
  H -1.58289078 -1.05775604  0.51223885
  H -1.23125513 -0.83943805 -1.10287930
  H -2.10758806  0.31245726 -0.25696719
