16
opt_min/./Product_10641_0_opt.xyz
  C -2.14058000 -1.03142200 -0.06494200
  C -1.12902115  0.09591934  0.05508099
  H -1.63893533  1.06722729  0.01347650
  N -0.22656222 -0.01886972  1.18708198
  H -0.36882763  0.02296086  2.17560059
  C  0.90402924 -0.10965667  0.39530021
  O  2.11883612 -0.12819001  0.75308200
  C  3.19604709  0.01226109 -0.04383527
  H  4.07633920 -0.41329795  0.40770853
  H  3.05131221 -0.13627168 -1.10531987
  C  0.10524759  0.00568457 -0.87361638
  H  0.30343380  0.89927719 -1.46712119
  H  0.12801224 -0.87028306 -1.52267603
  H -2.87802086 -0.96469333  0.73180203
  H -2.65418192 -0.96954415 -1.02109043
  H -1.64071893 -1.99458917  0.00428125
