12
opt_min/./Product_9142_0_opt.xyz
  C -2.00581700  0.24431800  0.15158600
  C -0.65423396 -0.36121774  0.04746934
  C -0.25195113 -1.61461150 -0.32892207
  O  1.15483041 -1.56865281 -0.19452168
  C  1.52625028 -0.40744075  0.21604159
  O  2.81379640 -0.12015059  0.43216110
  H  2.95452107  0.83184947  0.50181828
  N  0.48374940  0.39561369  0.39597511
  H  0.50392846  1.34725920  0.72737994
  H -2.39062729  0.19809540  1.17087625
  H -1.99380549  1.28525361 -0.16757914
  H -2.68382553 -0.31735954 -0.48230876
