13
opt_min/./Product_4795_0_opt.xyz
  C  0.60184900  1.35989600  0.13980200
  N  0.56432451 -0.07308034  0.21160166
  C  1.62763112 -0.77624712  0.27080515
  H  1.49069417 -1.84892115  0.32135836
  H  2.61303323 -0.33882402  0.27642852
  C -0.78136501 -0.89111805  0.23013933
  O -0.58941571 -2.09179388  0.31566305
  C -1.87920544 -0.10969927  0.14637270
  H -2.83779698 -0.59196409  0.15402561
  H -1.87366266  0.95912026  0.08420017
  H  0.09209856  1.78427792  1.00511009
  H  1.63171086  1.71873443  0.11475702
  H  0.08844948  1.69786838 -0.76046651
