11
opt_min/./Product_11368_0_opt.xyz
  C -1.72871800 -0.09203500 -0.08575800
  C -0.30984339  0.34113979 -0.17599196
  C  0.73437593 -0.37554635  0.24324594
  C  2.10978692  0.07964672  0.10494705
  O  3.08991236 -0.52687005  0.45876859
  H  2.20747361  1.08124177 -0.37079942
  H  0.59450763 -1.33991106  0.71197107
  H -0.13441881  1.30393316 -0.64016658
  H -1.85447627 -0.87000354  0.66069425
  H -2.37863122  0.74669944  0.14812407
  H -2.04576836 -0.49203364 -1.04744736
