13
opt_min/./Product_4165_0_opt.xyz
  C  1.82249800 -0.10354300  0.32418800
  C  0.49170793  0.62203328  0.11740537
  H  0.64289204  1.70210510  0.25908135
  O -0.49771978  0.15808019  1.05660091
  C -1.60393909 -0.32136371  0.32752442
  H -2.50325272  0.27725595  0.53322647
  H -1.81676642 -1.36649523  0.57239210
  C -1.15795876 -0.13685824 -1.09930435
  H -1.73094982 -0.41292310 -1.96419835
  N -0.02377256  0.39345249 -1.19810323
  H  2.03948654 -0.12839820  1.38708322
  H  1.75735275 -1.11587660 -0.05693546
  H  2.61250067  0.42568423 -0.19554649
