15
opt_min/./Product_10803_0_opt.xyz
  C -2.20029800  0.66428900 -0.69990000
  O -1.00210188 -0.05323413 -0.81554264
  C -0.31652034 -0.25009453  0.39600221
  H -0.75744138  0.27687763  1.23653072
  C  0.31558015 -1.60445566  0.65057917
  H  0.30495432 -1.99195008  1.65941107
  H  0.22914048 -2.36258555 -0.11278635
  C  1.14212662 -0.42412417  0.35909143
  C  2.32203519  0.12033798  0.18195281
  O  2.47915075  1.45996006 -0.06875558
  H  3.37714784  1.62415250 -0.37265435
  H  3.23482859 -0.46603480  0.24958937
  H -2.92472699  0.14819053 -0.05742254
  H -2.60185516  0.71919442 -1.71054557
  H -2.03786679  1.67629726 -0.31658710
