17
opt_min/./Reactant_10803_0_opt.xyz
  C -2.61437100  0.47072500  0.28166300
  O -1.21833070  0.54796179  0.40153312
  C -0.51621957 -0.28133376 -0.48863383
  H -1.13011919 -1.06416683 -0.92667684
  C  0.57741371  0.32994834 -1.31023739
  H  0.75721572  1.38548037 -1.15856491
  H  0.72438456 -0.02042658 -2.32194811
  C  0.91829289 -0.59397835 -0.16726659
  C  1.54434220 -0.02280011  1.08151953
  O  2.95022177  0.07330171  0.97309981
  H  3.15087206  0.64791790  0.22380510
  H  1.10373293  0.95731235  1.30391621
  H  1.36856676 -0.68042847  1.93941615
  H  1.27496129 -1.58593741 -0.42139971
  H -2.95938553  0.79260638 -0.70985411
  H -2.98053931 -0.54671188  0.46688505
  H -3.01981794  1.14518393  1.03618242
