13
opt_min/./Product_3311_0_opt.xyz
  C  2.53693000 -0.42633000  0.32623200
  C  1.22810709 -0.47576990  0.03212993
  C  0.62112701  0.61418019 -0.65153662
  C -0.74595552  0.93074545 -0.38105051
  H -1.08808058  1.90084483 -0.72826501
  C -1.78153845 -0.16534615 -0.49218020
  H -2.70818881  0.10943906 -0.97818765
  H -1.45376783 -1.17973276 -0.69757570
  N -1.53953038  0.44117425  0.76515804
  H -0.99745297 -0.13417822  1.40546236
  H  0.66811640 -1.36661659  0.32396612
  H  3.03091603 -1.20233040  0.88709437
  H  3.12035853  0.43971673  0.06504454
