13
opt_min/./Reactant_3311_0_opt.xyz
  C  1.86574000  2.19914700 -0.21358800
  C  1.07766777  0.98764627 -0.23806789
  C  0.42163050 -0.01520121 -0.27016472
  C -0.35939755 -1.21600065 -0.30733979
  H  0.20249410 -2.11639426 -0.07679160
  C -1.79568140 -1.17480761  0.07885430
  H -2.21309192 -2.04890543  0.56124270
  H -2.23662736 -0.23213955  0.35837015
  N -1.40963261 -1.27201758 -1.31014510
  H -1.54733368 -2.18947319 -1.71471368
  H  2.28057427  2.35599677  0.78046962
  H  1.24364895  3.05349584 -0.47215963
  H  2.68651407  2.11801170 -0.92237147
