16
opt_min/./Reactant_5167_0_opt.xyz
  C -1.01448900  1.29910200 -0.29482600
  C -0.20341829  0.01291538 -0.42770696
  C -1.11815927 -1.18586776 -0.63935909
  H -1.77648614 -1.00208615 -1.48123476
  H -1.71631670 -1.35004119  0.25337705
  H -0.52974339 -2.07539815 -0.84248912
  C  0.91847631 -0.19433878  0.61563043
  H  0.98877554  0.55914303  1.38992514
  H  0.93075914 -1.18215137  1.06240953
  C  1.86845612 -0.02868009 -0.57463093
  H  2.48240827 -0.90017469 -0.81442936
  H  2.52495913  0.84485648 -0.55582175
  O  0.78273450  0.12889484 -1.48300227
  H -0.42433625  2.08327903  0.16518564
  H -1.30693631  1.62350682 -1.28869077
  H -1.90749883  1.13435535  0.30039263
