13
opt_min/./Product_3341_0_opt.xyz
  C  1.19035700 -0.33800900 -0.22712700
  H  1.22250991 -0.95769722 -1.12272153
  H  2.17878043 -0.29238721  0.22850030
  C  0.09732165 -0.58923740  0.81321438
  H  0.25544885 -1.26552657  1.64473514
  C -1.20107068 -0.60682817  0.00516989
  H -1.25660794 -1.23271488 -0.88542185
  H -2.07219929 -0.77713536  0.63535378
  C -0.91220599  0.86732459 -0.14781535
  H -1.59988115  1.65937866 -0.39516383
  C  0.55690188  1.03239013 -0.29371352
  H  0.99758690  1.94926613 -0.64978085
  N -0.04654503  0.90574034  1.04293424
