13
opt_min/./Product_1832_0_opt.xyz
  C  2.50520600 -0.02947500  0.01880800
  O  1.38785371  0.64309966  0.34778859
  C  0.19031396  0.24322483  0.24539227
  C -1.13594215  0.95072491  0.27875583
  H -1.24436057  1.79174130 -0.40415405
  H -1.46718942  1.24961410  1.27329135
  C -1.72197279 -0.38527707 -0.22686246
  H -2.41189394 -0.88309755  0.46109754
  H -2.17500368 -0.33840569 -1.22212575
  N -0.38240580 -0.93110150 -0.22571449
  H -0.01648854 -1.83136825 -0.45959951
  H  3.37343544  0.35023484  0.52515882
  H  2.43149864 -1.09369688 -0.14467954
