17
opt_min/./Product_9556_0_opt.xyz
  C  1.48649700 -0.04468600  0.58655500
  H  1.75130134  0.78365673  1.22376375
  H  1.72504814 -1.01233801  0.99663385
  C  1.59331874  0.13853321 -0.89806387
  H  1.87919175 -0.70741260 -1.50311780
  H  1.96366591  1.07963139 -1.27433029
  C  0.24161138  0.10029721 -0.26249639
  C -0.73875832 -1.05977276 -0.37800021
  H -0.30674053 -2.02240857 -0.12070460
  H -1.10490352 -1.11097315 -1.40689795
  C -1.90292388 -0.61809508  0.52006806
  H -2.86760687 -1.01768494  0.21223581
  H -1.72873230 -0.92239370  1.55584942
  C -1.82114719  0.88272312  0.42540203
  H -2.63356444  1.52086017  0.72254873
  C -0.63179444  1.27387704 -0.01038738
  H -0.30462902  2.29024977 -0.13298442
