16
opt_min/./Product_11243_0_opt.xyz
  C  2.06440900 -0.45623500 -0.07483100
  C  0.71259727 -0.04824831  0.50120576
  H  0.56934570 -0.45863166  1.50173396
  O  0.53516610  1.38705689  0.55958773
  C -0.59637928  1.32852880 -0.20681084
  N -1.40284387  2.19757698 -0.58571933
  H -1.18468450  3.13858310 -0.27518634
  C -0.53905322 -0.16370131 -0.40925786
  C -1.70455151 -0.98695302  0.11420559
  H -2.47801932 -1.08118259 -0.63853651
  H -2.14337147 -0.49266737  0.97806459
  H -1.36808174 -1.97512398  0.40887656
  H -0.30096138 -0.45056123 -1.42996990
  H  2.53156447 -1.22573526  0.52527286
  H  2.70485096  0.41920811 -0.09189662
  H  1.96553517 -0.80889359 -1.09607730
