12
opt_min/./Product_10547_0_opt.xyz
  O  1.83980000 -1.07016600 -1.32597300
  C  1.74234984 -0.40902680 -0.33768344
  C  0.49428926 -0.27647532  0.51469655
  H  0.77190218 -0.49662543  1.55839422
  C -0.11318694  1.11333536  0.40919143
  H  0.40665505  2.01697635  0.66268770
  N -1.28984705  1.09404843 -0.02129518
  C -1.66849426 -0.26130408 -0.25964805
  H -1.93834896 -0.39277189 -1.31313637
  H -2.54218813 -0.50921768  0.35611593
  O -0.56666574 -1.09979035  0.08339456
  H  2.58549446  0.20349553  0.04559801
