14
opt_min/./Product_1385_0_opt.xyz
  C  2.68784100  0.26609100  0.30042400
  O  1.45120789  0.14699903 -0.39307977
  C  0.37336864  0.00393904  0.36947780
  C -0.80802719 -0.08844831 -0.49391468
  H -0.64733407 -0.04457251 -1.57070885
  C -2.06479875  0.58095528  0.03374312
  H -2.68394803  1.09160041 -0.68738837
  H -1.99646112  1.07934516  0.98758817
  C -1.98033505 -0.89767790  0.00553400
  H -1.85278354 -1.41308350  0.94440714
  H -2.55487331 -1.44749576 -0.72372052
  H  2.86545673 -0.61531099  0.91728034
  H  2.68392192  1.15245901  0.93648057
  H  3.46223489  0.35832383 -0.45825811
