15
opt_min/./Product_9212_0_opt.xyz
  C  3.03295600 -0.72181900 -0.51277000
  C  2.08688816 -0.07782971  0.18550151
  C  1.32837358  1.04810609 -0.14424305
  C -0.12731831  1.10907965 -0.05655756
  C -0.91777319 -0.18330645  0.10487614
  H -0.38882275 -0.99039485  0.60615141
  C -2.38087251 -0.16970685  0.17495460
  H -2.90609754  0.77474341  0.08544383
  H -2.90812774 -0.94173238  0.72315595
  O -1.70630787 -0.59422932 -0.97336393
  H -0.49104748  1.63925657 -0.94249001
  H -0.32400187  1.78993586  0.78447682
  H  1.95198498 -0.36216273  1.23053125
  H  3.62840416 -1.50114314 -0.07257408
  H  3.15550828 -0.54977829 -1.56693948
