13
opt_min/./Product_10027_0_opt.xyz
  N -1.67734900  0.30135400  0.21486000
  C -0.38852480 -0.03171944 -0.31045437
  O -0.50099525 -0.32787430 -1.69060654
  H  0.37127483 -0.48656861 -2.06783559
  C  0.66076661  1.00607953  0.01398923
  H  0.59376513  2.00691468 -0.36966505
  C  1.59479039  0.45028269  0.78159026
  H  2.47446075  0.92988144  1.17259148
  C  1.28202470 -0.97673156  1.07500242
  N  0.16257442 -1.18132928  0.42175526
  H -0.33843400 -2.05502450  0.44051921
  H -2.35595698 -0.39023551 -0.08338265
  H -1.97778994  1.20529200 -0.12786265
