15
opt_min/./Product_8135_0_opt.xyz
  C  1.85818000 -1.03946700  0.60763200
  C  1.23184858  0.11985775  0.52252547
  C  0.66117138  0.67680606 -0.74788293
  O -0.69032443  1.07371205 -0.61227157
  C -1.59483969  0.04293837 -0.46530884
  H -1.15416146 -0.95130190 -0.41913427
  O -2.77347259  0.12903915 -1.17862264
  C -2.86347600  0.30144713  0.21760374
  H -3.36383948 -0.49475324  0.75503947
  H -3.08362633  1.30772231  0.54051020
  H  0.77423932 -0.04743485 -1.56694743
  H  1.18220202  1.59921668 -1.01885812
  H  1.08400752  0.72997936  1.39970588
  H  2.26060027 -1.39415467  1.54121037
  H  2.00897897 -1.66378902 -0.25706917
