11
opt_min/./Product_3360_0_opt.xyz
  O  1.27200900  1.07352100  0.17029000
  C  1.01424477 -0.31443558  0.19598805
  C -0.35431509 -0.58227966 -0.40064473
  H -0.54532509 -1.63176518 -0.58328208
  C -1.50112177  0.30974561 -0.06023324
  H -1.31413265  1.16781558  0.56980201
  H -2.49406089 -0.10328642  0.03151098
  C -0.89056004  0.38485999 -1.40287121
  H  1.03200849 -0.67181507  1.23996357
  H  1.76927327 -0.87396165 -0.36991059
  H  2.22032245  1.22789750  0.19519084
