11
opt_min/./Product_679_0_opt.xyz
  C  2.00197088  0.07133358 -0.08118042
  C  4.68857825  1.42647016  13.51292975
  C  5.62388494 -13.16816923 -2.17137786
  O  12.12338427  4.39634866  1.64520394
  C -16.64493684 -16.05463433 -13.04299062
  H -5.65228884 -15.48356285 -2.26625341
  H  18.71288882  16.82585515 -11.81997171
  H  25.60627636 -0.16101622 -3.33379019
  H  2.68699624 -22.77727611  8.21384385
  H -3.88537514  1.45744296  1.10680771
  H  0.26061514 -8.18019955  0.85740513
