11
opt_min/./Product_1468_0_opt.xyz
  C  1.31882700 -0.19043900 -0.07965000
  C -0.13479033 -0.11112719 -0.57240999
  H -0.15215778 -0.11236669 -1.67202329
  O -0.86782306 -1.25928296 -0.10662600
  N -1.83654344 -0.83989489  0.72821723
  C -2.04420376  0.44356380  0.55041737
  C -1.06998115  1.00730852 -0.22116695
  H -0.95902395  2.01686430 -0.55656585
  H  1.42305638 -1.05565259  0.57367052
  H  2.01576761 -0.28882740 -0.90618106
  H  1.55940518  0.70465164  0.48764613
