11
opt_min/./Product_420_0_opt.xyz
  O  2.45073500 -0.23858100 -0.65172500
  N  1.37181246 -0.83614251 -0.41770077
  C  0.20873295 -0.30994094 -0.25790366
  C -0.34701405  1.07172286 -0.26735230
  H -0.29086350  1.60478863 -1.22018027
  H -0.00212570  1.73087076  0.53798356
  O -1.65166753  0.52999500 -0.00871762
  C -1.16546536 -0.81694263  0.01850901
  H -1.32460053 -1.29782036  0.98853832
  H -1.61945922 -1.43061125 -0.77143504
  H  1.42396459 -1.86792269 -0.32248372
