14
opt_min/./Product_557_0_opt.xyz
  C -0.08159400 -1.14889700  0.06284800
  C  1.06075411 -0.67985018  0.90890848
  C  1.19341191 -0.96072885  2.19195442
  H  2.03354921 -0.60568563  2.76349572
  H  0.46709217 -1.56052475  2.71516259
  H  1.80109351 -0.07178443  0.40787248
  C -0.87000368 -0.00507664 -0.50756911
  O -0.47600784  1.20273328 -0.30339034
  C -0.99469053  2.29739172 -0.75819959
  H -1.86470130  2.28894016 -1.39532144
  H -0.53378728  3.21333239 -0.45062506
  H -1.70513871 -0.20872976 -1.16716548
  H -0.74337984 -1.79147635  0.65246506
  H  0.31500415 -1.76127797 -0.75920062
