16
opt_min/./Product_3597_0_opt.xyz
  C  2.32751400  0.49233100 -0.33847300
  C  1.39837254 -0.44124948 -1.10267310
  C  0.16084324 -0.81919997 -0.27515683
  C -0.66303671  0.36117483  0.03747855
  C -2.09832969  0.08436668  0.16215310
  O -2.88304326  1.24917167  0.10867288
  H -3.78149884  1.04681399  0.38216613
  H -2.12605268 -0.35341766  1.18474882
  H -2.50249060 -0.69159440 -0.52375342
  H  0.50982895 -1.19322136  0.69244405
  H -0.38988781 -1.64482372 -0.75535726
  H  1.93291898 -1.35282077 -1.38125590
  H  1.07026092  0.04630203 -2.02068144
  H  3.20972453  0.71936390 -0.93032085
  H  1.80671088  1.41385680 -0.10486758
  H  2.64955318  0.02909006  0.59079164
