9
opt_min/./Product_1922_0_opt.xyz
  C -0.99673802  0.19973991 -0.01168165
  C  0.33517057 -0.53845110 -0.07774187
  N  1.40624217  0.35697937  0.05800259
  C  2.27268018  1.11725567  0.20392531
  H  0.43029035 -1.04322263 -1.04417399
  H  0.41164021 -1.27660599  0.72899729
  H -1.05677413  0.94014608 -0.80939914
  H -1.81549816 -0.50908733 -0.13364437
  H -1.11449540  0.70625995  0.94544222
