16
opt_min/./Product_8092_0_opt.xyz
  C  2.80758900 -0.18864800 -0.71496600
  N  1.81627981  0.75488758 -1.20228383
  C  0.56248924  0.91969459 -0.83273601
  O  0.22345976  0.03304505  0.15109000
  C -1.07798018  0.14936595  0.63630574
  H -1.10125351  0.58678845  1.63159760
  C -2.22757522  0.41419564 -0.28456163
  H -3.02787137  1.04646690  0.06907511
  H -1.99035662  0.54090530 -1.33018420
  C -2.05399666 -0.94591123  0.32204083
  H -2.73256067 -1.25692008  1.10428956
  H -1.71490109 -1.75032959 -0.31342788
  H  2.14047051  1.38018731 -1.92896340
  H  2.34333722 -0.80156094  0.05509256
  H  3.15263822 -0.82807437 -1.53016625
  H  3.66147782  0.34251203 -0.28965031
