11
opt_min/./Product_6232_0_opt.xyz
  O -1.67802400  1.18391500 -0.45955100
  C -0.61868035  0.40837165 -0.22341299
  C -0.62740197 -1.06936188 -0.07060271
  H -0.96681113 -1.55766956 -0.98610385
  H -1.30607403 -1.38876465  0.72029041
  C  0.81869569 -1.46714439  0.20646688
  C  1.47252679 -0.28092526  0.17785846
  H  2.51620542 -0.06768701  0.31852208
  N  0.61330793  0.81951694 -0.07806403
  H  0.91311291  1.78790625 -0.13947340
  H -1.44709648  2.12187093 -0.50736640
