9
opt_min/./Product_54_0_opt.xyz
  C -1.49644154 -0.00237578 -0.55229164
  N  5.11552287 -2.65790798 -2.41035135
  C  3.22520965 -4.80949019  15.48210473
  C  2.80949173 -8.82067594  11.92732303
  H  1.76035044  9.50053487 -1.19248686
  H  11.09736231 -0.04105871  8.84828125
  H  8.72176739  5.51477560 -14.42024758
  H -14.48704601  3.84127690 -23.03150706
  H -8.58596352  7.15574153 -0.13490781
