11
opt_min/./Product_1315_0_opt.xyz
  C -1.76161940  0.44612871 -0.44345969
  C -0.41503480  0.14266213  0.03304097
  C  0.77936295 -0.36390244 -0.16002810
  C  1.71728376 -1.01877834 -0.91549012
  N  2.52892157 -1.56190630 -1.52344171
  C  0.52597882  0.29383995  1.18209332
  H  0.42202564 -0.33109676  2.06313790
  H  0.98223124  1.25632813  1.39215259
  H -1.77724878  1.45399632 -0.86282864
  H -2.47016575  0.41359212  0.38357571
  H -2.06764777 -0.25302778 -1.21971540
