16
opt_min/./Product_2896_0_opt.xyz
  C  2.56102900  0.34157100  0.30829600
  C  1.08170576  0.14768050  0.23460659
  C  0.44461622 -0.35140570 -0.81095127
  C -1.03591381 -0.55271111 -0.92468764
  C -1.77004622 -0.44559669  0.37264818
  C -2.66770413  0.48329283  0.64869709
  H -3.17895403  0.51344261  1.59483242
  H -2.92277749  1.24181754 -0.07058512
  H -1.52998185 -1.19739139  1.11392372
  H -1.21223179 -1.54603165 -1.34957554
  H -1.43183859  0.17840077 -1.63608406
  H  1.01506837 -0.63431487 -1.68821521
  H  0.52708905  0.44103182  1.11680831
  H  3.03607202  0.10249254 -0.63709198
  H  2.79600076  1.36919185  0.57280426
  H  2.98358510 -0.29454743  1.08240898
