9
opt_min/./Product_10711_1_opt.xyz
  C -0.09095800  0.63131300  0.16381400
  H  0.06465182  1.65520109  0.40949702
  C  0.65985954 -0.42617774 -0.16762843
  O  1.94400071 -0.74410935 -0.35702932
  H  2.49109518  0.03527401 -0.20652531
  O -0.34408780 -1.34455942 -0.31356448
  C -1.27772398 -0.29120635  0.03465365
  H -1.97163509 -0.09898927 -0.78126989
  H -1.81098995 -0.53477608  0.95220756
