18
## STRUCTURE-ID: 64568ba2b73ada7b394f7348 ; CHARGE = -1; SPIN = 1
I -3.2644417290715846 0.8664197338675996 -1.7088042147014195
C -0.38803196724427735 1.7256343929230424 1.9229499074753231
H -1.4138043375418958 1.5645388934526048 1.5997353996421004
H -0.15617948990358382 1.1280511697755422 2.7986772504288515
H -0.26947207498711045 2.779444366741234 2.1699209709044576
O 1.7438590981873618 0.9806878326589672 1.2541176646436685
C 0.327404263911895 -2.8829448816274383 0.786309930553397
H 0.816358974439365 -2.334161949522922 1.5826803511843992
H 1.0091817008566748 -3.051610515122081 -0.041171918785773844
H -0.08743829376394294 -3.8154073770824213 1.1486377430095804
H 2.375745625732586 0.7899910444522269 0.5373558314365166
Rh -0.779146605483862 -0.08633505193562653 -2.0006242930597096
I -1.3206524075734627 -1.668529336754771 0.04876362067870893
I 1.539689861705078 -1.2655643793317617 -2.5407293644780267
O -0.4384785714894486 1.478457780688714 -4.492889811874062
C -0.57354106186306 0.8815105579289876 -3.502007128459842
O 0.31687613736807846 1.5114472438962445 -0.37574871237745483
C 0.5620708767212057 1.398370474991836 0.8128267737793178
