19
## STRUCTURE-ID: 64567c4199c7c8702b1a5629 ; CHARGE = 0; SPIN = 1
H -4.576288297499069 -3.4812740397374062 0.8189569546670536
I -3.680500334557375 -4.354672152192765 1.780688076214512
C -1.6574235182481591 -2.3968894977791035 1.475808583306666
H -1.0976383283215017 -3.008080566127241 2.1690552827960317
H -1.6993539181428206 -2.698618471686758 0.4393855553046399
H -2.419877328854331 -1.737003790282826 1.8634060559319103
O 1.916271176040425 3.3527672845892322 0.1848322636224936
C 0.09136907619653102 -0.5634362445921187 1.1992907860712563
H -0.7106201007357165 -1.409783087079506 1.2823168628870758
H 0.15127370004517965 -0.06298084249261543 2.162196517420621
H 1.0292647002363344 -1.0244764023069601 0.8938122365325538
H 2.575816086523745 3.0425149861167626 0.8135594682485567
Rh 1.8316336428999402 2.281084417997449 -1.555373363037424
I -0.5780496776134382 0.8291172331273379 -0.317046574556405
I 3.403861623547925 0.4264095016920659 -0.5638696733584683
O 1.9616400345214282 0.9851681655247922 -4.241076379788764
C 1.8681599780302725 1.437982667119217 -3.1800754773814157
O 0.5704960987532632 4.6452582133286 -2.8885548617508485
C 1.019965387177378 3.73691262478185 -2.3373123131300275
