12
## STRUCTURE-ID: 6456650e59803e70742726be ; CHARGE = 0; SPIN = 1
O -1.8821527137216887 -0.25268586054898967 1.0413416396253745
C -0.24121997340063903 0.053047842688539196 -2.05486800807175
H 0.24160830699914704 1.0147129492854325 -2.1726665170622703
H -0.8840183949367801 -0.12917622044577712 -2.906010192674602
H -0.8386179400768015 0.05221295207060015 -1.151776865403432
H -2.4813369290157237 -0.8503053210869752 1.4948132680099573
O 0.7772058074922062 -0.12841867763715314 2.239731184910105
C 1.6673053417752282 0.27340364621845437 1.541900541672513
H 2.686355202836547 0.4188104374465642 1.9240815104774909
H 1.5127283811882737 0.5173374917171409 0.4827104492117697
H 0.5067790997898629 -0.7273661633586801 -1.9988705041136736
H -1.0646361889296743 -0.24157307634917285 1.5596134934185697
