12
## STRUCTURE-ID: 645669fe75d91e7475351d78 ; CHARGE = 0; SPIN = 1
O -1.2340513267038067 -0.14170207056253634 -0.9002338021439328
C -1.834325338250315 -0.01314084609372581 0.373661309487375
H -1.9382098469969906 1.0373493113568923 0.6600113784057096
H -1.1755394608425267 -0.51164865206271 1.0827115367994615
H -2.8136681549462605 -0.49713615059641664 0.4012013247977392
H -1.812023773291137 0.25687149093766776 -1.5625472576658155
O 1.5465974003831815 0.5431947527482885 -0.8995412074275594
C 2.0515548556283316 -0.1208611398695775 0.23463199454793865
H 1.935560596492113 -1.2062881041215272 0.14946117878883494
H 1.5579820629972299 0.22110383299692699 1.1506478163395146
H 3.1127243981223542 0.1174806469655144 0.29842296340174307
H 0.6033985874078325 0.31477692830119813 -0.9884272353310218
