12
## STRUCTURE-ID: 645667398c2f04103e4efcb0 ; CHARGE = 0; SPIN = 1
O -0.840210961751647 -0.3720762964511276 -0.12762651060607266
C -1.4658049959340864 0.46453322247156636 0.7598320051021237
H -1.6632043528425113 1.452937054984449 0.3126847276031572
H -0.8838500107463172 0.6132053943884488 1.6845262728622827
H -2.438493260719357 0.03632891806808534 1.044228372166823
H 0.2740244188481464 -1.1533025365189806 0.28637775857163944
O 1.3011688534228525 -1.2928046679439116 0.2075300879658951
C 0.9989082863569272 0.3933727674677388 -0.8121339506178272
H 0.5467284135921091 0.19471071834272494 -1.7672690808762588
H 2.079393096848235 0.3433282193987898 -0.8027509432429834
H 0.6324554946411904 1.2700106628431105 -0.30570634195224317
H 1.4588850182844657 -1.9502434570508806 -0.479692396976546
