18
## STRUCTURE-ID: 64568b91ecb63775210876ea ; CHARGE = -1; SPIN = 1
I -1.7269605367870113 1.7109826058105955 0.22593568191405253
C -1.280256342064074 -2.0130231396188356 1.3990336726416577
H -1.6870882441159716 -1.8586184086826578 0.40029589899868756
H -2.070938521343721 -2.2592868309013747 2.1068454395983585
H -0.565745993676303 -2.8369519959573166 1.3543750612494048
O -0.037218314761690095 -0.855562988879382 -1.0233406407470198
C 0.30915939862495145 1.6567841812953539 -3.0502659376509875
H -0.1954768698535483 0.7320598878320723 -2.7860352890886277
H 0.7608644857743488 1.6002732361419987 -4.032374735130392
H -0.3617157320938258 2.5028472770548857 -2.958066205111119
H 0.4884872443832789 -1.6450126913929821 -1.1867657973728347
Rh 0.5054765748738169 0.28252612492295814 0.5748780060606158
I 1.896017833608799 1.9159885460869635 -1.6102519210832806
I 2.597576308994886 -1.2990022975685989 1.0431280394829883
O 1.4359912466424567 2.1732354948231256 2.695468675712804
C 1.0524182733507044 1.4339794900324305 1.901992408356297
O -0.5645447840614808 -0.4414698177861904 3.046535480772893
C -0.5560460274956033 -0.799748673213043 1.8986121613965166
