12
## STRUCTURE-ID: 64566860fc1e7d5d337ccc21 ; CHARGE = 0; SPIN = 1
O -0.7682117728160709 0.08895805238975438 -1.3806007305443235
C -0.5102019849974404 -0.6541573156786378 -0.171277381594147
H -3.3514927476198517 2.6890654467366986 1.7645410797519325
H -1.4224615374434821 -0.9166326016793397 0.367763838041569
H 0.02369017201433316 -1.5711885323259693 -0.4462539247347552
H -0.20362966197181898 0.9353656464970831 -1.2376491419019213
O 0.6872330820418329 1.308572512754681 0.2223025300198291
C 0.3694175768633675 0.23705053071933052 0.6750652806406799
H 3.346988884556919 -1.3803854372834337 -0.19223528276315122
H 0.6797238014150428 -0.1289160632377227 1.6545313313356027
H 2.8635150492179275 -0.940278682790963 0.2306486732537612
H -1.7145708612607469 0.33254644389849713 -1.4868362715050767
