12
## STRUCTURE-ID: 64566b51490a0a0a43230d73 ; CHARGE = 0; SPIN = 1
O -4.378262022530245 0.5103078613370962 -0.25118447677813305
C 0.744101565858529 -0.16639969405323338 -0.7203579685237844
H 0.5946815596827273 0.7217821746650566 -1.3147795489226188
H 0.45245388052042274 -1.0964864535838128 -1.1834109172155307
H -3.7085680557413734 1.197330475243347 -0.1995945217440515
H -3.9143349571995922 -0.3208314575510089 -0.38218067009290213
O 2.7054615201286145 -0.22700852296024857 0.5636095880794633
C 0.6842778305068601 -0.06190688292690998 0.6661302972029778
H 3.585490678881755 -0.2676246767770934 0.9738692220126205
H 0.6555982560056317 0.895945975694296 1.1559911071033888
H 0.5128759179870058 -0.9243538634030006 1.2866473878658795
H 2.0662238258996504 -0.2607549356844631 -0.5947394989873284
