13
## STRUCTURE-ID: 64568b5c38560528c539081a ; CHARGE = -1; SPIN = 1
I -2.553817940753653 -1.3767169330323688 0.2985655435713481
O -0.04377005781503351 -0.891037122723037 -1.781507548759687
C -1.5195743057641111 0.5159490682492477 0.1900644574057526
H -1.9969273253552644 1.148050326793482 0.9543682853640882
H -1.780924024833944 0.8953475791136444 -0.7970690024309651
H 0.27474771425982325 -1.3772842810686687 -2.5724119219623187
Rh 0.5124931615492212 0.6283131208472904 0.5944321739860572
I 2.4617557305834503 1.3683557364626553 2.332939089751136
I 0.5763991757266456 2.8729076837435104 -0.7470879813431457
O 2.1015104499322717 -0.5701737014031049 -1.2357238062840241
C 0.9179726903377738 -0.4217784256412857 -1.0217364455606512
O 0.5489335797220761 -1.8775666080154185 2.201550138456
C 0.5012011524107376 -0.9143664433259744 1.5836170178064248
