21
## STRUCTURE-ID: 64567720cd25e23f2b09293a ; CHARGE = -1; SPIN = 1
H -4.770795553397014 -4.4466482351887375 -0.02433728260474152
I -3.740496820801846 -3.564784693904584 0.7970240442169095
O -1.8708844975417522 -1.9492972875945132 2.7346435497265995
C -1.2146416755929874 -1.0774011859100057 -1.9403037202634965
H -1.88112343501905 -0.25659736977596415 -2.1699843937837557
H -1.7056961863997657 -2.0169528346815473 -2.1521253559236193
H -0.95345359827933 -1.0461107818548605 -0.8880050276713621
H -1.3738627966883616 -2.3976281361386493 3.4241263577176135
O -0.05026049413209532 -0.6036152043912287 1.2709801435163548
C 0.5769076484656877 1.9670753780130472 -0.5377257440952448
H -0.3119055319692763 -0.995974622173819 -2.5326774770989857
H -0.23658515469274538 1.4635668423840298 -0.017826358933339684
H 0.2824066440747245 2.825638837896369 -1.1293277956547811
H -1.2102534187876013 -1.4484334210492942 2.2102815821515605
Rh 2.3774744029209254 2.0439781780913213 0.6080271155298957
I 4.345074138877997 2.1745153976721125 2.3179843529981534
I 1.5431210674881122 0.057649446321669066 2.0328275647574423
O 2.0987972441822076 0.3367674959233019 -1.6885968677494376
C 1.5548134010469687 1.141424558402522 -1.022558583937875
O 3.4958770389918183 4.328859034614911 -0.9481415141762688
C 3.045487577253438 3.4639686033438863 -0.34428458872151824
