18
## STRUCTURE-ID: 645689554d2d9228dd0b534d ; CHARGE = -1; SPIN = 1
I 0.12091722807930626 3.406007084840784 1.4715362839101145
C -2.5592294908181894 0.9679042788502913 -0.40067425997749184
H -3.3353559408836904 1.387521750606233 -1.039775297082033
H -2.743894830367157 1.2358612739495654 0.6399030282950383
H -2.555582101199502 -0.11918268713745227 -0.4709468591300391
O 0.6413455206272546 -1.4500927011657416 -1.214946929109099
C 1.4382923524938862 -2.0860746866981468 1.9299779849742735
H 1.229997591135685 -2.661923245405683 2.824939230018633
H 2.3830375320018016 -1.557355985187441 2.0054918508503543
H 1.3969458488018343 -2.693702514974815 1.0338591031498257
H 0.7736388758431407 -2.006315240562715 -2.0099927240518567
Rh 0.5413513986688625 1.1874350214060314 -0.08545197679739985
I 3.263431522890021 1.0844857026894958 0.18564790546989077
I -0.12658444074989483 -0.590296754866806 1.7610408600065754
O 0.9964769722804255 0.28725880476277815 -2.5880263169563595
C 0.7747290436003822 -0.14925331628055838 -1.4726918587553912
O -1.0108513642068269 2.2539259587667106 -1.747802662269246
C -1.2286657181974197 1.5037972564076911 -0.8220873625458438
