18
## STRUCTURE-ID: 645673a04f93d275365fdacb ; CHARGE = -1; SPIN = 1
I -0.4203877141759988 -1.8427334121617003 -3.0406361090307423
C -2.226278170968539 -0.856380941334248 -2.4681387656800444
H -2.401755094586068 -0.06833293265095385 -3.192247470097713
H -2.0309843078745913 -0.4506448311539778 -1.4797862168320068
H -3.010657236511911 -1.6070239547434626 -2.482095719033905
O 2.539768247908924 2.8668793430968655 0.38767988810698
C -0.505742053356464 -3.3885352599229384 -1.5612049608900604
H -0.3319295017992856 -2.8830009766824753 -0.6146280323250212
H -1.4910910444093306 -3.8389564252024613 -1.6398877390853834
H 0.2859923383708413 -4.093000899450749 -1.7944021201437057
H 2.000000440301227 3.268266734450832 -0.3032505132438339
Rh 1.332188030969616 2.0535950009767223 1.9457114014004302
I 0.5503486751464142 0.050935540074603256 0.3368208600247466
I -0.8626499593200629 3.6551181099825496 1.2041705485456853
O -0.07113366679603343 0.8334220052399889 4.268344751104688
C 0.44371607721500106 1.3098715003254393 3.335708904725559
O 3.4957367129088066 2.574569267499825 3.9716307406816727
C 2.704858226977299 2.4159521316561814 3.1262105517728402
