15
## STRUCTURE-ID: 64568887e9eacc48671dbea0 ; CHARGE = -1; SPIN = 1
Rh -1.527172462815482 0.27507341462953067 0.4855852128380552
I -2.547199917100658 2.5068157315514066 -0.6465099488649234
I -0.6458305486795496 1.0112585310258526 2.903205133920191
O -3.8572312433210136 -1.5836050365611247 1.1133862838653925
C -2.9352065273920585 -0.9026609935321935 0.8304318485783909
O -1.4144038947492623 -2.506978214444806 -0.657725146930974
C -1.6580848691187804 -1.4739127039988253 -0.14988906510725497
H -0.07875246532460665 1.2226075025689889 -2.206254774963442
I 0.6762533177262543 1.085703019758117 -0.6982073661052789
O 1.6659310948510906 -0.02374021925082794 -2.1090335862324348
C 2.2662315350477042 0.2724763444356369 0.5860201595319383
H 2.168304329615372 -0.805719840134456 0.6528042184269911
H 2.1236027027743725 0.7209864878976903 1.5621335730498336
H 3.2339254302269778 0.5554233329664157 0.19126072352270923
H 2.529633518259665 -0.3537273569114303 -1.8572072655292122
