12
## STRUCTURE-ID: 64566b59a1127c00e87cab8e ; CHARGE = 0; SPIN = 1
O -0.9585353319526061 -0.2047821356943555 -1.153554634233866
C -1.884317451737316 -0.21873180606738926 -0.08506608210192987
H -2.004593642648936 -1.2259405214385042 0.3234386293157545
H -2.8580480740963834 0.16508134053892304 -0.3992092897104072
H -1.481656523321382 0.43290539381658916 0.6881973622036658
H -1.3003259139650891 -0.7521953908950357 -1.8710073095460726
O 1.7843976418362069 -0.45578664274051967 -0.36046648377615786
C 1.9176465710195107 0.4816411565837916 0.6814081409551295
H 1.2586721052809975 0.24098991784674728 1.5227935505454708
H 1.7002212572629538 1.4975286798550766 0.3368655169850497
H 2.9518703869589134 0.4366129905147758 1.0207135835012975
H 0.8746689753631355 -0.3973229823201017 -0.7041129841379377
