19
## STRUCTURE-ID: 64568dc10b1c0c697b07101d ; CHARGE = -1; SPIN = 1
O -0.9991858431041784 2.3753301008444434 1.1831433317013351
C -1.0970545734300945 0.20148474775063893 -1.9472988063726604
H -1.3186164419821174 1.0770790869764588 -2.5575149309781082
H -0.9673331442465882 -0.6724893496264386 -2.585007697589367
H -1.9665889495450215 0.02240718575364481 -1.3039289588722573
H -1.266173060737295 3.3067418189182134 1.32165270764855
O 0.9085826330173583 -1.7616190779273462 -0.595078499951971
C 0.22949060554562284 -2.3132358759583855 2.4547492637677224
H 0.9471468123208862 -1.860466291881609 3.1298011006071715
H 0.7076844302696847 -2.6415830548833905 1.5366977581413594
H -0.33631870644657397 -3.105960309330347 2.926567498528782
H 1.8110767778891732 -1.86987834613491 -0.9035055748330855
Rh 0.3129241793005197 0.34506793276011866 -0.26319774957396064
I 2.383263824052137 0.7974099177503906 1.3552380407592746
I -1.1531361613541093 -0.7672634610956075 1.8444321782460527
O 1.3458913698475152 0.8188032843250761 -2.996303678035346
C 0.8440612524452643 0.6739121496462533 -1.960901065691941
O -0.0927946280342713 3.165986609332852 -0.6866325186203156
C -0.29292037580881836 2.2082729327800674 0.047087601117504846
