12
## STRUCTURE-ID: 6456689bae5e9722aa610ab8 ; CHARGE = 0; SPIN = 1
O -1.3703203664194583 0.3351489543789844 -0.11298273817393824
C -1.5547901158934012 -0.4534366413949561 1.0445149423702533
H -1.4807415718492314 -1.5201235585043593 0.8139411023592118
H -2.5198222483753705 -0.24944449230930654 1.5157224406342311
H -0.7603535038645955 -0.18367987675925793 1.738250464030102
H -2.069818129451091 0.13528885479226035 -0.746599008485925
O 1.3099846469626522 1.3134084588001205 -0.39614175964068976
C 1.8945643830045176 0.1000170204931509 -0.8086397221098217
H 1.7484908730865434 -0.6886865849250258 -0.06352720095845932
H 2.9619815526714794 0.28357564379622 -0.9244297972834905
H 1.485690189096764 -0.23572248154998773 -1.7668499269569702
H 0.355134291031205 1.163654703182155 -0.29325879578450714
