21
## STRUCTURE-ID: 6456783d43e7263500763453 ; CHARGE = -1; SPIN = 1
H -3.135964406912516 0.09651005148963683 1.3288716328236612
I -1.4462314424637075 0.11817134533827138 1.6557838443871111
O 0.6246803546087129 -0.2170442704154676 1.5703993770752356
C -1.276200891437528 -0.5148892383837854 -0.3488972655431708
H -0.2937360696073266 -0.14737052914934118 -0.7164190107498871
H -2.0988942993984043 -0.1584897061755133 -0.9565193536238488
H -1.0178060224398948 -1.692594824846669 -0.3662827522097234
H 1.0095995840242324 -0.3047381562054847 2.440688126048235
O 0.22389092650169845 2.4253456884995837 0.51598793157215
C -1.9567354285972633 -2.4610377753411834 -0.3980270649685139
H -2.258021647173424 -2.586490952024387 -1.4325189845209862
H -1.3612101092236966 -3.3083368052488615 -0.04896477604848365
H -2.781385424677368 -2.250111285808335 0.27624969426395485
H -0.00637277239399825 3.332925440302191 0.797933414546469
Rh 2.0906310732051656 0.5149647276413833 -0.32731230822421337
I 2.0944156393016518 -2.0629435612406044 -1.115760852091638
I 4.226850467774974 0.33757841853029186 1.4139398646096522
O 2.239088131147845 3.353283685996419 0.34067457132175044
C 1.577420076082377 2.320069364225681 0.23362803290412745
O 1.754699483913278 1.9325472473684493 -2.920047667416167
C 1.7912827777651807 1.2726511354477161 -1.9434064541557392
