12
## STRUCTURE-ID: 645665d0c08e2264336aac71 ; CHARGE = 0; SPIN = 1
O 1.8572309437868433 0.0021318218554617486 2.8772357412643674
C -1.9246502179637979 -0.22361608415873438 -0.6928586533445001
H -2.52509873973944 0.6554633318001089 -0.8870014569246059
H -2.1447789830016832 -0.5963829774677998 0.29877557342603506
H -2.15718563352634 -0.9868509411669539 -1.4238624524655792
H -0.8757411223495287 0.03338638829505523 -0.7592323590076148
O 1.544454732115543 0.6132336692585224 -1.2421227411687346
C 1.0769136759789488 -0.2665487883013281 2.005617393298311
H 1.7703681019718012 1.5204044421775478 -1.4649943879837646
H 0.15165922743592583 -0.8279209339565445 2.2069908013803428
H 1.2321853067691206 0.02712704348272394 0.9585685867906092
H 1.9946427085226148 0.049573028181940475 -1.877116045264875
