18
## STRUCTURE-ID: 64568b0beece4b0f0819eb5a ; CHARGE = -1; SPIN = 1
I -1.1654919428634312 -2.138136083049118 0.20608446430522673
C -1.9408511420726033 0.9454566226975532 -1.313317539890804
H -2.1180562964545517 1.0207348721618197 -0.24400095151262988
H -2.5684578635607025 0.14318338440008513 -1.706028746780647
H -2.214837412922275 1.8738637164151204 -1.8133424815909107
O 1.1807826909557282 -1.5822739300753534 -2.1041676731733383
C -0.12384384938856197 -0.2065305845440588 3.4274499929486693
H -0.3327096464574012 0.40971644000713037 4.295042988288273
H 0.7968939864914729 -0.7707486024706065 3.543356328064995
H -0.955869834889709 -0.8587104100655988 3.1789493989256825
H 1.0505678066992366 -1.1199524725763603 -2.9368902562179064
Rh 0.7318844362934589 -0.3957448786198131 -0.45207704492835576
I 2.7666090183557395 -1.660777298066794 1.0598169186298858
I 0.16257937994174762 1.1505045662371818 1.7486158416691655
O -0.07202770456580561 0.9343143671071097 -2.768408649415329
C -0.5152732917476456 0.6172223164618725 -1.6846554259757613
O 3.132861521775465 1.0498084695980594 -1.4445641917116567
C 2.1852401444098835 0.5880695043819609 -0.9918629716346463
