12
## STRUCTURE-ID: 645666f31c2a5908682648bb ; CHARGE = 0; SPIN = 1
O -0.9331211548820173 0.14762118485522507 -1.0330616146359721
C -0.34540976586920014 -0.31461749825748486 0.14312341809840617
H -4.3045266917753064 0.6192428011274433 2.655226495648661
H -0.2979172183480468 0.47178570027262384 0.9198506101900633
H -0.9480802162402588 -1.1247586367900952 0.6075290639586125
H -1.837738522649998 0.4417592984506683 -0.873840964599118
O 1.8183260844761842 -1.261803775691563 0.6954508496097356
C 0.9714596056884408 -0.8701522653764321 -0.13112285963109507
H 1.1451859080486733 1.8916250021229755 -1.813440827081101
H 1.2515579843400397 -0.9668010801302361 -1.185006196932912
H 1.8590667277569735 2.1544622290838595 -1.6456672804042858
H 1.6211972594545205 -1.188362959666988 1.660959305779008
