18
## STRUCTURE-ID: 64568b03c466761d6e4dd52a ; CHARGE = -1; SPIN = 1
I -0.848330085493876 -3.2921652542351767 -0.8402176333064748
C -2.3212151535028793 0.41115066852434573 1.113107114725842
H -3.015992131669562 -0.371891016367188 0.7979928924729954
H -2.653840323748613 1.3502950307657153 0.6654937027386335
H -2.384103814653732 0.5058170112663866 2.209743790351129
O -1.7233644534698616 0.10051595590963366 -1.6945448707433741
C 3.410325592230697 0.7024982313904252 -0.40570927819236785
H 3.389329034522728 1.6648860889878925 0.09400858948971641
H 2.8355672500049947 0.7258492131992397 -1.325214896243634
H 4.421502690807012 0.3509513299097223 -0.5684912514385536
H -1.7131538536755295 0.1297925112584205 -2.6740216894987
Rh -0.3275682714848159 0.012590482470775897 0.7523216673517679
I 0.3172801618254161 2.5644535460254314 0.9906405667794912
I 2.4255057788876004 -0.7322431685517682 0.8887355929561804
O 0.5078566311118033 0.041127166443488884 -1.8417714039938005
C -0.5094345989374874 0.04507718136712376 -1.1786521757227588
O -1.0060188588816672 -2.387420952236036 2.018552691697902
C -0.804345593872234 -1.8212840261284324 0.9980265905759858
