18
## STRUCTURE-ID: 64566fb87a45060bee56ede0 ; CHARGE = -1; SPIN = 1
I -1.9434162038413505 -1.0184518925310697 -1.1840269949718831
C -2.1657076827235247 -0.8478496600289531 1.3376693659527028
H -1.8282569149997463 -1.5997001500640753 2.0484248330095225
H -3.228647656201331 -0.9666192387563649 1.1869286533366354
H -1.937071713419891 0.1736903176136091 1.6243179748418108
O 0.7446162351034616 3.6318415766172754 -0.3899801199604378
C 0.6462213306646065 1.4740560346790779 -1.976202671717313
H -0.3133054750640409 1.8608471656539909 -2.2937985676101307
H 0.8168223580615265 0.47761479128249845 -2.3695744218040153
H 1.4303008388244145 2.1581177630805626 -2.2704940056084477
H 0.7178954539105403 4.174092672747102 0.39742624329437043
Rh 0.22828552485472173 -1.236989748053494 0.4914889482452706
I 0.9019193001446006 -0.32619961024817246 3.0887985236521818
I 0.6662136104722943 1.3968531379392732 0.14040419054614517
O 2.8963104499158514 -0.934772723734112 -0.9355002278562564
C 1.8582418922738164 -1.0921869263588841 -0.450217742261385
O 0.33205525987676354 -4.230434178616719 0.8176169700169701
C 0.17752339214730778 -3.093909331221579 0.7367190488942885
