18
## STRUCTURE-ID: 64568ae371d05c69284b65f3 ; CHARGE = -1; SPIN = 1
I -1.3225620516913574 0.9561744282530014 2.9949906558007964
C -1.9857051004552027 -1.1158048933025404 0.22624850936114177
H -2.2871260293007154 -0.2898622441196337 -0.434637070351202
H -2.7836603375057574 -1.253231548693729 0.9583416499068719
H -1.9175999242680941 -2.0201805717048096 -0.38171130376776263
O -0.15890862047199952 1.6468072083237513 -0.16443427210721467
C 1.1567226319447335 0.5297012543668238 -2.685990420423504
H 2.179183308192475 0.8006521871968563 -2.9232725977320677
H 0.6514561888273218 1.3303379318222537 -2.14909000130792
H 0.5996400713806936 0.1984280550215238 -3.554188852777833
H -0.6521837181458006 2.3788787772647146 0.2146713709829875
Rh -0.08806963513726102 -0.1538895474283872 0.9054269499381632
I 2.84701828793039 2.0085964929371083 0.3903768135534776
I 1.2238650989469255 -1.1206618821969667 -1.2769252857812563
O 2.1837442304088905 0.2216374024852505 2.632993075337108
C 1.6459734681815728 0.5475135079103791 1.6263993235851752
O -0.7995908862962807 -2.843884136909057 2.0389002197478274
C -0.4921969825405492 -1.821212421226557 1.5819012360352485
