12
## STRUCTURE-ID: 64566895bef101451a56ede0 ; CHARGE = 0; SPIN = 1
O -0.8420861138853198 0.33116049311943097 -0.3435087458668691
C -1.4378024957487248 -0.3724237609730545 0.6946635488437176
H -0.9976127228264637 -0.028720914915149217 1.636921849073513
H -1.321471555658256 -1.4536961389344107 0.57840717058869
H -2.495404627416072 -0.11133169094620174 0.741952758743508
H -2.0813849084122396 0.39295459371730573 -1.7243528621725226
O 0.7413093970013712 0.7057161646028598 0.27441760199914245
C 1.7219078224511568 -0.1145774122780334 -0.3415676055196596
H 1.6373227957242142 -0.10262160511632451 -1.4279276735674173
H 1.5869103522997372 -1.1289575092924597 0.029054130715385002
H 2.7001130297037172 0.26453011993620607 -0.0362156827756929
H 0.7881990267668026 1.617967661079784 -0.0818444900617389
