8
## STRUCTURE-ID: 645663e12b24f11e274dd53b ; CHARGE = 0; SPIN = 1
H -2.6173313906200986 0.014259844825280341 -0.05110461579327153
I -2.660315857061952 -0.0043095472993073276 2.3912461860435448
O -1.8886772266234737 0.01083839946364338 0.5812334941542399
C 1.4335832703331823 -0.004211755678180764 -0.5845379759511016
H 1.9657974335109276 -0.8941987844385619 -0.27569370486680445
H 1.9848594162621875 0.8728588888761637 -0.2723804165304945
H 1.3295896831872729 -0.0018104806878856325 -1.661799441342976
H 0.45249467101195445 0.00657343493884546 -0.12696352571313468
