36
## STRUCTURE-ID: 6456ca049cc60655855a8517 ; CHARGE = -3; SPIN = 1
Rh -2.816388299407039 0.06069334737536719 -0.14756846478675573
I -3.3561002246873755 -0.8021586053525699 -2.827498188178262
I -5.163106464364868 -0.6301588939306095 0.8995922943910305
O -1.6733543879809183 -0.3244890655987316 2.4205143012556634
C -2.244277204024726 0.47798121326606163 1.6637379483484707
O -2.028735041883324 -2.7243360522963935 0.6268002005249729
C -1.8982993162200559 -1.616203990844356 0.14478725842544274
H -1.4054710106521777 0.2901024717641596 -0.7244916283099679
I -3.694707146791251 2.570856604002875 -0.6797299740295965
O -2.527536205714692 1.704725002366466 2.0548507934416924
C -2.5174565023880473 4.43351189947188 -0.9045508803114425
H -3.264025001054965 5.222975269027033 -0.9166047640107167
H -1.9685794260396996 4.35304830766163 -1.835627749291831
H -1.822709045271825 4.494025052495408 -0.06757410453466306
H -2.2713366369057746 1.9516623225699754 2.969407588389763
O 0.3372522893712565 -3.695293241406038 -0.24999036102426203
C 1.3043569231655874 -1.9441431549051316 2.0606436596899376
H 0.32556317365552623 -2.418969071477312 2.1644264801496034
H 1.7587614992885092 -1.8307074862855712 3.041318983380956
H 1.9477415507328348 -2.554376149652058 1.4318225371079192
H -0.5833448852842713 -3.5518728550156147 0.062294257337017656
Rh 2.8140363406718008 1.2225818868778255 -0.13290040711376525
I 0.6782671041301345 2.7688071262270673 0.4535666476123651
I 1.0359931134935378 -0.09859641557883972 1.1855343120707043
O 3.99264656435225 -1.2119307415746339 0.7161610130032096
C 4.170511385608727 -0.20185665710812115 0.009837499729531044
O 4.836772513295053 3.1627479830651635 -1.1644091057828307
C 4.069154637563629 2.4193655317001594 -0.7576317677577709
O 5.278700043463303 -0.15132169364009407 -0.7545375895621027
H 5.826364060030274 -0.9598900704449906 -0.6791591643120514
Rh -0.38383229130749547 -0.8886135393015178 -0.8911588011128748
I 1.1511201918265566 0.6170102217860107 -2.641565744529866
O 2.0114192224811513 -2.5717570697546615 -1.1796822066434958
C 0.8383355993443721 -2.488569789787493 -0.8053908834552174
O -1.4156431621042003 -3.1072744043793628 -2.447463815483581
C -1.3420939603918485 -1.9775752913230265 -2.0977601746271866
