18
## STRUCTURE-ID: 64567233726ee031eb3ae5e0 ; CHARGE = -1; SPIN = 1
I -4.686422068942698 -2.34393070317098 0.7268393466753165
C -3.08444285206043 -0.941707257834087 0.6315370578201062
H -3.086205977311709 -0.3574606913598703 1.5421725365658137
H -3.235841198644791 -0.3151480492372886 -0.23719716680385675
H -2.1592440698769813 -1.496953885832629 0.5392507126617723
O 2.7579433706189382 0.9619771276210662 0.004743594034066974
C 0.2599298349549463 2.50071418573739 -1.2915656552606651
H 1.249924566795162 2.416214608095136 -0.8558424813038817
H -0.45337048743373676 2.8698840805106802 -0.5645906456265279
H 0.2703167209921529 3.0999802188696295 -2.192080166048351
H 3.432812915493349 1.116421505543739 0.6700160804800442
Rh 1.4543459173917561 -0.6445070816874694 0.43380191778021465
I -0.3356123623867851 0.5038476612830364 -1.8349744418763207
I 0.11000006775010791 0.7261096988831226 2.2244696701926867
O 0.06836966889800253 -3.22429026743596 0.9965459605053572
C 0.5772887205261555 -2.208800031983647 0.7641738138497084
O 3.934310425224491 -1.413625558599788 -1.0470824337425522
C 2.9258968080120584 -1.2487255594020656 -0.5102176999029339
