18
## STRUCTURE-ID: 64568b02a6249d3148399e34 ; CHARGE = -1; SPIN = 1
I -1.5815353549426607 2.0272599424195783 2.5888245183726637
C -1.7945976092783549 -0.9970902320799596 0.5455922041451703
H -2.390691975843033 -0.20900759708555597 0.0799010686802192
H -2.208001725969625 -1.1958199168707304 1.5394137037601396
H -1.8956738446727615 -1.9115805635175325 -0.04606877215040075
O -0.46025312704319177 1.409514425834691 -0.21452279703957844
C 1.1064290101453298 0.7997005047547108 -3.0233749511101844
H 2.139760870128106 0.9887956991038477 -2.7515447921088256
H 0.44239699604447014 1.5343997000799463 -2.580586157914121
H 0.973831105915147 0.7295494149382218 -4.0960722133841605
H 0.14015535315486904 2.158931349445978 -0.1310634907429229
Rh 0.19817238013898034 -0.33237710262056663 0.5867327003182287
I 2.7831151879231837 0.6003392566837715 0.6456072350860962
I 0.5445367215138436 -1.1075579771560133 -2.1628871420485125
O 0.2726339937002473 -0.06262822721777751 3.408798744004581
C -0.16527427504229728 0.3311711382473814 2.3743479913586794
O 1.1393237595575596 -2.8462108792310756 1.897764696683225
C 0.7556725345702076 -1.9173889357288867 1.3391374540896503
