17
## STRUCTURE-ID: 64568a2b53fa543ad47c7c34 ; CHARGE = 0; SPIN = 1
C -2.4552645945823426 -1.5994610664370137 -0.6447312858573824
H -2.8026009220510577 -0.6431841834446436 -1.0296702407615528
H -2.2561065260782254 -2.257476391897458 -1.4870464216596844
H -3.250185687636826 -2.0357861161728037 -0.04471563666977581
O 1.9394226065004692 2.6634829945368557 1.6791108240366919
C -1.2060934736505913 -1.4320858814038488 0.2064095082542192
H -0.37919470732855626 -1.00150421090704 -0.4550068268341634
H -1.4286563469746862 -0.7901263617193252 1.0842155399332007
H -0.8556039132311334 -2.3989230355883318 0.5704502305061095
H 2.696201045352668 3.2907986308110386 1.5658159311397375
Rh 0.5533354971997034 0.41287285062265827 0.3130679122904127
I -1.0596997127282026 2.171616887312045 -0.7456249077524981
I 2.1346180198583014 -1.1871788355564143 1.6425912484571632
O 2.5315784012362403 1.8370307134719395 -0.34048607055655833
C 1.7308655528614492 1.8375290719311326 0.7592337538115613
O 2.1913363001448167 0.33606108565876586 -2.062429816090858
C 1.9160484611079718 0.7963338487824255 -1.011183742246612
