13
## STRUCTURE-ID: 64568c46acb4e211895a8514 ; CHARGE = -1; SPIN = 1
I -0.32383412930581257 2.9626849190274727 0.6801949219996843
C -1.4846931802792327 -0.16619717530982547 -0.11902614669295825
H -2.072705512164574 -0.026422542839278522 0.7901970063959345
H -1.4720318473162208 -1.2298052113302762 -0.3691817391421895
H -1.9805693348371392 0.3777867530094058 -0.925376842540613
O 0.04077778179018214 -3.090805171524918 -0.7202885679560964
Rh 0.5323372265713553 0.48707942709646546 0.1432762490255922
I 3.2218781450650096 0.9407262371725915 0.3903418554238429
I 1.4744773831821336 -1.964937810405494 -0.38353564665716167
O 0.6670899535818088 1.0959436023591858 -2.796460842938281
C 0.611838069577094 0.8830787364129484 -1.6806654209610457
O 0.36387709040058724 -0.29166845498668525 3.0410259176586565
C 0.42155835373482614 0.022536691318406944 1.9494992563846325
