12
## STRUCTURE-ID: 645669acd1db4114764d91e3 ; CHARGE = 0; SPIN = 1
O -0.27150168962391935 -0.32735442977827683 -1.8228153292206568
C -0.7793172461577288 -0.03612798821146529 0.7737937118275362
H -0.6314677934977858 -0.4910309842121874 1.7508895368726467
H -1.6906421388309147 -0.5847066917771359 0.4524445929986418
H -1.0490649707525586 1.009958952524816 0.897376111085092
H -0.776922623009446 0.3587395967378787 -2.2683046170121033
O 1.4574046002635275 0.6904851024683829 -0.4924111844049347
C 1.0428573330687052 0.037748670423183646 0.5549128343597185
H -0.5510119141600996 -0.2939021380999485 -0.45660381354830487
H 1.294361496086998 0.5260573550541091 1.5051496917823837
H 1.3091892704635995 -1.0331989858983928 0.586013082208241
H 0.6461156761496274 0.14333154076904794 -1.4804446169483116
