21
## STRUCTURE-ID: 64568e6a55a81618c5092914 ; CHARGE = -1; SPIN = 1
H -4.350375973685183 0.5822924784148829 0.674768153276897
I -2.6359575650804143 0.755642275682257 0.673749029416826
O -0.8406736778234369 -1.7128111815473077 1.0436066606340646
C -3.032625814092547 -0.1898311900612261 -1.2484584471550304
H -2.070144127076206 -0.4005028449623347 -1.7060456734426037
H -3.5969530515354924 0.5121579951979537 -1.8498983935684297
H -3.58049162520153 -1.1044788925870894 -1.0647797553096332
H -0.6938366817301657 -2.5149194589872885 1.584867561744232
O -0.45761385118514764 1.5991212352490083 1.8480166950372052
C 3.9644788048852693 -0.2537276290251706 0.11091240036834045
H 3.3508437977381447 -0.9960945707232511 0.6075291007156253
H 4.96758816019449 -0.23306635356818448 0.515417875939626
H 3.9710989187174737 -0.4114587498627325 -0.9609604455652808
H -0.4601847072471911 2.561178699659631 1.8708470971635494
Rh 0.07278740555913073 0.7543183498244933 -0.017827171091094163
I 3.064849740293005 1.6579837254860168 0.49282998825236196
I -0.46559865738109163 3.0296957241428517 -1.348974249595456
O 0.7762991957926966 -1.067415308393385 -2.259578642858806
C 0.44830209033129204 -0.2818354997892678 -1.4571079302616177
O 1.2960060719882047 -1.351026460784834 1.517051496079077
C 0.27220154653871786 -0.9352223433650275 0.9740346502201697
