19
## STRUCTURE-ID: 64568eaad69f9937694dd524 ; CHARGE = 0; SPIN = 1
H -3.685527713908266 -0.014555056715426562 -1.558111317173784
I -3.0849519188990255 0.9049299493113694 -0.4186581174524783
C -1.8368436127435777 -2.0671901354284388 1.4970709283880408
H -1.1958235522447767 -2.872583719910256 1.859919698623975
H -2.3155374719350306 -1.581642775796938 2.3485764752125387
H -2.604932799988723 -2.488064264181604 0.8456535010991588
O 1.6014124689345801 2.278944794034586 -2.7827824644820978
C 2.251496624497254 1.7621961797442007 -0.22414529985698528
H 3.01571000343535 2.2363179053047513 -0.8240380887996787
H 2.6781872544068177 1.084772759239324 0.5061855681851668
H 1.6285344845519492 2.51219229370681 0.24715995931057108
H 1.2229744181817481 2.2497717113584166 -3.6631056432511055
Rh -0.6945238617097018 -0.7188401815452361 0.32724277316310524
I -0.9095518999118475 -2.1430624917829277 -1.888520144424743
I 1.052005796785922 0.6344686062833141 -1.56056179986066
O -0.0888557819765219 0.6854598252247552 2.889946025958467
C -0.36221066283614334 0.15334895555490977 1.917295757733949
O 2.152347134845832 -1.582964780194131 0.4111050910518941
C 1.1760910905142021 -1.033499574207426 0.06976709657472163
