13
## STRUCTURE-ID: 6456888d7e08097b0a2eaaad ; CHARGE = 0; SPIN = 1
I -1.0806098102546786 1.5705929266591687 -2.012290200962499
C -1.2365167107066344 -0.8815023908616555 0.4267664714193062
H -1.4757407289109856 -0.2218443936277202 1.2693936126803889
H -1.027640205695438 -1.876673135897992 0.8172105070901421
H -2.1164603477660937 -0.9133833160394392 -0.21504232125598635
H -0.5501754547874269 3.5006643636259667 0.8527718618226329
Rh 0.49918052778846084 0.24970276195806 -0.31708170666616353
I 0.3130026125757863 2.448368771973005 1.6623475022148184
I 2.8180043257461884 1.2678704475525693 -1.3589973334997998
O -0.32444609564509913 -2.079381695254422 -1.971226499260719
C -0.07217853205900737 -1.2100044585860352 -1.2777532275384542
O 2.527463429512036 -1.192811245217374 1.3627708886464587
C 1.726116990202893 -0.6615986362841387 0.7611304453098827
