8
## STRUCTURE-ID: 645663d2358358201c242a30 ; CHARGE = 0; SPIN = 1
H -2.8859361614140173 0.7855091033682232 -0.12145819590661835
I -2.3709693936209955 -0.4848953765835489 0.6605819629984119
O 0.5137727877298225 0.08291184546447299 -1.1330391322801556
C 0.46618363111071986 0.01870165180339046 0.11695365264763269
H 2.6664095462393322 0.29339483742556866 0.767016840765124
H 0.6120777344129131 -0.8906625282833392 0.682276981396904
H 0.29415222082272896 0.9448725945507093 0.6484279939547942
H 0.7043096347194928 -0.7498321277454741 -1.620760103576097
