12
## STRUCTURE-ID: 64566b3a89a7b577bf5a8523 ; CHARGE = 0; SPIN = 1
O -1.8990789646480981 -0.390730626778364 0.5111810314385118
C -2.174144153560007 0.009928045698770052 1.8191453991431406
H -1.588275706103411 -0.5929603815332026 2.517954968415425
H -2.417535107817911 0.17517290372834085 -0.08661250774076375
H -1.969474581612783 1.072739423933847 2.003221361725306
H -0.7399190017434656 -0.3406932188178283 -0.033959442226050844
O 2.233676339570055 -0.7179808267831788 -1.7928813781115454
C 1.798390670047621 0.17413545166729752 -0.7988340258016244
H 0.7549787178139151 -0.06633209843252891 -0.4653682514328674
H 1.8302929029781991 1.2140153910983644 -1.1363706832998344
H 2.465193618168704 0.051659812719743875 0.053144348399569816
H 1.7058952669071812 -0.5889538765012613 -2.5906208205092747
