12
## STRUCTURE-ID: 645667d305fa1e5e7030457b ; CHARGE = 0; SPIN = 1
O -2.144626334257364 1.7227247532644487 -0.15582117673860876
C 0.012347642774245266 -1.2729788103285158 0.7025913289571156
H -1.015640634232808 -1.613269328214341 0.8025300464230231
H 0.6396454635359448 -2.095975958664233 0.34368798354252705
H 0.3855951202224779 -0.9382849402059622 1.676706565788722
H -2.578975444248688 1.5690279727979273 -0.998346781630631
O 0.0007233590278335663 -0.21002610017527407 -0.22571635735007614
C 1.2846912335869713 0.32865220349503144 -0.4574982298912088
H 1.1619302775512128 1.1319130953980405 -1.1801453599970062
H 1.9587124743431588 -0.43299304934853783 -0.8638912879931002
H 1.7143846232086806 0.7288218241897296 0.4673305417382581
H -1.4187877815116383 1.0823883377915957 -0.11142727284898865
