12
## STRUCTURE-ID: 64566a87a669fd18fd0876fb ; CHARGE = 0; SPIN = 1
O -1.8517045761482853 0.24086499684762644 -0.6096023180730872
C -0.8311968250469878 0.6720054395918934 0.23548637622610588
H 0.7858530853468516 -1.84843498200998 2.7515380556276616
H -1.1121087569372514 0.5728121823319584 1.2936757030717392
H -0.6710907285379276 1.7327033161802081 -0.008161771467151016
H -2.059927526671893 -0.6836311973676577 -0.41562073111146025
O 0.3497723454953336 -0.059738252290515444 0.09689028338217516
C 1.0125388683606562 0.15057231828690923 -1.1392757346179683
H 1.8622484515512796 -0.5271233937790943 -1.148442876119085
H 1.3582983341486292 1.1866758594493256 -1.2155721288751502
H 0.3490201658479539 -0.06978108058076962 -1.9796518166922188
H 0.8082971625916084 -1.366925206659998 2.138736958648539
