12
## STRUCTURE-ID: 645665442e288e33b561a6e0 ; CHARGE = 0; SPIN = 1
O -1.2634671547124705 -1.2516444603021832 -0.5044706218032609
C -1.16472150056839 0.4910543109186613 0.4578932279610317
H -1.0150557436879968 0.3503834423381111 1.5133595026567497
H -2.199217367248491 0.48298670024805 0.14196578519193898
H -0.6177476772600015 1.3102927457833373 0.023433054530625292
H -1.6526110447130804 -1.8498064628970972 0.1438543394538596
O 0.7430528853583976 -0.39873117489064935 0.38619902821537616
C 1.648664972676476 0.34899526309324064 -0.3203890982138345
H 1.7588536756480617 1.3595687564993857 0.1070355619883295
H 1.3761655549723182 0.45122075693659225 -1.3840254465999096
H 2.636877721061551 -0.13240136733661473 -0.2748305629583405
H -0.25079432152661313 -1.1619185103909115 -0.29002477042230984
