12
## STRUCTURE-ID: 645668742da1ba79004ed2b8 ; CHARGE = 0; SPIN = 1
O -1.6326212300634177 0.32296717104305006 -0.8498600182760109
C -2.021427504462323 -0.22342416054186678 0.3879434494010064
H -1.4961596054454704 0.257598352968154 1.2201883575712207
H -1.8378705138168059 -1.3019996762059771 0.4256758728198323
H -3.0903130706776016 -0.0424319285969781 0.4953224015980167
H -0.6825098442533173 0.14386546093175281 -0.973518986798845
O 1.181676104403802 -0.17167341671976777 -0.9565515401397672
C 1.852849106962379 0.15270204935600323 0.2449029362719119
H 1.2827230669343113 -0.29877369598932163 1.0547929614726506
H 1.8940007264086318 1.2348550603246498 0.3969297027975026
H 2.8664733383819128 -0.2552361009230314 0.2556061301053046
H 1.6831794256279062 0.18155088435333902 -1.701431266822829
