18
## STRUCTURE-ID: 64566ff1c7e5d636a02648be ; CHARGE = -1; SPIN = 1
I -1.426625452050443 0.86414953458603 -2.8160801994813074
C -2.585974480102826 -1.3523392057216101 0.16563028817189054
H -1.8467265386304559 -0.5517879378921613 0.3611032189272817
H -2.31399863558062 -2.235871997537196 0.7297471889236243
H -3.5622059991800006 -1.0007383829523737 0.46842675114042304
O 2.6845545036862544 1.5970509425867514 -0.15656392258534865
C 1.6441966597934916 -0.5446382704830321 -2.2822354043729995
H 2.2623631608659966 -0.21493932349360162 -3.127892845727287
H -2.591150582258434 -1.571243755793734 -0.8936080385687798
H 2.3240653662340187 -0.9876373696972486 -1.542474716379665
H 3.058610532825781 2.4500981952483576 -0.37384502750775916
Rh 0.08031584411211964 0.7061672010993906 1.032489566430798
I -1.2146218579142747 2.9396742203607737 1.0157071805457982
I 0.9819263994964059 1.1813271083151835 -1.3598699172566204
O 2.1075978780139737 -1.4800182687331391 1.0047894110566356
C 1.2664058462886938 -0.6959947370998624 1.018943059593516
O -0.5414563535870923 0.4031787338103433 3.938045346163224
C -0.32727629201254355 0.493563313397046 2.8176880609266197
