8
## STRUCTURE-ID: 6456880fe40f7726be2648a4 ; CHARGE = 0; SPIN = 1
H -3.982755170588544 -0.07589550649013091 0.37417105529424693
Rh -0.5363597633563417 -0.10007736481745937 0.30428959044487836
I -2.9497310789748594 0.29264255638339093 -0.7774194259168903
I -1.1341470319087459 -0.8839789615596304 2.6487613298152497
O 3.9196540343349984 0.057519665510999844 -0.2606427678337267
C 2.778638809319919 0.15324660458068745 -0.5316211668286059
O 0.39766721144342754 0.37049152719680645 -1.1475982208443292
C 1.5070329897301666 0.18605147919534623 -0.6099403941308381
