12
## STRUCTURE-ID: 645668636dce7d426a333bee ; CHARGE = 0; SPIN = 1
O -1.0551142462530916 0.5019694747400305 -1.1427809886810043
C -0.9529054599222947 0.8987686238005627 0.24077379445138122
H -1.8490485555223448 0.6634656044367021 0.8173506646031098
H -2.4139879493150493 -3.5874842063168546 1.086762426497969
H -0.7770093853116374 1.9803005235250404 0.27153510924332297
H -0.2243642169612693 -0.09091450084234487 -1.2586166271838615
O 0.8661789865435592 -0.5463368429767157 0.042275108334285286
C 0.24374915552503879 0.1621309857390454 0.7931600854895628
H 0.5003700663468559 0.3161841036944357 1.8414822132377877
H 4.011871283788059 0.15141968541877723 -0.7568141808343248
H 3.518155736748084 -0.4307076900503469 -0.6063557208517754
H -1.867895415665917 -0.01879576116831537 -1.3287718843064473
