12
## STRUCTURE-ID: 6456686b5fe88f495b3dae5b ; CHARGE = 0; SPIN = 1
O -0.13724497097572994 0.21893613035829582 -0.14745906100856943
C -1.331522797904041 -0.2663489131353158 0.4270320589432499
H -1.4909087276625346 0.2980174876440817 1.3427927456666466
H -1.2477387694429756 -1.3330317171209283 0.662242928591864
H -2.1785187850530985 -0.11599966151119141 -0.2509722826915473
H 1.2968761284658075 0.61712953685187 1.0788379738216025
O 1.999254374637889 0.9203610926496224 1.673179904982578
C 0.19294959526563119 -0.43262181264914684 -1.3550696925139816
H 0.3451568770855156 -1.505234788889104 -1.1921986656828696
H 1.1163737030265275 0.017119848190376975 -1.7121766116107233
H -0.5970081987544429 -0.2933623343444293 -2.1008846261627085
H 2.0323315713114454 1.8750351319558654 1.5746753276644583
