12
## STRUCTURE-ID: 6456672cfd8da421070b5350 ; CHARGE = 0; SPIN = 1
O -0.8417007658178324 0.7756048775409508 0.07234525654447364
C -1.512583831310332 -0.030542194403945698 -0.8818192483401353
H -2.3408963660909357 0.5212347594364276 -1.3305684766609536
H -1.8876996214463595 -0.9530246755448858 -0.4343928604237632
H -0.7865484579963369 -0.27731501683252174 -1.6535339984776587
H -1.437788113354114 0.9377416989398164 0.8161023464045674
O 1.5612901606304361 -0.12933940678521438 -0.5131129349193442
C 1.074487743322676 -0.17769975235334617 0.6583525412770432
H 1.1024421081034645 0.6509423544121071 1.346425648973516
H 2.519015026405938 -0.9525753133513245 1.7416297796549496
H 0.49014921321209937 -1.050445025764706 0.9008963710626782
H 2.059832904341307 0.6854176947066392 -0.7223244250953748
