12
## STRUCTURE-ID: 6456673497e3b750644b65fb ; CHARGE = 0; SPIN = 1
O -0.113706339078237 0.2642555053017647 0.05563617889366384
C 0.47052189779858533 0.7297180323223118 -1.141778962808766
H -0.2930668646357853 0.655351225583197 -1.9124398142738883
H 1.335018317799651 0.11675956618919935 -1.4197961831469963
H 0.7904527612699531 1.7721993705377634 -1.0391267525887906
H -1.2555453980468372 -1.2844360281980711 -0.06088965479199823
O -1.92316226035068 -1.985874282287479 -0.08511927078836018
C 0.772128441515276 0.31596339271821405 1.153136481178617
H 1.6542581410355246 -0.308616425037916 0.9744318660290764
H 0.22629005256425375 -0.06120512668431829 2.014690214025162
H 1.0958861593968419 1.344798649817324 1.3438116490233378
H -2.759074909268537 -1.5589138802619977 0.11744424924893544
