12
## STRUCTURE-ID: 6456687c14487521625c71b0 ; CHARGE = 0; SPIN = 1
O -0.23361355605180373 -1.6427641328080937 0.8991015886005426
C -1.036241286097631 0.18025164683940834 0.9092799243186646
H -0.5903715666562243 0.8989754195222315 1.573085998053316
H -1.8201948436026723 -0.39665568853803057 1.3808199371647198
H -1.2936654241929644 0.5501336804136355 -0.06819471138280538
H -0.6468289543473049 -2.087870414163494 0.14964507470070648
O 0.9455007268862051 0.27771297206046114 0.18232608696008915
C 1.007507756191413 0.7167827137391122 -1.1138031401805628
H 0.6077426911912224 -0.015021666806757471 -1.837257627766273
H 2.0557043501396906 0.9113688396685057 -1.3869092709173416
H 0.4586349650422098 1.6644131827572308 -1.2459140542641414
H 0.5458251414978559 -1.0573265526842088 0.5578201947130891
