12
## STRUCTURE-ID: 64566b61823c8540663288b6 ; CHARGE = 0; SPIN = 1
O -1.5124231156267485 0.14606057985931048 -1.001224065288922
C -1.4295958582233004 -0.07192620831310359 0.34096305635485297
H -1.760640844297662 0.7754127841605352 0.9538913557601414
H -0.2661592085380723 -0.14484324016103114 0.5446693585425417
H -1.9117612127078407 -1.0055207842529312 0.6349919439757081
H -0.6091040495278565 0.6688241516735121 -1.1744338373809302
O 0.7618986350194001 1.060592092854787 -0.9290167226779668
C 1.1933202071323366 -0.4198286241112631 0.5050063623994847
H 1.4256519616382568 -1.0907085029127346 -0.30441086608069096
H 0.9424559078424319 -0.9571503585073158 1.4181409861302396
H 1.93722784318639 0.3345138894450123 0.696609128573134
H 1.2291297341026752 0.7045742202652165 -1.6851867003075975
