12
## STRUCTURE-ID: 64568e1edb3a2b41fe333bd4 ; CHARGE = 1; SPIN = 1
C -1.4088330110161833 0.2260817319578625 0.16322813067351105
H -1.6454245719832892 1.1288173837675302 0.7258734086413269
H -1.7810879809809328 -0.6615528919843413 0.6780472439535632
H -1.7860237273766237 0.2851896283010508 -0.8632340051294958
H 0.3844253822138137 -2.892309863068064 -1.9833468442914526
Rh 0.6835665037960953 -0.012226623182819345 -0.10192217388807469
I 0.6152582457075333 -2.723568275390758 -0.42083871734188516
I 1.1025170846941608 0.45951782311162964 -2.631043287447824
O 1.0810829383867195 2.955832333113192 -0.10264410284810724
C 0.9235516621981517 1.8410189169259767 -0.08824592498702044
O 1.0030303466774402 -0.3707005432152596 2.86397171854399
C 0.8279371276831161 -0.23609962033600695 1.760154554121478
