12
## STRUCTURE-ID: 645664e1bb7b522ec94609eb ; CHARGE = 0; SPIN = 1
O -0.6559608961857633 -0.3653140833047781 -1.8230154358743125
C -0.4587676787840586 -0.12954926769948483 -0.5117284874925239
H -0.9889943823136215 0.7310171300305874 -0.09448318574879161
H -0.6853959589857532 -1.0345616842822762 0.06103833105724365
H -5.104252433110345 -0.22413474840425135 0.7075150691579257
H -0.793514067886837 0.44398263645710945 -2.33793902708882
O 1.00435098449005 0.18980989429166778 -0.32937299231677597
C 1.4560329845418156 0.19825981579376326 1.0446893369850851
H 1.3341757979190987 -0.7762633433781471 1.51637685197344
H 0.870097804788434 0.9398931688892955 1.5841663692232049
H 2.502380138967869 0.4976782067314142 1.0384669018064605
H 1.5198477065591236 -0.4708177251248984 -0.855713731682141
