18
## STRUCTURE-ID: 64568b2bb9fef56a774085fd ; CHARGE = -1; SPIN = 1
I -2.2776339290193897 -1.864395291490994 -0.5931009342270975
C -1.4073830589835974 1.4180243583557433 -1.6153533206167563
H -1.8157429937298655 1.8672124744415837 -0.700391825803024
H -2.260567190762824 1.109294877893464 -2.22054272111426
H -0.861272464495669 2.19645488581577 -2.1507433172786348
O 1.073198722613207 -1.5877223940730634 0.2202495846543618
C 0.36641552763633145 -0.9104682194668315 3.2028143945075214
H 1.0269820002655328 -0.4060760330718559 3.8977498099593144
H 0.9273978778214457 -1.4844723592186382 2.4707101254140986
H -0.382043855172737 -1.5128309961778361 3.703790966284335
H 0.9488547143813524 -2.4945471962222205 -0.07798423483627397
Rh -0.19464096415794102 -0.13024775539435868 -0.620094102868717
I 2.9441681088905725 0.7502974525404026 0.8430742282607911
I -0.6669956430129061 0.6095810938924511 2.06641308776594
O -0.290914758611504 -0.16437646783540433 -3.5847077257002136
C -0.29291912601251774 -0.10630915156673892 -2.4293691946155516
O 1.7505881266055832 1.726950934806316 -1.6389039997815715
C 1.4125089057449434 0.9836297867722281 -0.7736108200042697
