15
## STRUCTURE-ID: 6456b66d16fc932ff20876fb ; CHARGE = 0; SPIN = 1
C -1.5382293934130151 1.4795879772346068 -2.5815396325384925
O -1.8415672158544165 2.0276936508005248 -3.5527376638662487
Rh 0.3064422766759776 1.732519572129664 -1.5965568391890257
I 0.3070249095721793 -0.4890312987829987 -0.2268944147519227
I -0.706738156245358 3.1112351975718604 0.44873598122489333
O 1.1903519812512204 4.434780589517653 -2.5447891129790494
C 0.844475493123006 3.3879918174559833 -2.2180896198808724
O 2.1073172421229884 0.23954722390305425 -3.452797893747528
C 1.4046332494244496 0.8260096719801592 -2.7588416702590783
H -0.08737591858465563 -4.859804342133921 2.761142967459572
I 0.031918150815559515 -3.591269435700468 1.7372564444283105
C -0.45370315287808555 -2.2292804780899917 3.3346539835230455
H -1.4337388734214431 -2.5104275466448236 3.707934811048197
H 0.3357125974327749 -2.309049088322624 4.075730881847582
H -0.4665231900211617 -1.2505035109187181 2.866791777680606
