39
## STRUCTURE-ID: 6456fb222ca1d36d8a623190 ; CHARGE = -3; SPIN = 1
I -5.025384108046984 -0.36180559145882135 -0.8837201806338084
C -3.696114618181977 -2.5816322351673597 1.7157576717096514
H -3.3843221334498375 -3.2087090596300976 0.8874603432273854
H -3.5351621216948677 -3.1058041039721394 2.6508525979042
H -4.727813519647943 -2.277298164073616 1.5801774160894133
O -3.5060897150845007 -0.4201957881738604 3.411782127482603
C -1.4665996167868975 0.9739632219104076 2.8073840163716843
H -1.502977054430343 0.8554209586484874 3.882493415470432
H -2.0145096391114543 1.8693264864317902 2.5107825887326545
H -0.4283397232038401 1.079436749362479 2.493958971171588
H -4.202301509731407 -1.0796538291679652 3.5142061926874093
Rh -2.497466920911117 0.2688523506175753 -0.5698458805010264
I -1.482911321302813 -2.264053892033918 -1.2122870903995542
I -2.2977612239037932 -0.7668260796530116 1.7897660226304775
O -0.6861197516010263 2.361566065319162 0.10240131995661743
C -0.8565230154454548 1.1337341471081965 -0.028836210758546196
O -2.1729784786224093 2.476447115496858 -2.547587665964493
C -2.422644092280615 1.576185550277601 -1.835514284667949
O 0.4180851975258232 0.7908229035711082 -2.3409168850418567
C 2.173234396899853 -3.975890877578989 0.14413557633875762
H 2.6499322233291496 -4.8483750956627745 -0.292280323733178
H 1.1059283131996431 -4.125719755451185 0.283147185534036
H 2.6740333989023184 -3.6481880666339466 1.0509880703386292
H 0.11828309962691687 0.0022797577796038627 -1.8405386861828088
Rh 3.147857993890933 0.0493227744595905 -0.5338261312244911
I 4.112192281791833 -0.7747728536995997 1.7787330586397052
I 2.3860119352928524 -2.367076047356863 -1.3503920031876686
O 0.2933149147127162 0.29285531522313163 0.22253071322227735
C 1.4381160316419004 1.0321335999231698 -0.13229854231897356
O 4.1310805808590905 2.872905728170367 -0.3170044979675629
C 3.7020359121150346 1.8137481997809748 -0.5988855194651193
O 1.6791809560253081 2.0575090183857268 0.8148077648218384
H 0.8626822692709909 2.610732068331857 0.7647503403997784
Rh 2.9897622750630735 1.637771156694368 -2.563444592385507
I 5.024283986442227 0.12797101922193066 -2.956914289270534
O 1.3506457564503043 2.7889536152948873 -1.8053664222716284
C 1.2103352009102193 1.57859873786893 -1.4916039922007152
O 1.8342484435405473 3.0294408126394767 -4.8980456374892265
C 2.604773395946518 2.526024087195988 -4.20680655706428
