13
## STRUCTURE-ID: 64566c22b9e43467342a156a ; CHARGE = -1; SPIN = 1
O -0.552814704064588 -1.5806450763093538 -0.5009724361132261
C -2.291108162445604 0.9893305276722222 0.34625241940933504
H -2.3359264046535655 1.0177825393322826 1.4283759057785368
H -2.1180779930554117 -0.02223194898612014 -0.009928845015683372
H -3.1694049050733097 1.428385074270859 -0.10737778878445922
H -0.8385875299610159 -2.1620170615338616 0.21141198432592365
Rh 1.1634384989187896 -0.5366270123886983 -0.022026786413251266
I 0.5980361636302265 -0.7365502145420362 2.5337056581909154
I -0.5775049794344465 2.1432299800236683 -0.26558243617269417
O 1.9669000123638647 -0.8724794169742794 -2.8821696964453962
C 1.6456981770965697 -0.7140663797210359 -1.785672067488914
O 3.768175125223006 0.7530980385698004 0.6612378692818603
C 2.741176701455452 0.2927909505865829 0.39274621944705324
