17
## STRUCTURE-ID: 64568ebfd1831513dc1fea70 ; CHARGE = 0; SPIN = 1
C -2.218013785293357 0.8574285278513323 -0.0012204402202884309
H -2.5321908882999176 1.8776002068558868 0.21164594267602607
H -2.8244500458392263 0.15455228314462288 0.5679489319613136
H -2.4293909743748454 0.6654038447693643 -1.071922206044217
O -0.9340010362725103 -0.16258943903015102 2.1563312282906097
C 2.803505791930147 -2.2567788605073162 -1.1619966924705067
H 2.191949292949775 -2.5901481168485763 -1.9934499525149194
H 2.5208168934361526 -2.761938086191995 -0.2448097276542947
H 3.8617034492183033 -2.3665291801643886 -1.3722630243806457
H -0.875845167512314 0.004849173514349918 3.1179788881416033
Rh -0.1504069998795947 0.39689035092042796 -0.38410767909789617
I -0.7786039054609226 -2.132849049145513 -0.48229990422467517
I 2.442067977134636 -0.12753550704422079 -0.8854979048862753
O -0.6735785515530895 2.042102556513872 1.8881313017419905
C -0.8262332750085662 0.9368331529436689 1.4250993749195535
O 0.2729365810317537 3.2813324067169356 -1.0245125518291884
C 0.1497346437935689 2.1813757357017223 -0.7450555844081467
