18
## STRUCTURE-ID: 645672341062eb35e207101a ; CHARGE = -1; SPIN = 1
I -2.0255971293840993 -3.227319532599514 -1.265046710237226
C -2.355186361967952 0.11697455800543037 -0.15149298093246247
H -2.610162991386468 1.120102067033772 0.1982077641412001
H -2.660613499004989 -0.6015967714481161 0.6139451213491337
H -2.9212073205358586 -0.0866962929696793 -1.0631669203105212
O -0.03494323539941421 0.04271991641599005 1.5432839334130444
C 3.0023780648347715 0.9935108600390392 1.1481026596635877
H 2.137421955332354 0.8461821857333282 1.7891191674347129
H 3.0777420938277142 2.023562579346543 0.8174378017111089
H 3.914001491612396 0.6447797743457077 1.6165389271391168
H -0.635936621778298 0.6129881549105595 2.0315677682898414
Rh -0.29378147423979933 -0.03275519406045996 -0.4774883660174251
I 2.6478784110871953 -0.22846291217058456 -0.5989691347126384
I 0.00027320034057030994 2.646727446966789 -0.6758679177811054
O -0.7108000278784865 -0.13434329801960515 -3.4348176878217616
C -0.5244082860556575 -0.11548705953346279 -2.3031226138286667
O 0.3615230156775032 -2.652035437218386 0.41458330207997607
C -0.3685812850814907 -1.9688510447773564 -0.20281411357989962
