15
## STRUCTURE-ID: 64566e0e51ecd512f67ffa88 ; CHARGE = -1; SPIN = 1
Rh -1.5166580553778395 -0.013222029330313339 -0.5401405079635537
I -2.045945118183248 -1.5867840643250954 -2.643738550501466
I -1.5472492989080175 -1.9623110029773716 1.252010535660533
O -1.9228650472814202 1.8778382768836672 1.6042393551352019
C -1.1387298357228568 1.1899720488368104 0.9499872322332478
O -1.6082472657455873 2.6420034870612894 -1.8857175004592832
C -1.5469927138909647 1.5595220501609763 -1.4477692348913713
H 3.290922035354344 -1.3214089492935437 1.361600658300312
I 1.6496032779918801 -1.4111961550164525 1.487064712691764
O 0.19919032819776022 1.2721586663078335 1.2826631579316954
C 1.4965716127150521 -1.0847748741480077 -0.6168269479206668
H 0.522293575024128 -0.5424961342154137 -0.7804106520265769
H 1.4859076850010102 -2.051945289949571 -1.1101537861673412
H 2.3347882210422424 -0.47196756117332583 -0.9260599106659528
H 0.3474105997835435 1.9046115311785463 2.013251438643461
