12
## STRUCTURE-ID: 645667e05733856094112990 ; CHARGE = 0; SPIN = 1
O -1.1611937271440875 -0.6165628217885243 -1.3071459267393553
C -1.1801927286694904 -0.1372924317998287 0.6267348214820386
H -2.038835891677833 -0.7922031514398722 0.5636816277148197
H -1.4166061278301574 0.9008308571846954 0.7772019938830214
H -0.4192451049754808 -0.5325397383249661 1.2777146687808973
H -1.8173428592164795 -0.02651656566276441 -1.6957094548352076
O 0.5083607880027344 0.7094284010756875 -0.3063543014143187
C 1.687944632470836 0.23710372001121333 0.20662460352174322
H 1.8192795028392112 -0.8454264151403762 0.041927008530752305
H 1.7652468823505876 0.43388871641251764 1.288937902837778
H 2.5310985539271997 0.7516219755263084 -0.278065398276348
H -0.27851392007703174 -0.08233254605410908 -1.1955475454858184
