17
## STRUCTURE-ID: 64568a032d1a8a2023610aa4 ; CHARGE = 0; SPIN = 1
C -1.9857624380563672 -0.6185859637966938 1.169728773757109
H -2.098909423642153 -0.4885369792800785 2.246431603716188
H -2.5019026792157817 0.20893591169483494 0.6809288685985964
H -2.4820477008483715 -1.553232034795233 0.8789794110846431
O 0.43119460704151114 1.8341309475648397 0.2547152769511569
C 0.9410847062210997 0.34244048657436854 -3.1385025305885765
H 1.5155525516486865 -0.561215442725868 -3.3124558328622884
H 1.5075007778024485 1.05674219439504 -2.5514417335746207
H 0.580648921608412 0.7749941845674051 -4.064905454855053
H 0.6434781176187979 2.760379673564525 0.5009171886358543
Rh -0.002244997456540961 -0.7935510900942092 0.5357381080142172
I 2.499746427836678 -1.3739240204194085 -0.226227165149583
I -0.8016030851958336 -0.19409708049463414 -1.9632960751558728
O 0.46813167306609504 1.2732094595203773 2.430550463703175
C 0.3301332117362853 1.007152951682182 1.2698491735324795
O 0.5963064021496225 -2.1030537314838837 3.1341514066074088
C 0.3586929276854192 -1.5717894664735605 2.154838517585184
