21
## STRUCTURE-ID: 6456782a23cc83112732baf7 ; CHARGE = -1; SPIN = 1
H -4.500184417172727 -0.44267680087655503 -0.7209052997892891
I -3.377358961737663 0.2094900102665695 0.38312829700682616
O -1.6677856741282302 0.9206606213288879 1.5270307816256252
C -1.8958134839040202 -0.3652474944488657 -1.0222891781405001
H -1.7987210729583512 -1.4427978813358024 -0.9984006089291003
H -0.9711170026622227 0.10346889957938575 -0.7067043838638949
H -2.2036757925480037 -0.013760301505389143 -1.9978048872204355
H -1.9597282843825121 1.590876330138621 2.1453717628718105
O 1.16697403853729 1.3061816470031709 -0.15795663948139227
C 1.8048144619812023 -0.8135614424129081 -2.4539396468002894
H 1.6806635937833003 -0.02983630863602252 -1.7126345779651562
H 1.6456966346989674 -1.7856005186475339 -2.0052352473121915
H 1.141678376521843 -0.6588193400419758 -3.2943688246438425
H 1.243650565950196 2.2645675701036594 -0.19208647579793664
Rh 0.9415741534929131 0.6165802202128471 1.764712041608329
I 1.1774821026985436 3.0555442813764433 2.7273012187704326
I 3.810233692223964 -0.7472714338825185 -3.179898963589745
O 1.188194458409963 -2.188537317602754 0.7671279512476302
C 1.1062264354594986 -1.0901071799507274 1.1270335984066262
O 0.6817305535853877 -0.4561238412745346 4.537572986246529
C 0.7854656221506697 -0.03302971939401817 3.462946095749941
