12
## STRUCTURE-ID: 645666f797a8f5272864e488 ; CHARGE = 0; SPIN = 1
O -1.6772702014735539 0.8055877048615299 -0.2038924396495446
C -1.985489593149567 -0.32944356167721317 0.5697694351070531
H -3.009533469390124 -0.2073928766911431 0.9211849151578858
H -1.3216949465974641 -0.41459791651628525 1.4371400371493694
H -1.9195910211872207 -1.2481946737234073 -0.02178912938070093
H -0.7775599900783849 0.692231237956455 -0.5610553055990138
O 1.004763828010994 0.34884980696179446 -1.0766876704875303
C 1.8981416200944308 -0.07584438520314689 -0.06645089728606597
H 2.1417898507406665 0.7415138530654356 0.6179673353722724
H 2.819389208052235 -0.4777292534204604 -0.4953497346819674
H 1.3934696272952172 -0.8654495132106331 0.48735237193216335
H 1.4335850876827774 1.0304695775970776 -1.6081889176339275
