18
## STRUCTURE-ID: 645689d2b61c5a7dce3288b0 ; CHARGE = -1; SPIN = 1
I -2.352225519663515 3.3710868919754278 -1.0831851915817163
C -2.079580865465429 -0.01401167466949144 -0.7476246509143667
H -1.7930312597385532 -1.0584508891543027 -0.5870027370076196
H -2.6630762794108396 0.30677239212752727 0.12155725012545698
H -2.7689774894646604 -0.00813225551447535 -1.6160969954157833
O 2.332155852626878 -2.873512951394602 0.9392610391776814
C 1.1454105006698776 -0.9563403217551486 2.408552551011126
H 0.6321030264804173 -1.8061973222929235 2.8376496047505957
H 0.6493212302098921 -0.022937407168190253 2.6384542035421577
H 2.1831588052780098 -0.9519998790794932 2.7117854179678433
H 2.5851940182909687 -3.4318750681483436 0.201525727793523
Rh -0.6868932002434514 1.3577848602387679 -1.597660941807076
I 0.3712825298110744 -0.6318617670554975 -3.0208422391755003
I 1.1205889886999971 -1.1987674372365758 0.3005140619122378
O -0.3144209333653958 1.2823418759496483 1.1538429909033228
C -0.1709293876209789 0.6336461155271961 0.1592285060891425
O 1.3008359036701302 3.401126386673426 -2.528866936673802
C 0.5090840792356519 2.6013284509770482 -2.2910916606972664
