21
## STRUCTURE-ID: 645675fcf6087773304dd53e ; CHARGE = -1; SPIN = 1
H -0.8108868704938142 0.7175714892636853 2.0506057822873145
I -1.8759616758121458 2.3182506704921546 -1.5877745124496498
O -0.3846434271662933 -2.016350952660781 2.131211443241884
C -2.080183854266164 1.3058686937238189 -3.489727586912384
H -3.134905642735544 1.269025992467044 -3.7288868125771257
H -1.661035341104299 0.3152814759177738 -3.34168507602125
H -1.521703836629471 1.8739887515243554 -4.221962884839825
H -1.0574419138416131 -2.039706428394045 2.8138372895363597
O 1.237637802878999 2.089292053467209 -0.02853608241271096
C 0.2042151883781228 -2.6359853776094644 -0.9375169327758446
H -0.4564140717953748 -3.1258405399407154 -1.6415388720177564
H 0.11245718967248966 -3.067676863647071 0.05250427963421738
H 1.2354046672868928 -2.661540779890897 -1.2690982366056873
H 1.6935831907695615 2.936677663093628 -0.2198454993833152
Rh 0.4973818329886624 -0.00903385039009786 1.7218388849798916
I 2.858748275573395 -1.1132121859648494 1.1043353858438314
I -0.40025618120642353 -0.5852148708764823 -0.7355779520498801
O 1.8658335208094103 2.4972664354057006 2.060705784648619
C 1.3010883832473537 1.757316466807627 1.2706149620653113
O 1.3494817054178767 0.07447115595569809 4.550348429313085
C 1.0276010580283739 0.0995510012556981 3.4461482064949225
