14
## STRUCTURE-ID: 64567b0592ab54797509292b ; CHARGE = 0; SPIN = 1
H -2.10693283992358 0.014220063180467191 -1.905058748626528
I -3.6789514380644035 0.047439567202633696 -2.141791864306904
C -4.157217575063952 -0.2674074661391366 -0.057649016157963334
H -5.151845035071054 0.1386541041272462 0.10499560591357433
H -4.111298950946807 -1.338122737866158 0.11564040846398076
H -3.3838702684406687 0.2697640369420085 0.48723551317543634
O 2.4091112701146007 2.2425217353580362 0.695611686302942
Rh 2.556680775464493 0.18904571270004716 0.4540528689152386
I 0.03657260740209008 0.08763032167621099 -0.03317225814604444
I 2.6496776812720158 2.403985913453471 -1.2442845901769484
O 5.249378371914611 0.33461727724073825 1.765974888623396
C 4.228097723140772 0.2717678224730228 1.2399094912050832
O 2.7755344762086267 -2.771414144752686 0.23645019008583815
C 2.685063201993252 -1.6227022055959086 0.2820858247289117
