21
## STRUCTURE-ID: 6456772436d6315669051b83 ; CHARGE = -1; SPIN = 1
H -3.4978755417218417 0.39778169514739087 1.5169359749990212
I -2.7291699217569376 -0.12973362463715893 0.23967303529939188
O -1.4527264529354986 -0.45245395015269213 3.2182597042859373
C -0.7601922192895894 -1.0524537859336194 -2.4900271850742204
H -1.3752459634219814 -0.1770079194351238 -2.5532902989186375
H -0.8573495302483378 -1.7885783328203717 -3.261432461966889
H -0.4447507824124209 -1.3965753281578628 -1.5243738284368766
H -1.4220289019891363 -0.8384347138774294 4.1158382619338045
O 2.173990687725024 -0.3652084098324629 0.7393183368958961
C 1.5656063866602032 0.8599419804965082 -2.5805723562622513
H 1.7280184772349931 1.4141931918830382 -3.4966071999216917
H 0.8646214248044586 0.013661598197872712 -2.7312823508560338
H 2.5015093017486705 0.5343528933914555 -2.1417293113000726
H 2.7273819602019067 -1.1702245807285803 0.7415591713096047
Rh -0.1839387100302288 0.962632928397571 1.1199249957155242
I -1.1609596272040406 3.2511774355024743 2.118949277034635
I 0.6056538355940276 2.1877246883488777 -1.1662353736182924
O 0.49636488061993156 -1.842084460157946 0.7988695419674545
C 0.8484296614057418 -0.6700965382157417 0.8221019265794731
O 0.6625076476996419 0.13425094363401008 3.643124239333986
C -0.2898466126845768 0.12713428894978598 2.870995901000227
