16
## STRUCTURE-ID: 64568db5b8c5cd12776aac60 ; CHARGE = -1; SPIN = 1
H -3.169772928993045 0.35777058079006774 -1.2356099314763445
I -1.507414257122985 0.26359756982763183 -0.8615786203742494
O 0.2048058428011323 1.764284456864072 1.7575218562555823
C -1.8900816264663982 -1.7970044747941336 -1.4566834992533388
H -1.1010295187430403 -2.40743755349223 -1.0285185312875664
H -1.8495390824273317 -1.8279508632747266 -2.5423519295941177
H -2.8616210099748307 -2.0720937249804696 -1.0585796761579758
H 0.19842784054802468 1.9948099171238012 2.7066595337737014
O 1.4212153545044943 -1.3304763942665505 2.9631913575069713
Rh 1.125061365901651 0.0725378548686287 -0.21853276390147267
I 1.4701336113556704 -1.0851634915265016 -2.530425477482778
I 0.7530419248031702 -1.9968741669143064 1.3211920053302801
O 2.4373711831153764 1.6622917665835908 1.9700582987932025
C 1.4375719544363321 1.5345808278988458 1.2743660776849044
O 1.801341451484663 3.0001617135245198 -0.6580382969590977
C 1.5304878947771152 1.8669659817677522 -0.40267040285768524
