12
## STRUCTURE-ID: 6456662ebe7c5f017e5eb02e ; CHARGE = 0; SPIN = 1
O -1.1196298072661646 0.39744798419684524 -0.8533414320724881
C -1.9662354716096113 -0.2648516773667435 0.06552753876728323
H -1.501325984841682 -0.16889335065799296 1.0450296976873152
H -2.0669458449151614 -1.3256656546164005 -0.18008617066281268
H -2.9559372984365493 0.19746854219233906 0.09656483245889456
H -1.5185120544745638 0.35799156439117746 -1.7314010481633146
O 1.6160051764048335 -0.38041762850352306 -0.6649584771555621
C 2.09903829921423 0.2125576477012269 0.5169216015385765
H 1.5582109221342408 -0.15133581169256055 1.3973722752566973
H 2.021662049647685 1.3037668621495924 0.478275818748668
H 3.14861263051216 -0.06572709644983864 0.6073847037776854
H 0.6850573836305863 -0.11234138134411961 -0.7772893401809488
