18
## STRUCTURE-ID: 645689ebe4b73a35624b65ed ; CHARGE = -1; SPIN = 1
I -2.7272919721328286 0.8643466598941159 -0.21736085782289036
C -1.7250696947119295 -1.9852751467806498 1.6325150652412581
H -2.502070226470771 -1.4651700299219765 2.189948106340889
H -1.087438799790461 -2.531938811260322 2.3261204084882294
H -2.213571877896434 -2.69921312645337 0.961467710930754
O 1.7501726064034633 2.29054988586204 -3.0343036427385845
C 1.3566914461571689 2.1140974701946256 -0.33773601825609884
H 1.9800773629006365 2.840349793670222 -0.8382735174058097
H 1.9126589711483406 1.5577775959984042 0.41051941390585006
H 0.4855007472215758 2.587239301904778 0.10347824608062661
H 1.6283301751117298 2.1281331581935796 -3.969650602698125
Rh -0.6073006860426398 -0.7703385486816726 0.07196007771652205
I -1.0961918066956744 -2.2276751465675653 -2.1501986397111086
I 0.6811351358799144 0.7410970292058604 -1.8191753954447756
O -0.46638760684770786 0.3189963887248126 2.8526537892587234
C -0.5075954147704236 -0.10224768047786201 1.7806054414177577
O 2.087356033999091 -2.0750126684752592 -0.014460002334791357
C 1.0509956065369617 -1.5857161250297571 0.05189041703157183
