12
## STRUCTURE-ID: 645667da0059a03e710b5350 ; CHARGE = 0; SPIN = 1
O -2.8672891293638894 -0.28593069517561076 -0.47934426578059
C -0.6668451156618505 0.0693122615087535 0.22343115061622779
H -0.7816922486644208 0.7631053131116728 -0.5921769999052132
H -0.7827851107448608 -0.9551915489726015 -0.0886653255888085
H -1.2781076477031952 0.32468237962199725 1.0719379567668756
H -3.332367976390824 0.559274344476101 -0.48422294415994743
O 0.8205891246205342 0.266499171051852 0.7218008113014532
C 1.8031206839227145 -0.05855351005189354 -0.27949054843421434
H 1.6556237661381499 0.6227476690005567 -1.1146147867446032
H 1.6955537971667052 -1.0855974269310316 -0.6275079213179443
H 2.7893840256612603 0.10136268378948735 0.1522308845714189
H 0.9448158310196719 -0.3217106414293041 1.4966219886753709
