13
## STRUCTURE-ID: 6456b7a4d6052d000f159870 ; CHARGE = 0; SPIN = 1
C -2.334301723379797 0.16046253040798403 0.038186240261473874
O -3.264803205163003 -0.4248715881145217 0.30356540283723366
I -0.7624793928837877 0.19371461420627586 2.777019342466654
C 0.27667022388551876 0.4509887625423628 -1.41589909862051
H 1.2258952449849432 0.6757018559784637 -1.899861719710723
H -0.28838563158230285 1.3652291022763374 -1.2146597017640404
H -0.2925319130255263 -0.24433995056374366 -2.0298940462759556
H 1.5585552407927639 2.79680550223169 1.9019359840451457
Rh 0.5793813897640612 -0.32869330116176965 0.5309826670040105
I 2.3237656747914954 1.7167950937862206 1.0233898482801536
I 2.537637682265621 -1.791021378437952 -0.5190026615800059
O -1.0837315038569058 -2.764426408184697 0.20026595112436146
C -0.4756720865930659 -1.80634483496667 0.30397179193219154
