12
## STRUCTURE-ID: 645667924e23ac4951293426 ; CHARGE = 0; SPIN = 1
O -0.5888873073282895 0.46401105691671635 -1.415690325548957
C -1.2576099269153642 -0.02183037965389442 0.5211183982450357
H -1.1197345172878184 -0.006498841103122218 1.600951508037216
H -1.5000090855972408 -1.0068479840084255 0.16011757767092114
H -1.935817141165888 0.7548214607805626 0.21113759971924453
H -1.0495848473518696 -0.20314538429235948 -1.9250597053790033
O 1.5696688137737076 -0.4967574524851728 -0.766714309311156
C 1.3924152993268024 0.03233865698775153 0.4757462023833258
H 1.7545464800708328 -0.6335214183835497 1.2606831974198007
H 0.21901055201025935 0.1521342146135958 0.5674935979146272
H 1.7798540053492038 1.052504684209802 0.5877617667935698
H 0.7361476751156716 -0.08720861358190424 -1.2775455079446227
