13
## STRUCTURE-ID: 645673b275ef1109ab4b6a60 ; CHARGE = -1; SPIN = 1
I -2.0743439831006305 1.5339729996997253 -0.4245950264207256
C -1.8150522464806054 -0.691851478252562 0.8354498303126693
H -1.3035017638526707 -0.710651271142508 1.793983716185521
H -1.5964909109122245 -1.5325740384293465 0.18402865442657723
H -2.8798436825207916 -0.608963745123804 0.9935271210663437
O 1.513110936456013 -1.3818776383728322 -3.1089116888504895
Rh 0.3620110069204059 0.41942902374370283 -0.031494132937349546
I 1.6349476674155599 -1.8848617391780698 0.8588413355522563
I -0.03973601931433812 -0.5950177031800231 -2.456804158609744
O 2.7180249757280226 1.2590638058900971 -1.7490059393791584
C 1.7873960910722477 1.289564615796106 -1.0781032896014364
O 0.9834148167618898 1.691862535622552 2.5918666463448052
C 0.7100631118271298 1.2119046329269592 1.5912169319107283
