18
## STRUCTURE-ID: 64566ff03e0ecb0a8d6cd4be ; CHARGE = -1; SPIN = 1
I -2.1837096797471878 -0.7539321794267628 1.4996623263300135
C -1.20222239646056 -0.1583058086708843 -2.3792465012366013
H -0.9926214504439146 -0.07551120047379478 -3.4370112422260863
H -1.7702897952365428 0.7080185448862383 -2.0539826895371722
H -1.7730491807286137 -1.0561790812424992 -2.1814765747350813
O 2.1559959105263844 -0.5730037227741296 -0.8322482309937114
C 1.1742937667431856 -2.5332274215480948 1.487128485047609
H 0.1419345751093055 -2.8299790134458016 1.4369143009392105
H 1.831850199869096 -3.06089203357644 2.151805043583995
H -0.26015605959888816 -0.20169177756390844 -1.8370819545953256
H 2.751115858194979 -1.2950756634959846 -1.043180512224944
Rh -0.35791454716558835 1.0912301658182357 1.0175778834959281
I 0.7319054821948547 1.1676828141078663 3.811597934628868
I 1.5959227493821935 -0.6134668666757097 1.241404800892437
O 1.6663959492410079 2.7726832802615293 -0.4058885950150363
C 0.8654059968510373 2.1672453515952683 0.15581538550434515
O -2.63406170268825 2.975399031766498 0.6064003677922196
C -1.7407956760424912 2.2690055804583866 0.7618097723493288
