12
## STRUCTURE-ID: 645668eb31cb146c20224148 ; CHARGE = 0; SPIN = 1
O 0.01934655410273743 0.1455948615029358 -0.00433910055482777
C -1.2865515280845807 0.5246729685346033 -0.3814324179246621
H -2.0352227252653265 -0.06356885776803971 0.16088275543395741
H -1.3739152180182235 0.33189133836615464 -1.4482047322578742
H -1.4578883222313965 1.5888393025601442 -0.18420505760174347
H 1.015046485756798 -1.136257747601413 -1.0880752293477396
O 1.5932243757561924 -1.6640256466260055 -1.6568583820519938
C 0.2589445165281467 0.30639222959828566 1.3770896911069113
H 0.16998702266887505 1.358798022249698 1.6690629523887281
H -0.4463049966314363 -0.2882875562731883 1.968487965730964
H 1.2724276016035863 -0.04174851993217902 1.5628136526612666
H 2.2709062338146357 -1.0623003946110012 -1.9752220975829848
