21
## STRUCTURE-ID: 64567cea2644530eeb112990 ; CHARGE = -2; SPIN = 1
O 1.4013281249145186 0.6970535850799691 -2.2583240476668713
C -3.84996162668364 1.322483613928146 -0.7921146782407151
H -4.22501463108882 0.9160203768878847 0.14052008819954426
H -3.7194794656899224 0.5390903860616547 -1.5335424595547709
H -4.46847157754735 2.1349497433993014 -1.1581816485269703
H 1.037317773655571 0.1547260443463267 -2.9662481849188036
Rh 0.11403111355702995 0.36022542806814767 -0.20145382883982818
I -1.3214603746972031 -1.64437887660281 -1.4161425686005593
I -1.845744049597702 2.186745697501026 -0.3818277841296429
O 1.313213457715351 2.7857047206059127 0.5500820902086927
C 1.1650078215686286 1.6117132714871745 0.8530900257030111
O -0.9254922790021652 -0.43716697670509014 2.404506637786288
C -0.25071081560619435 -0.753300279914799 1.4851548442610665
O 1.7612707103577363 1.145504404606583 1.9883930713311944
H 2.2596610245388637 1.8580209133286716 2.4385864659558245
Rh 0.9392999292235793 -2.0162675146937503 0.573486971908211
I 0.43986040406849314 -3.8690061415290367 2.3532199127971776
O 3.0497430628985147 -0.19826972216087313 -0.29888984603980595
C 1.9064960261590693 -0.48942890124182814 -0.2564567387626627
O 3.034459459342881 -3.351168745361275 -1.1026927413705534
C 2.1846459119127597 -2.9532510270913246 -0.42116558149981803
