39
## STRUCTURE-ID: 6456fb847352956f205ede0e ; CHARGE = -3; SPIN = 1
I -4.807772184798241 -2.112759161599036 -1.3445898450673188
C -4.179965625233699 -1.8933500881772867 2.4848964914104688
H -3.69329207106053 -2.790694477640322 2.8582930521770207
H -4.499959658675866 -1.2707351471596204 3.3105821724089424
H -5.004935006947112 -2.164254041201002 1.83521615915237
O -4.089189891593248 0.5014582202643881 1.0422050540784997
C -1.7151651315939362 0.8984783354001661 0.27337769456746813
H -1.5677216744886924 1.7391632062999083 0.9419422444810945
H -2.404486665833739 1.1727171689517046 -0.5217456292635592
H -0.774872019135949 0.6005955983586428 -0.17967386045011954
H -4.877959690039763 0.2633843712108174 1.5432061744468057
Rh -2.213518904463545 -2.3784520121820503 -1.0919429682506074
I -2.3807662450362774 -4.582070955858525 0.29381874206290437
I -2.5127750502335617 -0.810733814643775 1.354881016192346
O -2.0342299976294838 -0.18759733835941614 -3.1072205605365864
C -2.0824805486095297 -1.0223839824771184 -2.2986700857784386
O 0.5857573464435943 -3.1431972833971518 -1.8002071588686919
C -0.47510875425953064 -2.815892876607965 -1.4475323276102903
O 0.3437796164726084 0.0023738723584733573 2.4672834055694977
C 3.146613823369341 4.078863821473681 1.3525556761026367
H 2.921621251792911 4.201763838741434 2.407599916727806
H 3.000845306207273 4.9983781780813334 0.7895723946011598
H 4.1498001029040115 3.6861169014708937 1.191068360813046
H 0.9229815659578796 0.604118232617248 2.9727831506734868
Rh 2.663559179694573 1.839789128214904 -1.9129932200047794
I 3.4737985293616562 4.267787945579362 -2.4492282963064294
I 1.6902780023037909 2.583500454214642 0.5447799538216171
O 0.637687888523608 -0.20816856856570123 -1.8855364337774736
C 1.8619878283306217 0.029731116930312742 -1.765200955070727
O 1.7187689036296228 0.7617735106085317 -4.524552978927665
C 2.1425133504579894 1.3196463424941556 -3.5789703923208243
O 2.7220404310389585 -1.0493214761673013 -2.091728931974495
H 2.1970795298486743 -1.8452338099704273 -2.2738147598033347
Rh 2.635419032067513 0.09528095014495373 0.6202324649215838
I 4.945462287815278 1.0195449693281469 -0.3476987335099638
O 0.2508941279113572 -1.4479055455940617 0.8304758373039877
C 0.9220298619200615 -0.551073327484349 1.3459416850810606
O 3.246966353948629 -2.7704539700987034 1.1336111733451932
C 3.134314799633418 -1.6201882855591037 1.0269843175820008
