12
## STRUCTURE-ID: 64566b6dbd016c1dd167100e ; CHARGE = 0; SPIN = 1
O -4.764675885591289 -0.9514348170520228 -0.464668020477501
C 1.2283275272832341 0.5209167564802559 -0.7201786041675335
H 0.16652277798204668 0.7139654951768154 -0.8379142938246043
H 1.5368232135685476 -0.24105589795374274 -1.4306693518092326
H -5.553355735186428 -0.49926881958906094 -0.7754097690365038
H -4.067863695894229 -0.29229550434123686 -0.4096538524730345
O 2.906166233199523 -0.18778238791349577 0.8259810680700796
C 1.5158176360277538 0.05058504343781783 0.697769516014476
H 0.953943532738679 -0.8713279003587724 0.9045193810071819
H 3.0945896698744066 -0.49233702529624485 1.7207448759299186
H 1.1978066496680755 0.8196429052643661 1.4161974131783142
H 1.78589807632968 1.4303921521453207 -0.9267183624115541
