18
## STRUCTURE-ID: 645673afbad3fd45da62318a ; CHARGE = -1; SPIN = 1
I -2.865266751612081 2.111843635090369 -0.32942025260680274
C -2.7884677670270275 -1.7068873479046502 -0.6169532040414784
H -3.5728029450464507 -1.0370448339901959 -0.9524982245718817
H -2.9736206449537206 -2.7292129525141777 -0.9219416083567207
H -2.653552537195031 -1.6235407925257832 0.4569093258742171
O 1.9902749127648813 0.9724398351929125 -2.175339845906933
C 1.318628841548069 -1.3118157591244233 2.193632263763734
H 0.9403783587443564 -2.256310104370825 1.8218521145601638
H 1.688260739288282 -1.4008236599056763 3.206691405276921
H 2.0741582238576517 -0.9020020810631862 1.533799911988518
H 2.9437493115000897 0.7751934850158211 -2.265178587304056
Rh -0.28986471808137826 1.3434177205475162 -0.5529319769541349
I -0.3179478728797184 0.09735247275911986 2.2175942698705087
I -0.9267971554390897 -1.0597212381929775 -1.568580572171495
O 0.9570221063322512 4.0564561398572305 -0.6022181622546731
C 0.4011597235138767 3.0293955916614412 -0.5613623301091419
O 2.469117361409535 0.6941624271853715 -0.021101776276310935
C 1.6055708132754745 0.947097462282112 -0.8629527507804876
