21
## STRUCTURE-ID: 64568e096fd4575b88230d64 ; CHARGE = -1; SPIN = 1
H -0.015852050487096973 2.3321547232920024 -0.21854752271023975
I -1.9838333973635989 0.563401138001135 1.76025248658986
O -1.7634665377171743 0.9225820092058684 -1.493765918053803
C -3.462795260682427 -0.645936264799814 0.7687974907098835
H -3.4087229387004956 -0.37683032010132045 -0.28059152283999267
H -4.428388010827782 -0.4081093566661174 1.1965526566083384
H -3.1919057909533928 -1.6851537332648885 0.9177462389529315
H -1.6617092528134916 1.5256409640842445 -2.2329097046301816
O 2.3971821451790096 -0.721237676435274 -2.8921772925268088
C 1.3607765507860794 -0.6419892312720862 3.1126014689292307
H 0.6072100951882433 -0.08240380310416552 3.657217635810575
H 2.2370920363497393 -0.8321492511515372 3.7222822843542698
H 0.9511790022300808 -1.5652775762021829 2.713446262965806
H 3.2655616552807505 -1.1770118656269484 -2.895954024460085
Rh -0.05297205856352573 0.7855417621788814 -0.3487871049972827
I -0.10098552383837896 -1.88173449088943 -0.6121730990306518
I 2.0285572479117695 0.5757226485546237 1.4099896409766108
O 3.2742577135873963 0.5761815208353506 -1.3033628952275194
C 2.3350213028012354 0.24909818410122056 -2.0023861741131417
O 0.6360840699641575 1.5394998771336084 -2.996450958810876
C 0.9777090026689247 0.9480107421268246 -1.9817799484969139
