18
## STRUCTURE-ID: 6456727adcb06a54863dae44 ; CHARGE = -1; SPIN = 1
I -1.762053860610234 0.35263126908470516 -0.8672317879369582
C -2.9747334676782935 -0.523899084288405 0.7440288807396241
H -3.2657732865204974 0.2736227535864594 1.4159742656449803
H -2.3648987857736725 -1.265221592311526 1.249104788023949
H -3.8395971364493615 -0.9872239299717113 0.28677034253710265
O 2.8255358339134298 0.8757853827228826 -2.349738794142129
C 0.11518376344952623 1.0605229904264752 2.662641422688861
H -0.0378881406343181 0.014122853963805037 2.908262935506638
H -0.7798852845440671 1.5023729718578431 2.2382756645146142
H 0.4687040613273454 1.6200723641657377 3.5197043603591567
H 2.95070829532363 1.5436324273145816 -3.052298799089277
Rh 1.0409123702666168 -0.6754224291111719 -0.7608478065238187
I 1.679845863558612 1.1518566064909317 1.1243235337168005
I 0.45328001355202746 -2.559715931810747 1.0576682183746449
O 1.8151233144109076 -2.424379984902358 -3.056606511395636
C 1.493949395634943 -1.812760355321373 -2.1116430629869822
O 0.6866150973844144 1.2317932400638465 -2.8558627505669194
C 1.4949719533889612 0.6222104480401935 -2.1525248994646167
