12
## STRUCTURE-ID: 645668dc86c8650e8976345b ; CHARGE = 0; SPIN = 1
O -0.07483786422877133 0.2768651051626925 0.049725735349811125
C -1.345232996776263 -0.20210190215380847 0.43533151543050497
H -1.775185055494459 0.42579792903376673 1.2230972050759852
H -1.2815841016494256 -1.234414045294468 0.7966584466645503
H -1.9769568981210877 -0.1630013507828296 -0.4489052662210237
H 0.5893947422761958 -0.2600218390291518 -1.6815945784782214
O 0.9031727587010255 -0.4226786276037589 -2.583464976547801
C 0.8522542897530669 0.28643777480269833 1.113811012439531
H 0.5053629065389024 0.9339094287747772 1.9263041278587438
H 1.786512825990402 0.671902842961496 0.7125524436707867
H 1.009520338640697 -0.7245970558520879 1.5053683206423665
H 0.8075790543697228 0.41190173998068186 -3.0488839858852366
