16
## STRUCTURE-ID: 64568e04f66489590b6b0e10 ; CHARGE = -1; SPIN = 1
H -2.7587480783455978 1.745905800932191 1.102625430090155
I -1.8613104731845964 0.3827596115953136 1.602716566264243
O -0.6073553797627343 -1.3188463813357894 2.239655748428225
C -0.7407947372832111 0.9162210107159813 -0.2598028408596845
H -0.5784033143243664 -1.7474486806762815 -0.7470596795386626
H -0.4523478617724953 1.9293529516026964 0.01137419285124652
H -1.5712805525568885 0.9212411173370936 -0.9611295744730683
H -1.114432634757245 -2.0716841638566876 2.5446398687304166
O 0.04067769389234633 0.20517672822287572 -2.5315682169931772
H 0.5852032706381377 0.5454313858316804 -3.2652535612483593
Rh 0.4839445765131441 -0.8818239806451732 0.06639638105381776
I 2.3139940542827335 -2.8084349957034167 -0.2738660991579743
O 2.4392245897160074 0.32003141946035024 1.9734556901371454
C 1.7093337350839708 -0.048159733168560995 1.159826038004716
O 1.5287111683010408 1.3512554926505875 -1.3237586596818178
C 0.5835839435597123 0.5590224170371811 -1.3382512836072271
