12
## STRUCTURE-ID: 64566a81b2f024556c242a30 ; CHARGE = 0; SPIN = 1
O -1.705341409066022 -0.08657205907097693 -1.5952538374263339
C -0.39549594488056633 0.06461042521427507 1.3956158080131014
H -0.9994950007964415 0.8589956967429165 0.9635823369996588
H -0.8916514122600804 -0.8794371789580119 1.1778629963110496
H -0.2705502651514087 0.21707524977822856 2.465336057992221
H -1.6796126629350794 0.07873654847333311 -2.5432064985303118
O 0.9140713971474006 0.1320863561207711 0.7880470873103416
C 0.9105466610619695 0.059891192287082964 -0.672232570447606
H 1.4445866748806457 -0.8172484505898681 -1.0173051264255917
H 1.387597992143226 0.9649268383793521 -1.0357897483079235
H -0.16930407099577485 0.011233750526018792 -1.0719902968195643
H 1.4546480408521343 -0.6042983689031233 1.1453337913309722
