12
## STRUCTURE-ID: 645668e9c522ed76151d80b0 ; CHARGE = 0; SPIN = 1
O -0.8374584693343557 0.5812165938964747 -0.16829627337302852
C -1.0137140060264467 -0.2800896090176385 0.9646014145975932
H -1.7280268396225968 0.1976469630956581 1.6309047686877445
H -0.03943194186316068 -0.37523369748012725 1.4454228101524018
H -1.3692486825604877 -1.2665984750043646 0.6636891264185013
H -2.187854846055104 0.8683723843227333 -0.48615752213289437
O 2.394329458799784 -0.0787558859024726 0.46353366392671136
C 0.024863261397329917 0.09598185812493164 -1.0801010535607936
H -0.14410600503660106 -0.9229988495965346 -1.4275547503071861
H 1.605312596563142 -0.00040658000582879884 -0.14078120149491066
H 0.183531743232555 0.7974093827755758 -1.891466585281019
H 3.111803730505937 0.3834559147915958 0.02620560236689192
