13
## STRUCTURE-ID: 64568c7697bd4c0d7164e47a ; CHARGE = -1; SPIN = 1
I -1.7573106145128392 1.9578828726897812 1.2014966477352718
C -1.568698484753932 -0.9252683701121218 -0.6795246089247053
H -1.2268867944714386 -1.9070341937845472 -1.012219909359161
H -1.9169481063952711 -0.35829633611802075 -1.5447900914477006
H -2.4087427383827458 -1.0637075768157902 0.004345538755524228
O 1.6280086359030634 1.2613925667534038 1.4629226215002538
Rh -0.04173581547265458 0.11992434169422314 0.36235984953586814
I -0.2891010645768615 -1.4424715630858425 2.4903434819172814
I 3.382982119847712 1.703410790752201 0.7186113656751774
O 0.5111962603236858 2.1881901199456455 -1.7042923875789089
C 0.24056084049179133 1.341831606678987 -0.9919077269847867
O 2.1749209366372213 -1.7762471189730833 -0.23032502254438073
C 1.2717548253622626 -1.09960713962483 -0.07701975827974146
