18
## STRUCTURE-ID: 64568b1de8536853ca7ccc0a ; CHARGE = -1; SPIN = 1
I -3.136832448346688 -0.41174367246977384 -1.318694591186889
C -0.7086483936207475 2.16894808198347 -1.0092138595644748
H -1.2653861103122328 2.080310931001412 -0.07625210786460418
H -1.3913831090304907 2.1456339401486373 -1.8599649887845962
H -0.19140441026891272 3.1292666805774365 -1.0123250023473065
O 1.1789243839351722 -1.7282951956730153 0.017158939500855473
C 0.4499040647821585 -1.0246940486905542 3.153792070969403
H 0.792446911498165 -0.09960571229671551 3.602468802328819
H 1.1959871163676759 -1.426762463623964 2.4762009576088446
H 0.14363179878751442 -1.7530536361607971 3.8946870218243412
H 1.8643836871528467 -1.8494260153691544 -0.6412215873355517
Rh -0.5878226015515648 -0.8182896221283391 -0.6509775290219807
I 1.777572921076906 1.3867266480384524 0.6134077196052677
I -1.2596833260546205 -0.5736146659667911 1.9227213563616234
O 0.04884028607651851 -1.844864396188564 -3.361130824630481
C -0.22537310320246634 -1.4155799176175918 -2.3289725471736165
O 0.9703993637985089 0.9384105813182051 -2.2320710858860124
C 0.34444296891222015 1.0966324831176424 -1.189612744403671
