13
## STRUCTURE-ID: 64566e3f75333c48951688ea ; CHARGE = 0; SPIN = 1
I -1.5616885017778364 0.19879053553613044 2.3503433761135386
C -1.3010061811876943 0.17455982749350407 -1.0851207669112028
H -1.826718011704676 1.1333518716982804 -1.1048722650986003
H -2.048420436204076 -0.5849718278268523 -0.8375852194383858
H -0.9337437756912471 -0.018364218540129214 -2.0950946066533693
H 0.9934223617583575 -3.2639658141732673 -0.8853637643074964
Rh 0.2662049061442584 0.012227897033716021 0.3539957814331662
I 0.053983150382479424 -2.7924756589255177 0.30752414055712385
I 2.1635209989152684 0.019235511079361573 -1.5658173066073588
O 0.11322105684933818 2.948671031130829 -0.029465873182694165
C 0.18244637427838795 1.827282947056663 0.13049048528757687
O 2.2676217765419078 0.34697012806375316 2.664981153221493
C 1.6311562816955179 -0.0013122296264643943 1.7959848655862078
