9
## STRUCTURE-ID: 645688480a0037048309291a ; CHARGE = -2; SPIN = 1
Rh -0.46389146836453254 1.0864165661801362 0.5782577056378033
I 1.2093682506040284 2.747885138860395 -0.5373912697215316
I -2.4073135443765445 1.7355857460528947 2.2038607879285106
O 0.9662201628730036 -1.173859050531593 1.7651212114374335
C 0.27120349526273224 -0.5941673311089203 0.929801110357578
O -1.2217570827542337 -0.8021630905664421 -0.9661624302162061
C -0.06126694977887681 -0.8008553627890141 -0.4706978285138913
O 1.0070195937284674 -1.0878423040633367 -1.2896039758594955
H 0.7004175428059585 -1.1110003120341134 -2.2131853110501987
