13
## STRUCTURE-ID: 64568c85fd7ce078160876ea ; CHARGE = -1; SPIN = 1
I -3.249600899183028 -0.12697498870192653 3.702390006693371
C -0.43080725959549854 1.8151130141901377 -1.9187750176067402
H 0.19302767776396898 2.700292385587129 -1.8297392890649007
H -0.5191255478462982 1.4956597386371302 -2.9532149889955157
H -1.4244894041609413 2.0448420432891057 -1.5353219496675705
O -0.045848689116400554 -0.5074829768935284 -1.4223538249092846
Rh 0.9234731415059523 -1.043083100850518 0.5380362245562563
I 2.5591709266824627 -0.6785421025191207 2.5228764528891885
I -0.6348352556144354 -0.5202177941658487 2.6429416840384024
O 0.816844399278253 0.9633491198825637 -0.05327661946254189
C 0.14765433313681203 0.6978075234407313 -1.09648036072074
O 0.7943465021654761 -3.997984864152773 0.720160972227894
C 0.8701900749836838 -2.842777997743087 0.6827567100221807
