12
## STRUCTURE-ID: 645666fe0becdf7cfb1a5628 ; CHARGE = 0; SPIN = 1
O 0.28149267786271026 0.20727675152031663 1.6344002583754367
C -2.3186710656755274 0.07527774724954907 -0.6296077837305553
H -3.143623719219439 0.7376158057278723 -0.4020457808580722
H -2.679918127223343 -0.9436506365707105 -0.679209537436191
H -1.8862383344063338 0.3539939021625725 -1.5815392113778677
H -1.5731182941020807 0.1567653825220586 0.15313601124358014
O 1.6781066570945584 0.12573480441158325 1.300282040138907
C 1.8827807685317668 0.007941669619718024 -0.12984123042244858
H 1.3429300398925552 -0.8435335789633478 -0.5430632368588105
H 2.9574405541849633 -0.08416099250385149 -0.27730202737343307
H 1.5098852595081078 0.9273109213622632 -0.5777887640985442
H 1.9489335835520645 -0.7205717765380286 1.7325792623979965
