12
## STRUCTURE-ID: 645665b10e0f1e454d399e4b ; CHARGE = 0; SPIN = 1
O 0.07598398204261451 0.18596049390888292 0.05738847392353733
C -1.038933354597833 -0.4189255595738957 0.67622745293385
H -1.8664459069735129 -0.5312095165640477 -0.03313902754106136
H -1.3820701521860788 0.17280253242542404 1.5315127343172088
H -0.7122192283033724 -1.3984868087016669 1.0179759087697464
H 1.5694994873913106 -1.0997285848994733 -0.0789908799209988
O 2.1334798330697873 -1.8751413579809222 -0.20266359389963062
C -0.1791817247380916 1.5052932078812813 -0.3712855692350263
H 0.7354570410231945 1.8649816677304707 -0.8367172968767734
H -0.9977731686316054 1.5319358614090008 -1.0992951892627805
H -0.4363148177746818 2.1478996557718077 0.4779748159143813
H 2.0985180096782527 -2.085381591406779 -1.1389878291226008
