16
## STRUCTURE-ID: 64568dd4b88ad75a714975aa ; CHARGE = -1; SPIN = 1
H -4.115670222497542 1.2784849184517024 -0.00630443222517096
I -2.5563951974399375 1.0307599016160855 0.5342069159606411
O -0.46560589963986176 0.3370156932495525 1.1846924478595122
C -2.5246600681840556 -0.6935708776003169 -0.7111502431558527
H -1.5624688912465572 -1.1769993924584685 -0.5562024988205809
H -2.6149881286244656 -0.3581402746108744 -1.7380159888267734
H -3.3370561695859196 -1.3435296288071887 -0.41045858887971276
H -0.3653778216776082 0.4643802696314243 2.1324681649127673
O 1.9948557115203307 1.7642852353252 1.6069149456433405
Rh 1.2630252176363599 -0.2886648351257275 0.009049957869165315
I 1.8966833953038078 -2.049816750263267 1.8768496410089508
I 0.42962087529123355 1.2709778915322314 -1.9245845461132869
O 3.647426684994094 1.1522464470601752 0.17149321044095286
C 2.600845172542951 1.1990517693016913 0.7475810235475785
O 3.226666679156466 -1.5517847956109714 -1.817250679902341
C 2.4830986624506797 -1.0346955716912511 -1.0992893293191859
