12
## STRUCTURE-ID: 6456685b55c5e557ee39082b ; CHARGE = 0; SPIN = 1
O -0.5576325343169521 0.5818353109802318 1.1500711378206578
C -1.5478779556886737 -0.3491998105761179 0.7503462653892516
H -1.8656954692512728 -0.17144468763174556 -0.2808591538133913
H -2.414579424195209 -0.31004719347496135 1.411447453319299
H -1.0978522872777774 -1.338184931624821 0.8159536573660078
H -0.9501270250621969 1.463280644949826 1.1966180498509067
O 1.736807239520018 0.47635129870565207 -0.24903151709365812
C 1.5808837802329967 -0.2283177585651053 -1.6470140255106855
H 0.9629549476094915 0.5114317608609016 -2.2080355254414252
H 0.8780187075005091 -1.0745443571908992 -1.4456164840675227
H 2.387884049470239 -0.07156933109674916 0.2207377285634181
H 0.88721597145883 0.5104090546637767 0.28538241361714844
