13
## STRUCTURE-ID: 645673fcaea87d41ef7b924a ; CHARGE = -1; SPIN = 1
I -1.5700148710794608 -1.757148117181592 -1.6029798871621592
C -1.1271605603691564 0.656912873829422 0.8561932024569242
H -2.1457304795256356 0.26540527070825815 0.7719326425742574
H -1.1340912193407793 1.6666343204031477 0.424085531107695
H -0.9200025343441788 0.7833637557914842 1.9250778278066496
O -0.347074417533059 2.9553662871476964 -1.3219158681849803
Rh 0.332763868656057 -0.4580035304497301 -0.2257343375960783
I 2.276973270410124 0.8640681020781558 1.089675205567168
I 0.41124386573041183 1.4724364380879387 -2.160118023730335
O 2.6628743600802416 -1.5273426091879034 -1.9096191301882421
C 1.7553400633435692 -1.2583822266206424 -1.281200858144105
O -0.22258956248288014 -2.1260243138128256 2.187653831760247
C 0.027468216454634983 -1.5372862507932439 1.2469498637326362
