18
## STRUCTURE-ID: 64568a4051a59e52486aac5a ; CHARGE = -1; SPIN = 1
I 0.8952079955218001 1.2404482934547685 -3.256311665242466
C -2.4613542164563715 0.67715476885401 -1.4496422838547018
H -2.992272358390589 0.3168509963392245 -0.5676789582920312
H -3.1136952196610346 1.3435766913555705 -2.0122244133918508
H -2.17014812660307 -0.17791259292019265 -2.0552478504135925
O 1.0846882635749173 -1.808055675742106 -0.013588472791856912
C 1.459630730392957 -0.5060101485765028 3.026684784491319
H 2.2747195637964412 -0.6554036272031776 2.3258747258650314
H 1.0606654388915246 -1.4485771505567027 3.381081517282019
H 1.7613128643549285 0.1387940610736112 3.843979388316353
H 1.0505799732044396 -2.774551229917401 -0.16300021400026796
Rh 0.5607607747501371 0.797997011883802 -0.6542746630903348
I 3.2258137279628 1.0872550403782772 -0.03986429975782222
I -0.1328005662679918 0.510090837623108 1.942075125789413
O -0.32497670496099246 -1.6768046503356508 -1.7433666560031589
C 0.35519119140055205 -1.1256642356813864 -0.9059162009094969
O -1.2693617068554826 2.6221066337706334 -0.6836905590187471
C -1.2639616246549925 1.4387049762001025 -0.9748893049778043
