12
## STRUCTURE-ID: 645664e3da85c545656c2b51 ; CHARGE = 0; SPIN = 1
O -1.3501892924051866 0.3037725249712346 -1.4381196358073183
C -1.233835642275214 -0.17243872421496234 -0.3755161665609002
H -0.8244996918495227 2.630649645953735 2.113464292538551
H -1.9955529123028515 -0.5754955451026947 0.2963659258925014
H -0.09200884302924084 2.8700361042801372 2.012714673601797
H -0.46905370833081167 -4.620617664756712 -1.1912771908467983
O 0.03893694904837673 -0.21849007715415503 0.26663499348135195
C 1.226360363249787 0.11312936873226238 -0.5133857588122216
H 1.5560749365481674 -0.7481593720572891 -1.0941141098350837
H 1.993390386005032 0.43361026947925346 0.1883604034744832
H 0.9614320883093365 0.9293463599822565 -1.1847629574545555
H 0.1889453670321183 -0.9453428901130365 0.9196355303282037
