18
## STRUCTURE-ID: 6456898c8a4c071c47662c63 ; CHARGE = -1; SPIN = 3
I -0.6259464212555972 -1.09062857120986 -3.5359785993771617
C -1.907628873518532 0.6419761603496049 -0.3035188107012687
H -2.4056726951687692 -0.06246480678031677 -0.9851759977287335
H -2.3077220228205886 1.6387955410325623 -0.4910264322489809
H -2.1700374043025112 0.33678883879320554 0.7078829432459408
O 0.123759172243136 0.5638999247313649 1.5373485442267756
C 1.6564652528298343 -2.4098503273778813 1.5491648772464766
H 1.484026838149127 -3.1838644058983867 2.286599951086847
H 1.707851714869179 -1.4267099301092478 2.00031006032717
H 2.5417376383258206 -2.6073408066438013 0.9553777695671414
H 0.2722726470415912 1.148885725881 2.3049033923058335
Rh 0.07736753938314879 0.24571721886435433 -1.253159466261568
I 2.7649010496294695 0.2350533445305138 -0.9458043867256516
I -0.04260991455387096 -2.4042590536407595 0.20761059556864897
O -0.0800172112511 2.50786298829597 0.45961664767883725
C -0.11035037076921875 1.2890713167312469 0.41999643341895787
O -0.9257632934493253 2.65128154787369 -2.5749417194128013
C -0.05263364538178718 1.9257852945767013 -2.339205802216476
