12
## STRUCTURE-ID: 6456690f8da3c031c719eb63 ; CHARGE = 0; SPIN = 1
O -0.46969275267127847 0.3011957841057955 -1.7874906820459797
C -0.7089327311854767 -0.1856809118948489 0.817918794673004
H -0.6117121200831007 0.25768642376671763 1.8066052973059143
H -0.7009031478623328 -1.269606119750699 0.9042468016770429
H -1.7477212429066358 0.12787582150670115 0.5786791328466898
H -0.8142219836343916 -0.47954212722045125 -2.2306627691272807
O 1.5475960925832277 -0.27950053641622596 -0.6090237873071377
C 1.0546627202260577 0.2116883288616938 0.49113100978826346
H 1.0452555984059124 1.313508881550895 0.5597831468080715
H 1.484450104666698 -0.22828309744111694 1.4001830040645018
H -0.6371030008494013 0.15926440597770347 -0.40981677372793507
H 0.5583224633107298 0.0713931469538444 -1.5215531749551667
