21
## STRUCTURE-ID: 645675e404b6272c55610abe ; CHARGE = -1; SPIN = 1
H -1.591882038710419 2.1173908975770983 -0.0744835567972577
I -2.970539011997671 -0.024002717587408903 1.633231527416391
O -1.146515092091497 2.440162015680765 -0.8672688557192705
C -2.763046599121067 -2.0913226607560165 1.179136764234214
H -3.2389871155080106 -2.2652978476581094 0.2232832305875747
H -3.230988922181927 -2.6520350073380894 1.9768635721958698
H -1.6999118240242495 -2.2964465003469265 1.118406244183416
H -1.85436047601345 2.644067779910448 -1.4912785546172966
O 1.1082277908897362 -2.008641300009738 2.4238354806810527
C 2.336901786205543 0.22951014661112767 1.3895688949373557
H 2.3612651588285303 -0.18758523392971527 2.3842850535780244
H 2.162506277615184 1.2995143951767776 1.415067528378299
H 3.257127489712857 0.0027879867217659943 0.8622060073066612
H 0.5882004277135849 -2.813117374497941 2.4370518131514074
Rh 0.6087524292462291 0.6493019823064111 -1.8710374129160388
I -1.396625891141767 -0.9389276754295347 -2.2482289204520276
I 0.743425862883985 -0.6862072721098208 0.3679793338054408
O 3.186125796155882 1.9829329727778304 -1.1680761648610583
C 2.174187309917793 1.49630623148333 -1.4412935851750368
O 0.7503028002239831 1.755898054926318 -4.6561755898052795
C 0.615833841396739 1.3457111264914154 -3.593072810112502
