31
## STRUCTURE-ID: 6456ffb78f9ff73c18399e40 ; CHARGE = -3; SPIN = 1
I -2.4114882894173686 -0.11216277441347988 -2.0686775493628913
O -3.546781551321399 -0.6261383411404623 1.103127075588815
H -3.5820501658699526 -1.1537127421476197 1.9315314679797355
Rh -3.3034987707007173 1.7075100337382938 -0.37486638535913736
I -4.128634007571152 4.000563795609538 0.6212613044537074
I -5.745679408379142 1.0167244313257622 -0.8505316307813156
O -2.79057426555178 1.086587546449016 2.3296768553179223
C -3.1441376810262422 0.6176730635119491 1.2711515535356752
O -0.9013196823110183 2.9325488753053586 0.8196192219584066
C -1.6140060977588182 2.354150310138705 0.11034668741042708
O 2.077913069440585 -2.8889077714648748 1.8278453653356674
C 0.08681795380296768 -2.833815713803738 -1.4254439008811086
H 0.6038155231456075 -3.77248133099738 -1.2681265659686842
H -0.5647977229615613 -2.88044901357142 -2.291684270026615
H -0.4859898440346284 -2.554434382681761 -0.5447836954940126
H 2.682598411163919 -3.3985340024574016 1.2608380313752863
Rh 0.20862347369837902 1.0543538969828554 -1.9588103133258659
I 0.46500695821150834 1.2406655669115911 -4.592691613043154
I 1.5433861614265805 -1.2784399580341517 -1.7423472526483677
O -0.5342040646233027 -0.06404777328430376 0.5524532695964949
C 0.25190484463121415 0.7115549884104396 -0.023348036800630693
O 0.6884354843991422 3.941066629543787 -1.323404182832228
C 0.4996556978632042 2.8292336848516983 -1.625897632682322
O 1.2877493021874666 1.2185108875840895 0.703834720005158
H 1.314917297515928 0.722390914233048 1.5669495484734672
Rh 3.2007087351755175 -0.7278265941000038 0.16870852569643874
I 4.298992852648241 0.5082398612536365 -1.9038706931141778
O 1.5143114419403512 -0.8396419586430172 2.408901219274909
C 2.171695333848066 -1.5350985695522246 1.62414977369559
O 5.312317207295304 -0.61671519626615 2.2787592555564236
C 4.544311803133143 -0.6593683632919264 1.4153298470665252
