12
## STRUCTURE-ID: 6456671db6bc692a15351d70 ; CHARGE = 0; SPIN = 1
O -0.800984009782588 0.6573921485404173 -0.17785442221163786
C -1.7214084464374397 -0.31772918267380423 0.2868489586638147
H -1.8420867708476678 -1.1356000589093722 -0.4228404699272283
H -2.676862286730858 0.1888737605858346 0.4435476211700389
H -1.3478580312631416 -0.7032564094723512 1.23381421311995
H -1.0575705127894701 0.9710440066703127 -1.0714270552060845
O 0.6977571913781169 -0.09490937072119199 -0.6362279658695971
C 1.5952279851668287 0.3068454480111364 0.34273745717909004
H 1.7946372335048908 -0.48990843454866684 1.0645095573769643
H 1.1700263960493746 1.1778603135080195 0.8526159777510939
H 2.5228673405912354 0.64378246774781 -0.1237706053420751
H 1.6662539111607255 -1.204394688738145 -1.7919532667043279
