12
## STRUCTURE-ID: 64566860fc1e7d5d337ccc1e ; CHARGE = 0; SPIN = 1
O -0.8497347047310103 0.08400681868964101 -1.3265649752398985
C -0.5442265985321946 -0.6454754901056133 -0.17332553421135702
H -3.3713077798855937 2.7473566890244743 1.5936309688728256
H -1.4229607770212245 -0.8525272826750564 0.46290206694011543
H -0.10536560072402501 -1.6326403690667777 -0.40345455157519555
H 0.315489243238244 1.5960057537529382 -0.5432910824841626
O 0.736154819803106 1.2873212973527017 0.3055676452914654
C 0.3882469316556395 0.13817914267815914 0.6361001015150326
H 3.1513177532731094 -1.2410583436559643 -0.356477966774914
H 0.7888394358272953 -0.25984893318338415 1.5684632780676995
H 2.5312718162130077 -0.9425576286891293 0.017641174978820784
H -1.6177245391163755 -0.27876165412199716 -1.7811911253804416
