21
## STRUCTURE-ID: 6456762f4bacba096b2eaabc ; CHARGE = -1; SPIN = 1
H -3.52283120651464 0.3799068234874956 2.0314072287936913
I -3.7888855764699962 -0.27550490848607356 0.5578770373635565
O -1.686645464258198 -0.7045782330935441 1.2976071494114492
C -2.81426149210695 -1.0892407312771775 -1.2178706635595762
H -2.0852534488586283 -0.360449678839304 -1.5489425833627442
H -3.603780762474286 -1.2220388339417918 -1.9468471851304174
H -2.3296905797604226 -2.0221963235370923 -0.9637044861175302
H -1.6843612713013867 -1.521207366793164 1.799996182786883
O 2.3788925665753315 0.10961972955843692 1.6152677176405672
C 3.4665149645742135 -0.12440923139894626 -1.3893563420603003
H 3.295794876778977 -0.32605871798765534 -0.335233071780646
H 4.5020525582670725 0.12406230659216522 -1.5802397682156275
H 3.1341782213790674 -0.9543504784456467 -1.9993169848065218
H 2.875460918599077 0.6628682704072139 2.226555241434264
Rh 0.6748865224863846 1.081367399552525 0.8919447825534239
I 2.2745147767908094 1.5872725782687886 -1.8992643220680852
I 1.3277582778260484 3.320498409488645 2.115255462820826
O -2.0178987482987387 1.91301410979771 -0.04591815621787393
C -0.9254374216658506 1.7117745144176806 0.2944651882509643
O 0.29400216971046805 -1.6747045242447567 -0.1856633964230966
C 0.23499011872160142 -0.6156451135254392 0.2819809686867953
