21
## STRUCTURE-ID: 64568dcc541dae34871aaa10 ; CHARGE = -1; SPIN = 1
H -3.091205676090914 -2.369200735338164 0.6446556750448862
I -2.04499666397094 -1.046097691083432 0.7235735487719939
O -0.9153679016770694 0.9114935286927092 0.6111718188522905
C -3.182610878583493 -0.2954536990110946 -0.9081575432943503
H -2.7609596127002844 0.6708991619027782 -1.1498020011639136
H -4.216793820988432 -0.2144460337533815 -0.5986071576204668
H -3.0452480067859096 -0.9792028368994482 -1.737418167909478
H -1.0079515007323263 1.3956347613602784 1.4329905263741975
O 1.3813529046724553 3.589727404385121 -0.49566951336233517
C 0.9143705253393238 -3.1699968449519806 0.8440967634817528
H 0.5911661141907676 -3.007565128168784 -0.17916114251591977
H 0.07871667195223252 -3.4294482508127953 1.4844613036353371
H 1.7052672413861674 -3.9081981398418906 0.8915286071198563
H 1.3737680538619779 4.415542585133357 0.025732600866652116
Rh 1.1941692000993136 0.7525767365195007 -0.32615983027538625
I 0.24302007364651504 -0.766174339022005 -2.2809895869266423
I 1.7523128091972469 -1.2724931050422894 1.5851169736528914
O 2.4298160913773943 2.835910869499715 1.3350320112527634
C 1.9645580908678775 2.5714415350894932 0.21853600902604478
O 3.8595151186408923 1.8350202028099172 -1.2546935327860709
C 2.7771011662972045 1.4800300185323865 -0.8662373622241402
