12
## STRUCTURE-ID: 6456883c9d8a344a8b630f10 ; CHARGE = -1; SPIN = 1
Rh -0.18973869683239555 0.5263185844236926 0.383449589295597
I 0.40391849810230945 -0.7071800555890302 -3.178642641664508
I -1.9240147486897907 -0.8130437936370527 1.9148891400064134
O -1.0148537468315924 2.796163027891379 2.247659395110607
C -0.6334708998623083 1.956442145913561 1.5771425527134493
O -1.8905633849295502 0.08987892083004152 -1.589142426279231
C -0.7291286119405991 -0.0948271578342335 -1.38338043227327
I 1.654020662992695 2.1320224082371038 -0.615808731538024
C 0.9115726511946167 -1.2498922486952204 0.1454852155904656
H 0.3502660000624504 -2.1621076525259433 -0.06366331707341055
H 1.3523345969558958 -1.328146171507122 1.1535485241533108
H 1.7096576797782634 -1.145628007507179 -0.5915368680413988
