12
## STRUCTURE-ID: 6456668edb39155bf7112996 ; CHARGE = 0; SPIN = 1
O -1.7070317020321304 -0.4371190978988001 -0.4546250401924757
C -1.2930796100632262 0.21223487468829982 0.669133595254646
H -1.5791827190309655 1.2705365982493977 0.706012955798662
H -0.1140168793207947 0.23022991971323276 0.5676844427623629
H -1.5740281514445496 -0.3220654934160798 1.5780127970960705
H -0.9414766297068284 -0.16869321025205525 -1.1330651705091659
O 0.3893194324358663 0.23561314324325378 -1.5358567768574674
C 1.320298682060253 -0.07168572881304779 0.3273435550598354
H 1.98434887426012 0.6156638583785853 -0.16835212891579282
H 1.4492895278551603 -1.1046469635022214 0.052468744801231954
H 1.3531341758256303 0.06741277473028416 1.4067483119960689
H 0.7124249991614748 -0.5274806751208422 -2.0155052862939824
