18
## STRUCTURE-ID: 64568a450366692a2628a810 ; CHARGE = -1; SPIN = 1
I -2.5817904661349464 2.8976944678421637 1.607046203341141
C -2.2902393918595547 -0.10513230564746627 -0.40548213918819187
H -2.7948285065026512 0.6345254755156823 -1.032108454648345
H -2.7031526899372356 -0.0644440500818631 0.6086576227678858
H -2.493594223640452 -1.0964621365122 -0.8148113255043881
O -0.10214858970885246 -1.464941796525815 0.9456642071807125
C 3.0769787195495852 -1.670769309529622 0.01351931169929071
H 3.1669642293843814 -1.8965600804592875 -1.043444775535648
H 2.247293743560865 -2.2093715200962096 0.4601344653025029
H 4.003108528110156 -1.8403242178146493 0.5485104587394863
H -0.49742108973513405 -2.2758998336271263 0.6166109827874242
Rh -0.246316935921666 0.25946237459691024 -0.23872302212093965
I 0.16925249899741207 -1.1046571730056784 -2.4269037519425116
I 2.5833143296725387 0.4334021625682362 0.1985072534396421
O 0.27212154537517447 2.2508605347904367 1.7813172925791685
C -0.6201326238036441 2.0644760691393054 1.0136107227637523
O -0.6973342447266614 3.1356947151980865 -1.1380516545217318
C -0.4920748326794109 2.052446623649057 -0.6940533971392704
