13
## STRUCTURE-ID: 64568c38f709e1042575cc20 ; CHARGE = -1; SPIN = 1
I -1.282934521901684 -2.4863182405660122 -1.0099733411650753
C -1.4512472298765793 0.4797821804137845 0.746927649019032
H -2.296347520546348 -0.1328130504369269 1.0596613888559776
H -1.732951853348653 0.951482404386025 -0.20509320913875584
H -1.257746806321861 1.2662920750106135 1.474752362974953
O 1.4913555552396391 1.6747976155018505 -2.9573496379649025
Rh 0.32140477286980895 -0.5452856831346533 -0.1905979459030796
I 2.591831581442291 -2.0568561085474473 -0.4122030559484679
I 0.35472431888452344 0.1931084519839007 -2.791503122727446
O -0.34875077713385993 -1.089058086964481 2.684312764529492
C -0.1833720034668273 -0.8204136096646009 1.5818349400050007
O 2.2910728706943084 1.6934330532445407 0.008675893884461841
C 1.5029616134652424 0.8718489987734102 0.010555313578816746
