18
## STRUCTURE-ID: 64568b9282beb269a062318d ; CHARGE = -1; SPIN = 1
I -1.5928894282399215 2.5892740791285824 2.0617831402939175
C -1.565991291201042 -1.0048289707880387 1.1103562783500798
H -2.160156561787158 -0.3561319780892994 0.45820614665031933
H -1.9341759274492436 -0.8826605480259095 2.129244436996637
H -1.7227018230699236 -2.030238268025258 0.7774915495452007
O 0.3871146139017635 -1.4018588203895441 -1.0684136350866003
C 0.5284991098371973 1.1177864776793442 -3.11869657760326
H 0.5421737917706693 0.03485944509683953 -3.0509714238724626
H 1.5350971414108137 1.5205094109779165 -3.1340185073855937
H -0.05674613460261309 1.4611516649317453 -3.9621320539568736
H 1.194399835904775 -1.9153927827491313 -1.161932661618118
Rh 0.36622267175862 -0.1045310651923835 0.5784598741961509
I -0.42708803827267744 1.7986389514532608 -1.3083697438496393
I 2.95025553643893 0.5101348774108337 0.14242074845316072
O 0.9456853057518964 1.291473523267598 3.0783050829265637
C 0.3186806035315215 1.1235376613717918 2.100457435533958
O 0.38630877626812726 -2.2919549955903786 2.582684290479789
C 0.3053118180482714 -1.4597686624679689 1.7851256199467502
