21
## STRUCTURE-ID: 64567bd1f39c993d95662c60 ; CHARGE = -2; SPIN = 1
O -3.310921311343461 -1.5045304933886388 -1.7100864578684827
C -0.3875655862578753 0.46043039102043165 2.2621261533533974
H 0.578853096481214 1.8044315332461833 2.268733181627947
H -0.28639724670098976 -0.631901770207674 2.2692009554901613
H -1.0807853816839326 0.69800534160437 3.0772809597278035
H -3.931391365557449 -1.8197146400539965 -1.0439440759558327
Rh -1.3527197064340855 -1.758308923682357 -1.1602796805739939
I -2.059397732953623 -3.2000500381349255 0.9184078394412598
I -1.5307452239946944 0.902412948765149 0.41434895529574767
O -0.45676830659007894 -0.6622034162689452 -3.796152457438031
C -0.8581186686977166 -1.075610212646859 -2.794505181944977
O 1.527881565827982 -2.4368123698945974 -0.7891193233020106
C 0.4057786590205829 -2.133742447690123 -0.8606418323946053
O 1.1893853987334875 2.591688630085373 1.8813837303937857
H 0.6866044729962393 3.4182465655946914 1.9209018692071205
Rh 1.4949632951331222 1.615298980045185 -0.03424631736459394
I 1.348836285814601 3.8579839379399594 -1.2854566807564265
O 2.189268364778379 -0.897127818021128 1.4608572759657892
C 1.8111079487129658 0.08582128142257985 0.9925867741187536
O 2.1278227132777103 0.020076237768015252 -2.46207268160673
C 1.894308729437635 0.6656062824973024 -1.5293230054160718
