12
## STRUCTURE-ID: 64566803ce85c059213ae5e9 ; CHARGE = 0; SPIN = 1
O -1.6443124683381547 -0.0892779344684691 -0.8168785689696597
C -0.21239425758388433 -0.7994877049284981 -1.2225003631757252
H 0.1435161531335277 -0.2349002527715213 -2.078347592064337
H -0.577534494980644 -1.7864419676699592 -1.4667281834988108
H -1.4417602153293416 0.8050189716187365 -0.510692394536723
H -3.2383597262339068 0.31141858027296737 -0.9296634867660104
O 1.2539642913985896 0.3511255298433975 0.3081127169391288
C 0.45753340091952593 -0.6485265627950931 -0.003380364570919534
H 0.22918195996451635 -1.2879815851161436 0.8377051696930122
H 1.7787084434072697 1.1220434163803805 2.799505076804177
H 1.7602075565256312 1.353084203313097 3.5420733349464313
H 1.4912493571168657 0.9039253063211298 -0.4592053448005874
