15
## STRUCTURE-ID: 6456b7b9e4904e6a162c50c0 ; CHARGE = 0; SPIN = 1
C -2.9069206446012466 -0.5735411624002478 0.10341090161481188
O -3.746503454531124 -0.4098905981153201 0.8481914932798759
I 0.9193790546546193 -0.48783714719747884 2.7650395247304203
C 0.8199608643600456 1.8931707309195207 -0.4192591508734367
H 1.2141096718310205 1.5495344296659623 -1.3761731693123498
H 1.6507659422776506 1.950656917926088 0.2893466413362067
H 0.37818270366735585 2.885477547985892 -0.5317918195924289
H 3.5887459788435225 -0.6401112825788339 0.5634813502389444
Rh 0.08565242333801079 -1.0092872781566968 0.325534238844199
I 2.67516978542699 -1.1706466309674797 -0.6285885816480326
I -1.4635146794435756 -3.109100507661762 1.140165605249674
O -1.3120263248375525 1.2296782538396818 0.5101997337555814
C -0.22163786776986572 0.9924406955560154 0.10869222775801177
O -1.0674567670266615 -1.6946713806812006 -2.3501035162126263
C -0.6139066861892939 -1.40587258813413 -1.3481454791679524
