20
## STRUCTURE-ID: 645679f074011308d5493a73 ; CHARGE = 0; SPIN = 1
H -4.835140210861214 -1.9514095868666388 -2.0937480971111144
I -2.0521947372788216 -0.4381486797651965 -1.0077520472942987
O -4.980328157497566 -1.0038296198945607 -2.3574333869168282
C -4.612631229368152 -0.13469655078486492 -1.3515059266860558
H -4.720905347507451 0.9141427004999885 -1.648729585831323
H -5.050568904036032 -0.40780047603847275 -0.3854855026697066
H -4.547114904368551 -0.7682627437881496 -3.2207302536333606
O 4.117018737609379 0.42332747014572786 1.4731232322556218
C 2.6341383871896733 -1.2070710478850797 -0.47736546827023224
H 2.9059224385485045 -1.5549443545870654 0.519699292749196
H 3.283029072687632 -0.38662909865907147 -0.7786425371508823
H 2.76361780911845 -2.0267952681575414 -1.182718201471188
H 4.706755829662033 0.8466719566765152 2.0986730623908447
Rh 2.0913468338696655 1.34303107914327 1.3537042737427483
I 0.6839101628776316 -0.5800775716130028 -0.45806111953221784
I 2.5456976607961534 2.7741489143785456 -0.7702122906020848
O -0.3986637642294919 2.672622986577624 2.294421421843487
C 0.5348182868034319 2.145816509081157 1.8722399967517285
O 2.5940433295892005 -0.7718573345894658 3.416294207545854
C 2.337248706390825 0.11176071612178792 2.704228929889049
