12
## STRUCTURE-ID: 6456695a4745826af24ed2b3 ; CHARGE = 0; SPIN = 1
O -1.852694126644577 -0.617938753118951 -1.5154633954819552
C -1.7676643249339428 -0.06251987721933923 -0.31095794903993257
H -2.0792594209847994 -0.6479106927433289 0.5511264580589449
H -2.09492015780448 0.9721022120097788 -0.32151328096624165
H -0.4297505819389036 0.07553803922298895 0.009983004489149471
H -1.7347823241112084 -1.5821014576674481 -1.5086378720508313
O 2.989257122718897 -0.4582348240733869 0.90205453568052
C 0.6891735636136499 0.40267370128372565 0.19629009566049757
H 0.6539405927090587 1.2014070705606776 0.9277907892361457
H 1.2879348535407642 -0.43841760405396185 0.551375334687089
H 1.068756349578296 0.774058916233888 -0.7482652645688896
H 3.270008454257243 0.38134326956535675 1.266217544295509
