9
## STRUCTURE-ID: 64568ad7b1620f0c14333bdd ; CHARGE = -1; SPIN = 2
O 0.09645925722196642 -0.9447607754947979 2.080836883062039
H 0.30665936828546386 -1.8835976680815785 2.1478263492145304
Rh 0.2557593784356649 -0.06580810472921962 0.37072087867644554
I 1.5185701027692948 -2.195902442573695 -0.6034731447059877
I -0.03318547392088208 2.25888405170716 1.6044114095213757
O -2.1928542804988562 0.7540355103410297 -1.0244737207418662
C -1.1853735564210903 0.17034233697710374 -0.907634397666324
O 0.71976357162546 1.166757041498085 -2.3648562171271617
C 0.5142016325030057 0.7400500503559079 -1.3033580402330438
