13
## STRUCTURE-ID: 64566c26732dcc438f3d7d88 ; CHARGE = -1; SPIN = 1
O -0.9772530900531768 -0.7107951518703371 -0.33096851395787813
C -2.260304863053821 -0.23683313027355773 0.0562300442473204
H -2.471933739097946 -0.481965406197425 1.1007959454452958
H -3.0314469064470906 -0.6606871885846385 -0.5916532685518425
H -2.2522801699418706 0.8463124576504666 -0.055942836267008744
H -0.9864917819566021 -1.672913392796508 -0.23933160424567754
Rh 1.407359449675367 0.42845327228278185 0.3778097544140035
I 0.22720598559653238 2.5284028529881795 1.4297225565124334
I 1.3223948931490201 -0.9840546007228717 2.587922952760302
O 3.221813654425326 -1.65037372090968 -0.7546395875520678
C 2.4888319942161257 -0.8690212466243102 -0.32346433074047237
O 1.7247099936966566 2.0467944589536207 -2.106625694370296
C 1.5873945797914737 1.4166807961042867 -1.149855417694106
