11
## STRUCTURE-ID: 6456884d3915ac4d8a4d91d7 ; CHARGE = 0; SPIN = 1
Rh -0.47094829448302344 -0.6812682491581673 -0.15546487199418754
I 0.18845463305424826 -1.5484688435781695 -2.46643419098131
I -1.3057456424702423 -1.5643709476590923 2.0912574076825416
O 0.05982018291414308 2.2509149201863554 0.03673402246466271
C -0.6307211655558344 1.3180421017297104 -0.19897387654526058
O -2.9195406432510906 0.6014353764337588 -0.9692980525784901
C -1.8086424100954182 0.7418618023261588 -0.5957532681523625
C 1.4928231810049715 -0.3030851230987346 0.48996253357350644
H 1.4657276383176625 0.22160407356677242 1.4453299695337438
H 2.018186663839773 0.27361059160750817 -0.27182527629705816
H 1.910585856724799 -1.3102757023561171 0.5944656032942272
