12
## STRUCTURE-ID: 6456675d2a1e886e887c7c40 ; CHARGE = 0; SPIN = 1
O -0.8356942765087612 0.36185141462067066 -0.1687964023384713
C -1.4314513609881687 -0.21632653015984016 0.9215863437837084
H -1.1342878925083628 -1.2693861989050355 1.0588032550527287
H -2.5244517200991283 -0.19261311078404564 0.7982733442144168
H -1.1965128114186216 0.3326881328996288 1.8486699434322076
H -0.1555813752807568 -0.4331864441508467 -1.1362278736614828
O 0.7675577776662579 -0.6881596373297382 -1.5377612611166103
C 1.2608732908174425 0.46555455604006735 0.010608958156493355
H 1.0678840670335688 1.5030744034647103 -0.19554581552171835
H 2.2328205578550953 0.11344289477863885 -0.3077844284591591
H 1.0253828202067254 0.146180456545683 1.0114432959787127
H 0.9234609232247118 -0.12311993701987146 -2.3032693595208245
