12
## STRUCTURE-ID: 64568e1ca2ed156a094dd530 ; CHARGE = 1; SPIN = 1
C -1.3243620893533259 0.6229643880241269 0.396947409684007
H -1.4695585361001717 1.6718497739982174 0.13412748012124387
H -1.725527954161801 0.4067945040331578 1.3910543178484267
H -1.8672205341113626 -0.01850262844963994 -0.32535915235803947
H 1.0689626334766482 -3.5348572372457854 -1.044011800371679
Rh 0.5652804854792252 -0.289442549315255 -0.13459515036476818
I 1.1683411554469736 -2.212860461222485 -1.9190041086936347
I 0.53077355524254 -1.9703783337213696 1.86479341107479
O 0.5900306354395813 1.641625568703201 2.1319966034211526
C 0.438429221694883 0.9280956514525882 1.2659845259729399
O 1.1468452779224956 1.7549976969295367 -2.2762565389431506
C 0.8780061490243144 0.9997136268137053 -1.485676997391282
