18
## STRUCTURE-ID: 645689b8ea163f741d09291a ; CHARGE = -1; SPIN = 1
I 0.9223696567862442 2.6760271525907116 0.44927427115298285
C -2.445007466576367 -0.07518923642765468 -0.41392867040682857
H -2.488028671232327 -0.983187578758821 -1.0160010539374917
H -3.4426035150079013 0.2686749387192179 -0.15133535740910412
H -1.931459295800889 0.6894660968853167 -1.0250386711197872
O 2.6210843834564783 -1.382914747471794 0.2546360013062563
C 0.9667186529996528 -0.6813780838595209 2.337825586665301
H 1.292812412009028 -1.6304146521967648 2.7411477307098973
H 0.08253713334156439 -0.30612859261563974 2.8386971824958716
H 1.776631941432456 0.03726099194551762 2.356907181928691
H 2.8956789156983507 -1.9748848461802224 -0.4454301504824555
Rh 0.6761337124617139 0.8648859744768987 -1.455385890390015
I 0.14836765418014058 -1.0409718127268177 -3.196609451126729
I 0.4651046055665877 -0.9911642130937169 0.32151611822963144
O -1.9364707150532765 -0.15739023838995075 1.9346803567480149
C -1.6146172949177482 -0.3299297428336628 0.7895865510690484
O 1.103682759146382 2.904209196707486 -3.570163475504975
C 0.9070651315098863 2.113029393229393 -2.7503782599283295
