12
## STRUCTURE-ID: 6456673003d12c5a38233638 ; CHARGE = 0; SPIN = 1
O -1.2413304618560281 -0.8918105189794812 0.07747758457146572
C -1.587193903226594 0.13205827152756813 0.98924307456212
H -1.174201348039784 1.05824197998909 0.5935204629972716
H -1.1597480910584352 -0.05599725167881925 1.9781462191995107
H -2.67152154321775 0.23663275534604647 1.0755391066046256
H -1.624610106526829 -1.72387458135897 0.3804241161508612
O 1.5198211503697396 -0.8609217861190231 -0.6705689624388037
C 1.776940333002632 0.49737958528930065 -0.9366812310863346
H 1.5797806811371327 1.121815979866139 -0.05855767481913105
H 1.1765179036182165 0.8619040689116202 -1.7763598269569267
H 2.8321127613744617 0.5776459543571614 -1.195738225268311
H 0.5734326244232529 -0.9530744571506315 -0.45644464351636754
