21
## STRUCTURE-ID: 64567894a27ee91ad44dd53e ; CHARGE = -1; SPIN = 1
H -4.034456793700477 1.3973854771324146 -0.19742485423295225
I -2.3969591453122425 1.735681937398053 -0.03497303729203838
O -0.7735562977858381 -0.33537272439501636 1.6686261205076507
C -2.0957338609739598 0.1242191850938651 -1.3930530330290238
H -2.4556153746325435 -0.7823843942168452 -0.9221074208173093
H -1.028586895237987 0.06639502218977318 -1.563139212667769
H -2.6284977913628547 0.3484489719971115 -2.308781637971002
H -1.391406052129602 -0.5419081009523845 2.399814902233241
O -0.15408976513934708 2.02055950232888 -0.1158565990547894
C 1.2519345209537012 -1.8353406693498135 -1.1711372618202789
H 2.2096343678654766 -2.3045320289268214 -0.9813226109373929
H 1.1600905119906322 -0.9203136033360126 -0.5451155763256066
H 1.1441468011834923 -1.6069814042775235 -2.2241895730983994
H 0.06556821198076579 2.7177532308533574 -0.7428695475783252
Rh 1.5454710436981625 0.9196835903342095 0.7036895102993008
I 3.0767540731682006 1.730585302966115 -1.2976580670530475
I -0.2789196440496095 -3.1950627541690504 -0.608954119352946
O 0.25498329716394746 0.7535763069098989 3.3081112253249967
C 0.2748599871453693 0.4325981522529266 2.118097007283016
O 3.49272398504826 -0.6804620745162586 2.2834914454679898
C 2.7616548201264597 -0.04452892531688219 1.6247523401146806
