12
## STRUCTURE-ID: 645664b910579e255a610abb ; CHARGE = 0; SPIN = 1
O 0.006912591841952478 0.1821094122961134 -0.016263228466622114
C -1.052382534922457 -0.4598034392939353 0.6599640159987992
H -1.8275029603449242 0.25910457632862205 0.9460205703661365
H -0.6905232038970471 -0.9692996353232919 1.5598969584518245
H -1.4695291092028917 -1.1882835155804439 -0.03132811610003588
H 0.34841815801786147 -0.5251884097687618 -1.8253680178951965
O 0.5249794862922855 -1.081634977928789 -2.5960729635144535
C 0.625431280252507 1.1853473161225747 0.7584189477016446
H 1.0608138669107645 0.761585863048218 1.6701379810345145
H 1.4112024167671982 1.6177326743900966 0.14348252416537388
H -0.0931307123480929 1.964002832088659 1.0363753188570977
H 1.155310720632851 -1.745672696379053 -2.305263990599086
