19
## STRUCTURE-ID: 64568e39742263504f610aa4 ; CHARGE = -1; SPIN = 1
O -2.3619483616308075 0.6331131482596105 0.5529572756518886
C -1.223217748179773 -2.1131671669586756 -1.9633624188506549
H -2.0245728991545344 -2.792693176770649 -2.248607530000838
H -1.256875178206097 -1.199570089071315 -2.553251065264403
H -0.26095350195814243 -2.5945779819102857 -2.138958839532537
H -2.869140776739264 0.6165648597972212 -0.2603127971173871
O 0.8865987972719571 1.7997797975275465 -0.565158588029467
C 2.348043126495453 1.5353307350377758 2.542359550292117
H 2.567053414854511 1.6238380021917367 1.4847634134425418
H 2.8211835158436602 0.6528439358991576 2.9571527850195323
H 2.6189739966751713 2.4315805191329516 3.085753126589613
H 1.0946298125540017 2.455995594196824 -1.2603575687673636
Rh -0.525537442709314 -0.3084954753990958 0.44541585796101474
I 0.18365572291848833 1.2834149585331356 2.72565698417324
I 1.7595657842603816 -1.590592622521371 0.44623976447970665
O -1.9003423203715175 -2.4968730655865943 0.3144695816600232
C -1.3196762715617816 -1.7978188002066313 -0.4990894796705585
O -0.5064174393048524 0.9560437948380709 -2.0927180322373333
C -0.031022231057523646 0.9052830330105927 -0.9729520197991451
