12
## STRUCTURE-ID: 64566a1b8fd7c76405399e4e ; CHARGE = 0; SPIN = 1
O -0.8964968013399732 -0.07271321050838953 -0.4119549988408659
C -1.8176200691716804 -0.7780048363678896 -0.729437712796943
H -2.599154174552491 -0.43894009645742627 -1.4159742917961946
H -1.9298092319760676 -1.8012576549405572 -0.35121161330604866
H 0.47268735611404705 -0.18160482694796173 0.4424301131930196
H -5.682590707898089 0.34156255963163107 1.5439165416620855
O 1.4144560127780461 -0.08088282047716132 0.82168227247566
C 2.251446415623271 0.5330758703922704 -0.19227184055746926
H 1.864885264979585 1.5039394626533613 -0.49506493039775445
H 2.2703501643540918 -0.13670227437448215 -1.0481158905816983
H 3.2566308055106394 0.6310053179189818 0.2098546355982869
H 1.3952149655814747 0.48052250948286745 1.626147715342811
