12
## STRUCTURE-ID: 64566b3d7122314e352c50ce ; CHARGE = 0; SPIN = 1
O -1.4806131739079178 -0.28798124260846386 -0.032868153153356824
C -1.3252066868639145 0.3904017568535986 0.9559917993157347
H 0.8324398095672628 -0.20029398172831717 -0.754205396348264
H -1.4472514944049715 -0.014202347587934315 1.9702037774970143
H -1.223638030119859 1.4829500672662361 0.906115865144455
H -1.3414407306112812 -1.2825643623841303 -2.4117366955057715
O 0.8516714531400975 0.2704752119538967 1.2629722982974383
C 1.4238528434621966 0.3673125935413853 -0.02773248461914861
H 2.453021519096163 0.007266081263347968 -0.02791409313801214
H 1.4085265898789487 1.4201117807435637 -0.3028339278565382
H -1.1262585152785614 -1.5193486833876975 -3.1218341199005373
H 0.9748964160418454 -0.6341268739254979 1.5838411302669977
