13
## STRUCTURE-ID: 645689e4d46b965f4541e57d ; CHARGE = -1; SPIN = 1
C -1.372141534837774 0.36422575897324183 -0.03187075148530735
H -2.0148029938761036 -0.4924166902816877 0.16478318245797055
H -1.5708754205943714 0.7529998241684076 -1.0292580495630148
H -1.6565449946633617 1.1524597287154514 0.6924540282753348
O -0.07759166739943953 -2.018876700738676 -0.2480128086249073
H 0.033903647856730036 -2.696178829691626 -0.9429115691284603
Rh 0.634430666223698 0.3949399248352177 0.7921011122821123
I -0.2606334093102585 -0.908448496647153 2.887388858378261
I 3.091920113513069 0.5704189389705359 1.7639191289614593
O 0.38292913570407233 -0.5701488853576892 -1.8834680597980467
C 0.11964328345216706 -0.7780918541392282 -0.7146929829287889
O 1.5172745293508385 2.547146578150953 -1.0616657567176633
C 1.1724886445807363 1.6819707030422693 -0.3887663321089507
