12
## STRUCTURE-ID: 64566487d2af5601ab1aaa18 ; CHARGE = 0; SPIN = 1
O -2.742855046460164 -0.5331925042889387 -0.4452887745003733
C -2.0108511714216135 0.36173967137940083 0.367817961016261
H -0.9390114736265948 0.3043545194316658 0.16331177145699013
H -2.1975291564632373 0.06840331120342946 1.3995437908608357
H -2.350744651696788 1.3927425350756548 0.22569034441010977
H -2.535286850765026 -0.3445008374787443 -1.3679374226722651
O 1.3244320802922123 0.25855001634721125 -0.6118018010181817
C 2.250429310524999 -0.368822555893834 0.2481502229189412
H 2.6180517635732934 -1.307410286737615 -0.1769487403861584
H 1.7206611859658147 -0.5844565296915903 1.1744790246142025
H 3.098768897685815 0.28588441305695667 0.46807298535819825
H 1.7639351123913167 0.46670824759640805 -1.445089362058572
