12
## STRUCTURE-ID: 645668c6acd5652c3732dfd8 ; CHARGE = 0; SPIN = 1
O -0.7446599667699833 0.7894135940781835 0.9533463134682426
C -1.6708372227926735 -0.27498920708745445 0.8818376265338922
H -2.3981816746276907 -0.22513357815901586 1.696123092061295
H -1.0987961197622802 -1.196211097890139 0.9772192144346349
H -2.1982054197198146 -0.2797225972639355 -0.07663408868894667
H -1.2208582581606344 1.6265522765325788 0.8973461316253437
O 1.8858232435408708 -0.052480831060197054 0.14573633545416992
C 1.6287826815628645 -0.14648001783847459 -1.2362723829825444
H 2.522915025201404 -0.5631920586686376 -1.6987516762141304
H 1.4276159309278773 0.8373640734889185 -1.672794674474704
H 0.7811841360266908 -0.8078970623276294 -1.4427039865811
H 1.0852176445733421 0.292776506195809 0.5755480953638654
