18
## STRUCTURE-ID: 64568ba61b5e70329a4975aa ; CHARGE = -1; SPIN = 1
I -0.10357930178008931 -2.2691286011266363 -2.230702439109489
C -3.019709114956435 -0.7535860299821368 0.2652879371775567
H -2.462851886465521 -0.4151530071099959 -0.6179433468744386
H -3.463865555456774 0.11274692004655965 0.7551505615818107
H -3.814603622494443 -1.4320522512561127 -0.03119842129683777
O -0.8022792865433253 -1.2116330129915114 1.0059146869261164
C 3.479748909036011 1.5431929765316177 0.23874219582154954
H 2.6373814505224624 2.1218598495970884 -0.12344164936272467
H 4.270286355629716 1.5063027068145063 -0.5002471131718921
H 3.8354381960132793 1.9300972097420743 1.1853808911523043
H -0.25259122482887686 -1.6730330864652894 1.6721513022769445
Rh 0.11296599288039422 -0.023507693734399013 -0.7887843978941687
I 2.8036207952338073 -0.47387487361588676 0.5702806482868159
I -0.4964835440407805 2.2192875894934527 0.5232372321865758
O 1.128609879707659 1.4904835063718362 -3.113488049738402
C 0.7135464225982876 0.8929796136804287 -2.205299776979852
O -2.4559957508448447 -2.1275844809227293 2.1606024144211755
C -2.109638714210516 -1.43739733507287 1.2343573245969761
