8
## STRUCTURE-ID: 645663a3489964404f5eb01d ; CHARGE = 0; SPIN = 1
H -0.7021592275353392 0.8004047062894588 -1.1619616785268023
I -2.1990567792907747 -0.5927680468065999 1.1836078230163427
O -0.007654427615073679 0.117589585555237 -0.9822322054665907
C 0.27657864881973776 0.023344537030063624 0.38011361595863663
H 2.0511732974123764 0.4179405015538172 0.19267183431845428
H 0.6027331097145564 -0.9099938877124997 0.7811558739670249
H 0.21787514124581292 0.9060441700825352 0.9771616151144991
H -0.23948976275130157 -0.7625615659919925 -1.3705168783815864
