12
## STRUCTURE-ID: 64566b3be509b8707c6f2cae ; CHARGE = 0; SPIN = 1
O -2.119651167664824 -0.025426555390661253 -0.25077217057053525
C -1.3137657044178694 -0.5915235360652692 0.7633394910202966
H -1.945767294264398 -0.6121131435310349 1.6552602658677824
H -0.2909072201661014 1.2287390015830095 1.300724925855085
H -1.05494004884167 -1.6278158358214418 0.4998185871667111
H -1.5710433465021296 0.09569354083832354 -1.0361222612259624
O 2.1197739165633416 0.37612132050555663 -1.7414604385606274
C -0.04244847918190928 0.20670207930569828 1.0244048035855184
H 0.5815053186134407 0.22599684338846854 0.13269764892154448
H 2.995214509054574 0.6755594564836495 -1.482426452276676
H 0.518608718840489 -0.2512625949154719 1.8338466849615327
H 2.1234207979670634 0.2993294236191783 -2.699311084744672
