12
## STRUCTURE-ID: 64566782fb127933f96cd4b6 ; CHARGE = 0; SPIN = 1
O -0.39737914135207025 -0.2495854952481019 -0.8518592695809878
C -1.6874655462330532 0.3675031314978809 -0.8987117076360926
H -1.592041932615784 1.4529598492999154 -0.8166042431149666
H -2.3306744222867137 -0.01782865669927923 -0.10669687706428448
H -2.100306286182475 0.10684750890960511 -1.868244206734672
H -0.17174479473983056 -1.7514322176662918 1.3758858082475667
O -0.20568844921900942 -0.7855431485499134 1.4605634609466045
C 0.2734112065192305 -0.12135827387521751 0.35119243592132016
H 0.08622905447691213 0.9901585855878708 0.7054409253439331
H 1.2908139480327612 -0.6272652133169021 0.03859288188448966
H 1.2818327120191493 0.566294151150429 0.4517147729483032
H 5.553013651580889 0.06924977890999678 0.1587260188387739
