18
## STRUCTURE-ID: 64566f342490336a1e6f2ca3 ; CHARGE = -1; SPIN = 1
I -3.1539436964501695 0.07092854636176504 -0.46303706315978976
C -1.1874573084255526 0.6978473454808802 2.2442817259592776
H -1.1522915036987118 1.4542348967601346 1.490879437186933
H -1.1887257114959402 -0.3400119343005024 1.9904116345481275
H -1.4260131608741309 0.983477428814754 3.246191144562063
O 1.8887480572498927 -2.284942092557714 1.6077865930139374
C 1.5176379333942391 0.255367436476243 0.7844483198590865
H 0.9371519035897278 0.448900654421087 1.6932810007021657
H 1.4406422151300904 1.090929597792668 0.0963598974681856
H 2.549422602497329 0.01618709728450115 1.0082966223561447
H 1.748144072026618 -3.229024685076533 1.6843603785724823
Rh -0.9832047283428131 -0.01635072392759995 -1.9946419804810451
I -1.5024872714871194 -2.4572909598473065 -2.9281739807255125
I 0.6486903101393394 -1.4555036273057054 -0.14942153740565114
O -0.6684485789419505 2.852432065971595 -1.214884770867533
C -0.7834583276579878 1.7549795336467884 -1.5490665659250713
O 1.060694061513149 0.0845109208324629 -4.183986382524415
C 0.2548991318340328 0.0733284991724899 -3.363084473139401
