12
## STRUCTURE-ID: 64566622c0d04073de159876 ; CHARGE = 0; SPIN = 1
O -0.41373630999214434 1.2269043818510004 -0.9434793635802866
C -1.3117167526644116 -0.22635642970447054 0.2883982487887337
H -1.5191940477854409 -0.8029894977655861 -0.5968791316524188
H -1.940655767324713 0.6367522454045454 0.42512787989094414
H -1.3041179154085785 -0.845832580376485 1.1837299829196113
H -0.8089061308777497 1.0011699963012808 -1.7858578308157416
O 1.6530662677471086 -0.07868092302556907 -0.7535408916400173
C 1.3242450899245035 -0.3427056556989541 0.5417246488878316
H 0.14763564601577023 -0.21689216914512605 0.5664341918800737
H 1.692425813595079 0.40192024166019863 1.2581236556184208
H 1.5898130428305668 -1.3601932724101387 0.8327330727127519
H 0.8911410639400223 0.6069036629093109 -1.0165144630099165
