21
## STRUCTURE-ID: 64567575450d1a10ef293434 ; CHARGE = -1; SPIN = 1
H -2.417669439010521 -0.7142346315212603 -1.547219478661932
I -2.5016944424359657 0.4933670130214515 -3.989609244690344
O -2.300151514165031 -1.0727030298200824 -0.6571025074553788
C -0.5278742037768539 -0.45076348436495595 2.0234955383148368
H -0.5909968453443849 -1.1201901723881367 2.8836791621792477
H -0.472898615645088 0.5868230289903043 2.352445566020625
H -1.363697241353764 -0.5959651614887013 1.34354417492088
H -3.0495791584093292 -1.6584464490601696 -0.5125998872501066
O 2.148512780482744 3.194351027005005 -1.3103585280026349
C -0.036633165266079765 1.5923574630581265 -1.260202667549575
H -0.2941613876813027 2.633721285727459 -1.3896185581106095
H -0.8538541188604881 1.025123214439579 -0.8342333068261566
H 0.2759290964672709 1.1792208315026727 -2.2105366482717588
H 2.9366301690628553 3.6456120340869926 -1.0067318466342863
Rh 1.2960281120639037 -0.9006848299784038 1.026096359705686
I 2.8195488309718493 0.013179532061879072 2.9041261223595787
I 1.6032740541525183 1.5098890272949632 0.06228162811551105
O 0.3197639187034696 -1.731960618611709 -1.6481879337239487
C 0.5126431317993171 -1.4028192323911726 -0.575763547653845
O 1.129479514859463 -3.5404482015306353 2.526602891083688
C 1.3674005233854314 -2.6854286460332144 1.8198927121305313
