16
## STRUCTURE-ID: 64568d6804c2485b130b3f60 ; CHARGE = -1; SPIN = 1
H -1.8305409925297946 1.2827335485953693 1.3729307125297665
I -1.1473097172585403 0.5168725800187355 0.1194891443849131
O 0.7777093173688795 -1.8288555444866756 -0.5716660487906969
C -3.4086560748705583 0.13402394307404772 -0.22271297720541083
H -3.872019954334491 1.1046877675473463 -0.36204647098986764
H -3.785004572317803 -0.398698825631828 0.6451872680820622
H -3.4711375979266537 -0.4672607259342333 -1.1224318056347127
H 0.08267795683309337 -2.3727097287197862 -0.14710751056459773
O 3.0719996755186303 1.688675908902686 -2.7069899467082004
Rh 1.524407516785517 0.8225845629397934 0.6257002863039838
I 0.8776340695721648 2.2297212340458037 2.6998225166069956
I 1.4197975012282946 1.512836285403587 -1.8699132039610469
O 3.8838774473869693 -0.5883900146948042 -0.35566525931800896
C 2.708728837268832 -0.5024493102473214 -0.05465217290748113
O 1.5273407454470518 -1.749629027764266 1.5700020558660253
C 1.6404958418275155 -1.3841426530480654 0.38005341230635753
