12
## STRUCTURE-ID: 6456883c805ea828ff2cdf8b ; CHARGE = -1; SPIN = 1
Rh -0.2139371027199043 -0.9785380600719205 -1.355644888965364
I 1.4887162192820125 -2.9215204443265117 -1.7219948812113959
I -2.188758017213456 -2.6495325621212764 -0.7694145547569331
O -0.8075305738718938 2.2102001351800835 1.4454856736429393
C 0.05945568257886052 1.463792858414482 1.6573259792344097
O -2.280860866251513 1.1540016092719292 -1.4656168967059158
C -1.4762327002437554 0.34074916877568673 -1.3820491254140725
I 1.4414303102016104 0.8296633310270187 -2.363659462060545
C 1.0139092204276614 0.6207551955620565 1.8721863383640902
H 0.07724094901870264 -0.648878567766147 0.08676698093546535
H 0.9181416455684733 -0.1585543369344665 2.604395486694906
H 1.9684252332231928 0.7378616729890605 1.3922193502424147
