12
## STRUCTURE-ID: 64568828a6fcd1203c6cd4a4 ; CHARGE = -1; SPIN = 1
Rh -0.46170952590031494 0.37664509968155135 0.07330586813637557
I -0.58991020129861 1.758772030780014 -2.236700289069368
I -3.160048269106232 0.8716883695904174 0.7859275629275908
O -0.3516904130732983 -0.9952173462881618 2.723605464626931
C -0.3716628189881417 -0.5043078062943147 1.6952247807538299
O -1.6216989758361744 -1.7644755837952208 -1.6541470577646034
C -1.1514909260837904 -0.9738601966875564 -0.9813898056736841
I 0.5048746385841109 2.4094037811432116 1.560161823748997
C 1.5317065494757298 -0.22596888103189808 -0.4216727070419922
H 2.1228658589242397 0.6725580628664681 -0.6070566414664654
H 1.5482721553895595 -0.837448453707024 -1.3264138990473169
H 2.0004919279129285 -0.7877890762574913 0.3891548998697055
