19
## STRUCTURE-ID: 64567a010a731c7d91224146 ; CHARGE = 0; SPIN = 1
H -4.404467794181951 -0.28255740619436037 2.0987754184528886
I -4.365314794677646 -1.3816266056354622 0.9576144732577416
C -1.86910574932477 -1.0964922355718396 0.8761826762206726
H -1.7919049640566944 -1.1988112556052994 1.9518479170623284
H -1.6803952857842825 -1.9617404467691166 0.2528430659450396
H -1.9427282033256483 -0.11682224153944994 0.4159682385856396
O 1.4555542260918586 3.5449826754375473 -1.86333402294843
C 1.4683032056541754 0.8626190941873274 -2.367353039522407
H 1.5030553186586144 1.6823223256780537 -3.068116515798629
H 0.7438286195985483 0.11699408123986274 -2.6714252630127877
H 2.4542766072402302 0.4264275873215766 -2.2565463820709555
H 1.3195045280094297 4.370775991743648 -1.4024555397102298
Rh 0.6105134120562994 -0.44791006432008423 1.0031188428298887
I -0.1518513020450547 1.3922961489084078 2.6720502543583646
I 0.8847814829846292 1.7014119809361434 -0.5192923345643684
O 1.7432667240322206 -2.13355453907402 -1.1891338869819565
C 1.2481185046955654 -1.5081246201317864 -0.3662786312193344
O 1.7179281199061684 -2.2708848701247613 3.1035979776005527
C 1.0566373444685326 -1.6993056004864255 2.371936751515756
