18
## STRUCTURE-ID: 645671d297e3eb10b41f8bde ; CHARGE = -1; SPIN = 1
I -1.307260552018964 -1.8838353479551646 -1.051125124777061
C -3.25607463237797 -1.001931792866871 -1.3632908697314332
H -3.416452020473851 -0.9479819651585843 -2.4360021634542846
H -3.2021592852792873 -0.00932073261953916 -0.9189252531803027
H -3.9808877232188395 -1.6503497462342707 -0.8787581527047809
O 2.4423877080467693 1.7436159020117206 2.3122526272237782
C -1.6270928601766406 -2.0935704158079336 1.0462680169086
H -0.7050916279619507 -2.49127581663695 1.4563043242637654
H -1.8211421845126863 -1.0921325613261164 1.4197327363001826
H -2.4625502513588042 -2.7740849317761955 1.1756103942153453
H 1.743752560955471 1.2417596639306598 2.749841448489277
Rh 2.3629078657383458 1.5178614832595725 0.2018760897186416
I -0.3663628818503924 1.6551311659274104 0.2174596652822209
I 2.2398951947710892 -1.2536883100303298 0.436084955326501
O 4.645307292678474 3.4589271496335603 -0.09231873333548692
C 3.766590230180392 2.713601348696592 0.09811155085351096
O 2.523972170925606 1.432122058893946 -2.7675905746610168
C 2.4202609959332646 1.4351528480584375 -1.6055309367371746
