13
## STRUCTURE-ID: 64568d5c7c4d1c55556dc157 ; CHARGE = -1; SPIN = 1
I -2.7967218582089974 3.8377727135317588 1.562056412398972
C -0.9090875853978779 -1.7106272728712943 -0.09477694999832223
H -0.7495083870182871 -2.321615509669934 -0.9825420838896832
H -1.3352783061196842 -0.7294013587989956 -0.41632918583537676
H -1.62061155188892 -2.1964884797174973 0.5725151866415258
O 1.1465213329907993 2.0110977209565104 -1.5413695753705903
Rh 0.3882038964224766 0.39349533297365175 0.4482363276561596
I 2.4401742523235006 1.069497068019634 1.9013924076236592
I -0.689897098624726 2.8979394045300673 0.09135153632863972
O 1.433033138303593 -0.20657800535899706 -1.946556565064418
C 1.150537047803832 0.8021243622809326 -1.3471107143348
O 1.1349723932836808 -2.3261895507324706 1.1265277040055868
C 0.4076627261305448 -1.5210264251433938 0.6266054998386852
