8
## STRUCTURE-ID: 645663c94f69a51cd0408600 ; CHARGE = 0; SPIN = 1
H -0.80160080663636 -0.8480711497034521 -1.2337240976054566
I -2.2856254593464 0.2728896384917048 0.8502790910287008
O 0.06433292789775691 -0.4170188320517896 -1.2483746861010019
C 0.648585953556554 0.11877356139927676 0.7360423363325209
H 0.49771470973161425 1.1649757444931064 0.9148675473308737
H 1.528439771498413 -0.1505321766864819 0.17977516156613244
H 0.3805273630289487 -0.563414484630137 1.5178603839148144
H -0.032374459730534086 0.42239769868777177 -1.716725736466582
