12
## STRUCTURE-ID: 64566a3d1804443c53071031 ; CHARGE = 0; SPIN = 1
O -1.162971390676229 -0.03400716693430323 -0.6507888850588438
C -2.2749752891492045 0.3056258448836523 -0.3542708413768071
H -2.8447861799011496 1.0297572602758611 -0.9522019024404057
H 0.6591306334410766 -0.5000466898653438 1.1221394429000917
H -2.787265566857666 -0.08922624845042754 0.5335816069252475
H 0.006073919367164399 0.3930045502098339 -2.2190359732432436
O 0.5815708332632211 0.5740577934959994 -2.973944503891417
C 1.420614353865952 -0.44749042687497886 1.8894292978968132
H 1.8646805750240216 -1.4248424264671329 2.0265226134859224
H 0.9751303547364991 -0.12010917782577328 2.819725358748279
H 2.1852825401471128 0.25750256026838075 1.5901734365740554
H 1.3775152167392108 0.05577412728423315 -2.831329650519693
