16
## STRUCTURE-ID: 645679260391e84fc85c71b0 ; CHARGE = -1; SPIN = 1
H -2.507839429469929 -1.751967495163976 0.9920898793677616
I -0.8873644473950267 -1.4690083011383785 1.0532651935427972
O -0.7464972534186389 1.7133638535884856 1.4043070358990888
C -1.5975780137584885 -0.2047093808254976 -0.9775011992749032
H -1.859326608093683 0.821568113358057 -0.7397489786723626
H -2.479556792375461 -0.8112581086393359 -1.1270483750174831
H -0.9776500440485317 -0.28062056931232443 -1.8717242503438367
H -0.9245247202526842 2.422246497149422 2.055205169765069
O 1.3983048542136183 -1.4633981306964126 -1.6956218297790908
Rh 0.8643049217680051 0.05392679612121212 -0.07691273091019783
I 1.165652974312384 2.136664451459373 -1.8280023724565035
I 0.5394995996742571 -3.201775743133113 -1.8116595965251914
O 3.5678516826194433 -0.8788108009968955 0.7510923053360132
C 2.490084582205688 -0.49211498723190283 0.6048740853952204
O 1.3967256529747822 1.9831167161238892 1.972491570761238
C 0.5579130410442715 1.42277708933739 1.2948940929123904
