12
## STRUCTURE-ID: 645667176f8d141339304576 ; CHARGE = 0; SPIN = 1
O -1.4968619403188033 -0.5478445533480353 -0.8761136200720387
C -1.4317283403595336 0.08016216527381813 0.33097063161252543
H -1.8799422907733665 -0.5155946166882529 1.1276674949654706
H -1.8103985600688166 1.1096234021377533 0.3213163980200528
H -0.27068796611667995 0.1959977687211426 0.527480635565259
H -0.6128380091984399 -0.1892377019668998 -1.3346368199980883
O 0.7332958264687763 0.3349754381416583 -1.3841920270772028
C 1.2004418344197478 0.016622620893443633 0.6436791551055471
H 1.9063080883219339 0.7725376341640345 0.3444825253894871
H 1.4785630852337517 -0.9911705908853243 0.3862857279858683
H 0.9546472874821906 0.11217621883951065 1.7000490541552884
H 1.2292009849092456 -0.3782477852828456 -1.7869891556521738
