12
## STRUCTURE-ID: 64566860fc1e7d5d337ccc16 ; CHARGE = 0; SPIN = 1
O -0.7376258371060334 0.06948678006045107 -1.3816772036048202
C -0.5155335566316152 -0.6760534705424424 -0.1926748615026355
H -3.378736460877135 2.6149140972860576 1.7917839472009052
H -1.4250784947208184 -0.9125628474827796 0.36423969013011687
H -0.009554161152479037 -1.6153229451448612 -0.44925312363533754
H 0.013550706637742906 1.0299431252383866 -1.0202520650662836
O 0.6898065090546897 1.2568673161526152 0.06295504648811572
C 0.39257792950813736 0.20950838877121838 0.6134453882226247
H 3.25914175044176 -1.295015529613062 -0.12028832233602683
H 0.7427719941624927 -0.06793046208325364 1.6027094883799395
H 2.6315912579761984 -0.969795318541937 0.2115008295627503
H -1.6629116372929478 0.35596086589960335 -1.4824888138393506
