9
## STRUCTURE-ID: 64566fd72ee225379c4dd52d ; CHARGE = -2; SPIN = 1
O -0.46307193639591765 0.31574304982603874 1.8861119495706997
H -0.2983674878668963 0.8599667393298521 2.6782269962624956
Rh -0.21713209716961582 -0.4773729198188355 -0.5803512344436038
I -2.856968954029159 -0.47082303375684187 -1.1954222798895469
I 0.1396052854879983 -3.0312834706872764 0.24313990714033185
O 1.176010782274199 1.5889077273883943 1.0286888507589727
C 0.3711921649938753 0.67959017303053 0.8396981586601727
O 1.334281415774817 0.3249106997222429 -2.9772900344197
C 0.8144508269306912 0.21036103496589875 -1.9228023136398247
