18
## STRUCTURE-ID: 64566fb5778a3638804b65f0 ; CHARGE = -1; SPIN = 1
I -2.2551752057302856 1.3419746259385898 -0.38037142712696037
C -0.46217165683373745 -0.21197775485975567 2.0582963305746254
H -0.6967922093803346 0.3675503487808412 2.939693137670233
H 0.24574423922253658 -1.1686833483147063 2.4584287168964516
H -1.2108281373496552 -0.8977777574740181 1.6706210416632965
O 1.3136449251725 -2.1392470231497573 2.2894841136787587
C 0.6716534710761821 0.3148635314588971 1.1951593878108548
H 1.5879219832193914 0.41366604527537104 1.7730390341284994
H -1.4815356779115787 0.5712901100204314 1.16536888595302
H 0.4939439120994937 1.2401081596859047 0.6384669562888925
H 0.9074547417388651 -3.003418021239557 2.3472725294501147
Rh -0.08763420427759909 0.17575424986345928 -2.3015906496096195
I -1.4922660540419468 -1.9427977342420917 -3.060053530159231
I 1.0777961605943112 -1.2075176138085961 -0.30050904893540836
O 2.0075134749402936 2.255278444251813 -1.8200878200123567
C 1.1846781919042728 1.4702820619745833 -2.0089714574977116
O -1.100533617265376 1.439316718700046 -4.820046791421593
C -0.7034143371773218 0.9813349571385445 -3.8441994093518197
