18
## STRUCTURE-ID: 64566e23639d5754ae6cd4a4 ; CHARGE = -1; SPIN = 1
I -2.329855911264121 -0.09628764915497601 0.9988287373633091
C -3.403407722989078 -1.9289664611243025 0.5123959795614506
H -3.364758083367076 -2.565880013615161 1.3871019383948835
H -2.8975001859986804 -2.385435387856155 -0.33197732314453376
H -4.418848836937105 -1.645735818650654 0.2657164329615282
O 1.4889364172643893 2.5626462646923533 -3.1059727661960914
C 1.6750704893187784 2.52671696909908 -0.37159976869289785
H 1.6884792872231573 3.3564757602083346 -1.0606220576690573
H 2.674171382497088 2.3336897588853227 0.004769666424393645
H 0.9874030723956448 2.7096771751496087 0.44802721036977167
H 1.295993005684557 2.245251462091338 -3.9879345150012218
Rh 0.6273232276129116 -0.9441898004747742 0.45410013974805824
I -0.14147453192696044 -2.2826245765175397 -1.659858361831331
I 1.0175305004234307 0.8410438812573202 -1.4571079345773914
O 2.2127488347676256 0.8010988178073529 2.2989813508985173
C 1.5760166372762088 0.12546828298111085 1.6093514160339857
O 0.7092569246011385 -3.257272879347625 2.3729408444980433
C 0.6029154934180856 -2.395675785430639 1.622859010858589
