17
## STRUCTURE-ID: 64568ce35842e57b18324914 ; CHARGE = 0; SPIN = 1
C -0.9961759276817053 2.2158712947404577 -1.8760533272381101
H -0.7953750393820287 3.2396946566382265 -1.5590273857688302
H -0.6643403554083642 2.108451155883503 -2.912201300352817
H -2.0714957698554697 2.011090066551397 -1.8308180259117472
O 2.0319855191233493 -3.25955833475751 1.1914776412666814
C 1.246227643654284 -0.7100572706749027 1.8317576197619843
H 2.162328013238897 -1.159926274156852 2.1925184029446054
H 0.49675305925994995 -0.6595894301862544 2.611890514543715
H 1.4253084440168298 0.25683755802587116 1.3761333723647615
H 2.128644812086407 -4.0816328815483205 0.7077081190377277
Rh -1.2556633604139527 -0.3158926639060666 -0.5948619810106427
I -1.3636140079225547 -1.455672662983164 -2.8469644205653024
I 0.5549147441050302 -2.015357398273447 0.3057069102954687
O -2.0030107023655375 0.7923753851784886 2.080638036430051
C -1.6571833263477018 0.38396695537332337 1.0671135727249597
O 0.9517277728071433 1.367778183309344 -0.7081367463728422
C -0.19103151891453296 1.2816216607857451 -1.036881002149763
