18
## STRUCTURE-ID: 6456733990a3d240ec6cdb43 ; CHARGE = -1; SPIN = 1
I -0.4816362737723841 1.1624330005298527 0.929533874903759
C -1.307333492551543 -0.3035975453553181 -0.8737276127707488
H -1.574354033898745 0.32092091162113906 -1.7214990593882322
H -2.1770333356249063 -0.54588005233977 -0.2789252330827141
H -0.7931557730893549 -1.237073262069017 -1.1417538395019866
O 1.5561914050727614 2.9125582710880438 -1.7345190112385445
C -0.7495290807421274 -1.616285335125928 3.732360365298762
H -0.6972318947826507 -0.5398495315859538 3.8316779291406604
H 0.09541225188036256 -1.9891891181962897 3.1676474188583303
H -0.8228193901024128 -2.105161009135467 4.6939387196060665
H 1.335705590585792 3.738984638081341 -2.208547964543164
Rh 1.0637077451958445 0.31513950557829756 -0.9434565560666401
I -2.5253401340911763 -2.0723260604764233 2.6322750108640145
I 2.0662957818164154 -1.6791129450626896 0.560965926577626
O 2.590532006689232 -0.3071889650118325 -3.439049137784054
C 2.0237164830910244 -0.11295070266606128 -2.4469649454810942
O -0.2625894196772008 2.1307004400633764 -2.769127976422722
C 0.6594615640012339 1.927877760062718 -1.990827908969263
