13
## STRUCTURE-ID: 64568b5c38560528c5390820 ; CHARGE = -1; SPIN = 1
I -2.526197439984982 -1.5609908133632586 -0.13246629565343085
O 0.11762916511203443 -0.754481818695676 -1.765210387647091
C -1.514363574409541 0.2110147587297235 0.524317572685412
H -2.0368214708988823 0.5425709697771243 1.4253761773035103
H -1.7135567473439555 0.9337860082191243 -0.27613824211475646
H 0.3776458704535669 -1.2755987017899362 -2.5551723881432853
Rh 0.6570455088807479 0.7969138370745166 0.482319467158842
I 2.835361019597166 1.3605333654126024 1.865179935983481
I 0.6382961473164338 2.953708127614678 -1.0226298471329347
O 2.2830627039388904 -0.697832237214161 -1.1852099569255723
C 1.1293955467077523 -0.4013570187740617 -0.9989697218674937
O -0.251017498857469 -1.5033287455800546 2.163958758940661
C 0.003520769488227447 -0.6049377314106092 1.47464492741265
