12
## STRUCTURE-ID: 64566729c188a429a81f8bdb ; CHARGE = 0; SPIN = 1
O -0.4159075665842835 -0.20630464661155085 -0.21967002399498084
C -1.422589012269021 -0.0037023507505755285 0.8062412429711401
H -1.6162962424166283 1.055426701114258 0.9699418815359941
H -1.0418111091912914 -0.4603367505512737 1.7187442583325356
H -2.3255189523010125 -0.5171304555542074 0.4845265277741774
H -0.6771606227086711 0.2457651726951105 -1.0500695821376134
O 1.355765623784376 -0.5982932288180529 1.2160407635268156
C 0.9647144607073762 0.22098130285289896 0.22386594791756087
H 0.8917149471900875 1.2386516839953832 0.6204496737761369
H 1.569087882312052 0.18351625592570497 -0.6882548843208367
H 1.0715896618774063 0.30706124968829007 -4.976722406437036
H 1.6464109295996256 -1.4656349339859809 0.8949066010560847
