21
## STRUCTURE-ID: 64567644f8af40389d67f9c6 ; CHARGE = -1; SPIN = 1
H -1.2149960144647438 4.949723527692134 0.49679116764065134
I -1.360531484842964 1.2901570291641853 -0.9460401380384122
O -2.6523946551922624 2.5385301132191715 -0.15576881008014826
C -2.9562273962812764 -0.17408871823083824 -0.8333119063265847
H -2.685469780241122 -0.9393344902790155 -0.10743439517676176
H -3.12136771140525 -0.6072741418485114 -1.816808875288763
H -3.804096466130263 0.4108252585726823 -0.49671148955055416
H -2.1700567049222412 3.3214006446099167 0.05145060888978685
O 2.8205028737628948 -1.5850968698906929 0.33931250589957757
C 0.3612961645899236 -3.104535852956188 1.2630744954837634
H 1.4310279361308966 -3.2876812739245924 1.241516287900271
H -0.06588445614610919 -3.214144497631918 0.26872986242446467
H -0.15610322477284277 -3.68336234403947 2.020429193744451
H 3.3156842579371384 -1.8912570807284141 -0.42643635943360336
Rh 2.0223233836652748 0.16208394209983104 0.3293661547200845
I 0.16390286755976646 -0.9825434006587497 1.8241695301981449
I -0.017945644293085133 -0.9837965943337673 -2.041662392475152
O 1.231484163701745 3.034346881532606 0.21037617581335188
C 1.3693553674490138 1.8820160552743823 0.3399217301690749
O 4.097583585327774 1.822120709016076 -1.0110015932685985
C 3.39191293856773 1.0419111033411685 -0.5499617532450124
