33
## STRUCTURE-ID: 6456bf17d3aa964dd04ed2be ; CHARGE = -3; SPIN = 1
Rh -3.3308197077870565 -0.7101744160583023 -0.5563570794487716
I -4.82888082923324 0.45113446189010525 -2.3874269275294955
I -5.277035267125947 -0.9204965239258542 1.197501127532358
O -1.4669534967685776 -1.398502990808884 1.6823119214773379
C -2.197764927328016 -1.152492754013426 0.8130559415056117
O -1.171427241099682 0.24745704209973587 -2.384878089224083
C -1.9594444879619946 -0.17166548474666776 -1.6388010094232432
I -4.041819198487355 -3.426500927630271 -1.6938582669436284
C -6.241162858739845 -3.3553410378202706 -1.8514630564664205
H -6.556948755950526 -4.305017379668569 -2.265294485470279
H -6.489546104884673 -2.521698435649298 -2.500739426435996
H -6.630371624462682 -3.194042238710747 -0.8511541118650269
O 2.2517474658576253 3.9601388615829123 -1.6576050869369328
C 5.574124660133673 -0.2158819575102228 1.7833723408075883
H 5.117193704549629 0.23825193092510277 2.6582359081641167
H 6.4879180057597 0.2885961542566961 1.493693446579522
H 5.724420192587527 -1.279489889643921 1.939819135059825
H 3.2050441364717495 3.8667871648158125 -1.4918398874692644
Rh 1.4447489669562146 -1.1151082139139772 1.1959256974042713
I 2.511510467586295 -3.142295467923075 2.4519415308850143
I 4.133615823166935 -0.0004667850723148329 0.1075631810948917
O 1.307346510310985 0.7195397210309908 -0.9785838092229382
C 0.8127191100664308 0.4157716138143694 0.13626563551590143
O -0.1970100335073592 -2.1530938728551905 -1.0529540765385907
C 0.543452067501424 -1.8909362083906613 -0.16432387861834427
O -0.3828414447306417 1.0823935046572235 0.4723554113487169
H -0.4322916923609958 1.8425154133599877 -0.14796632380951183
Rh 2.0651059436926813 2.2140726194404348 0.7767326816784552
I 1.8085100491933073 0.7493701484353524 3.101035852482312
O 0.2508701730156521 3.41357701825948 -0.9249262989583851
C 1.4710688519890975 3.3334754784040874 -0.7315889108046872
O 3.5248421925932965 4.510099720234186 1.9780106477443302
C 2.970079348996244 3.6200237311353787 1.4919402658856722
