12
## STRUCTURE-ID: 645664d8a159815bc5068a1b ; CHARGE = 0; SPIN = 1
O -2.2688465816867955 1.5904441087871732 -0.35259263477097996
C -0.0896646882687873 -1.4063820106705598 0.07221857205268245
H 0.6722633626884871 -2.0799017346319997 -0.33398442752986796
H -0.048125485995785616 -1.440967694210999 1.1667175920553208
H -1.0732412941243623 -1.7216381836201282 -0.26854333279863324
H -2.208111571496733 1.8986597056134749 0.5549688692049248
O 0.10024519950669866 -0.08940039415157562 -0.39788529392719746
C 1.3594379158869725 0.4433925827183823 -0.04786959217232201
H 1.4055032282740114 1.4427120717308515 -0.47444850888922313
H 2.169911265350862 -0.1680485318483818 -0.4583199603195151
H 1.4730240597073143 0.499791041991545 1.0406922384082016
H -1.492395409841906 1.0313390382922114 -0.5009535213133627
