18
## STRUCTURE-ID: 645673661c2591160b6c2b4e ; CHARGE = -1; SPIN = 1
I -3.4244019932414935 -2.111255131911039 -0.2783552643667332
C -1.6890377811589996 1.169674355099579 -0.08803791779110015
H -2.4608733409266117 1.8255756192920196 0.31561190291143987
H -1.3486098461446339 1.529232892176021 -1.0541495961365983
H -2.1612685408373595 0.1761307275331487 -0.22492276831718633
O 1.663673524716669 -0.9114705354994317 1.1349169761471192
C 0.4436498091402327 -2.5250578805837 -1.1932663875537388
H 0.8625959922520229 -2.5701262140991243 -0.19329683264300432
H 0.8758659865586516 -3.264925943539392 -1.854303858773899
H -0.6388629772244463 -2.5859053508717724 -1.168703883104828
H 1.9483878251166613 -0.9803740338403226 2.0508315392247933
Rh 1.3050077282023362 0.8581261660047965 0.3721160751566654
I 0.9664116189169276 -0.5797643126943778 -1.9397324366844444
I 2.652973647516833 2.0065301192089824 2.322307791496897
O 1.2317304266350426 3.5914636297545166 -0.8358842680505129
C 1.1873635700359315 2.5304153187540948 -0.40713018759883485
O -0.7710235298043511 0.8329457454393187 2.105749358619846
C -0.6435821197533946 1.0087848297766817 0.9362497574641006
