5
## STRUCTURE-ID: 645663a8b1fdfb3b63399e3a ; CHARGE = 0; SPIN = 1
H -1.0805869496918432 -0.06134754797504987 -0.009591729799594067
C -0.00011311863395033084 2.0984686132506884e-05 -6.63956141460235e-05
H 0.31011962065340254 0.9591864859064763 -0.39348744868499147
H 0.4117786588883684 -0.7918126617678867 -0.6118459304093385
H 0.3588017887840149 -0.10604726084967027 1.0149915045080733
