19
## STRUCTURE-ID: 645679d22908495cf73d7d91 ; CHARGE = 0; SPIN = 1
H -3.2466967483401685 -1.2298819335277187 -3.131634553854925
I -4.502718782527678 -0.6820680459859858 -2.3662097678661977
C -1.487785129743338 1.101932562681678 -0.36280712175575525
H -1.5795516859701046 1.877422364190487 0.3952527920379432
H -1.907201557473379 0.15763250086631647 -0.006186288166731826
H -1.9742024712739739 1.4153875957836128 -1.290070249001481
O 1.9843449048625488 -3.0542557186648502 1.7390652618327334
C 0.8784197184982243 -0.6727018430737631 2.4230344413471925
H 0.7035805091486085 -1.5169460188936192 3.076213979410576
H 0.03264865084609213 0.003579160574702576 2.401158824691232
H 1.7949488441376944 -0.1686095774279543 2.7031110411073103
H 2.1590050152400124 -3.845731424206654 1.2304753455377102
Rh 0.49181253755456295 0.6912358862216333 -0.910541430986877
I -0.03235366332526368 -1.0574761073268077 -2.7474034193773114
I 1.1214493596834252 -1.5031740844372485 0.47888040380662067
O 1.6839438587853164 2.3705881249080356 1.2408978420934604
C 1.147068058176939 1.7445335210197324 0.4528330428232961
O 1.833275279133134 2.3129921972263054 -2.9649051776014432
C 0.9000133025873714 2.0555408400721333 -2.3611649660773852
