21
## STRUCTURE-ID: 6456797719513755891dbeb4 ; CHARGE = -1; SPIN = 1
H -0.19083016351609913 0.22457298491492092 2.1817139266616192
I -1.4127437561268956 1.5450209043048178 2.165011136414885
O -2.892901351004474 3.04283007616679 1.583180119435429
C -1.4116521850837485 1.295997243707214 0.059986832346793695
H -2.143948671317987 0.5392660806988672 -0.19251011588830821
H -0.4088046570863303 0.9832130109870154 -0.21371361043859322
H -1.6752216979361239 2.250207248185023 -0.3719796955032049
H -3.241424914869251 3.513143764690782 2.3403891327191566
O 1.6809588296555806 0.14763237516217825 -0.13779102644207203
C 0.7160799708365497 -0.5298031279802987 -3.1187326994142395
H 1.1303942601465073 -0.22093369568147078 -2.1639551912715786
H 1.1983030725278152 -1.4323238212044198 -3.471094292064971
H -0.3538780797415667 -0.6721209728565538 -3.0431976600818196
H 2.407337813559123 0.7191676480447774 0.130366995803249
Rh 1.2489072537007273 -1.2944662629922137 1.2324980525091047
I 1.0750328753284137 1.0149619563167511 -4.54550994721624
I 3.1436025185568406 -0.42588173271758917 2.808430935688255
O 0.6426297099591208 -3.484392154287725 3.1699953956207447
C 0.8692011822460454 -2.6271268762993065 2.430848264036083
O -0.5202827959079128 -2.544556243969527 -0.8241775773802134
C 0.13924078607363058 -2.0444084051901754 -0.01975897553407511
