12
## STRUCTURE-ID: 64566a54e0aec708d83ae5e8 ; CHARGE = 0; SPIN = 1
O -2.754756730136836 0.5225112873620641 -1.3387808939107961
C -1.6033286986570041 0.21392282153956832 -0.5830919578493371
H -1.0764785668178916 1.1526346976322215 -0.4230625254491604
H -0.9441149363595298 -0.476656638393758 -1.1167435163294135
H -1.860303354506451 -0.21855922639703626 0.38798217579358824
H -3.2495166609108495 -0.2902419816691709 -1.496633188763038
O 1.2253454289747034 -0.650402824237206 1.4320553486273142
C 2.076578758439088 -0.12877249641332852 0.43569532288587354
H 3.1184149290563714 -0.10454416022854732 0.7684777155974859
H 1.770383339311098 0.8773700019680194 0.13313855765412255
H 1.9973867283672508 -0.7938357909761309 -0.4223491487701942
H 1.3003897632400618 -0.10342569018667636 2.2233121105135365
