33
## STRUCTURE-ID: 6456c3809c51bd7a2d304573 ; CHARGE = -3; SPIN = 1
Rh -3.0950242616734607 0.3483243735247155 0.3484312576880815
I -3.9451729460390874 1.7516188474167351 -1.7491003117674366
I -1.9816436206311794 2.481833728119224 1.560702680621664
O -5.657862512992825 -0.7837321892964249 0.12720121498887071
C -5.129121458361989 0.17023019203587322 0.596349342000336
O -2.567560898131021 -2.082079849162171 -1.2559295579699077
C -2.9384254783884094 -1.1729624906146707 -0.6476999904299084
I -3.151814286663207 -1.0797352351936427 2.6334503275222207
C -5.763836287595463 1.2725162772921117 1.3663553619354132
H -6.359270063204716 0.8133120516239956 2.1569347798445513
H -5.0631842705067704 1.9880885926395244 1.798980354624101
H -6.424166918462099 1.7987741602009597 0.6735939065892798
O 4.097674397025655 -2.5644926753976764 -1.6555063119727809
C 5.537366358114151 0.5808595835936051 -1.8832820412451814
H 5.36217912666835 0.6291362858285892 -2.9505234338428976
H 5.865793079892513 -0.40129625117104095 -1.565663264477017
H 6.227045844964618 1.3526084373064173 -1.5647858664577312
H 4.07445875734755 -2.002751252888539 -2.4505340243581872
Rh 0.9620157792784694 1.8184289804921359 0.5565017079090079
I 1.416116636300039 4.341128165559168 -0.16166372952068844
I 3.5632596701987924 1.0183691470528091 -0.8321248168906403
O 1.9618052514544866 -0.6625225746125692 1.774577713609967
C 1.0561557036164513 -0.1474749216989249 1.0851529631394239
O 1.8897559733619174 1.8751168123166386 3.3696376257586493
C 1.5924094329646559 1.9685802446588958 2.2459825555943005
O -0.19073484094868923 -0.8368325274372697 1.1884025121227617
H -0.07839144720236993 -1.5952447554245381 1.7879460688040323
Rh 1.770760540184814 -0.8803870451251312 -1.1172865396429437
I -0.046792659547407967 1.0064053460203115 -1.8005711255680772
O 3.055657837377443 -3.0257863039074295 0.22797262852873573
C 3.0770073033314573 -2.302658468878868 -0.7578930979274476
O 0.14497838488852935 -3.337711458301164 -1.6106692059768355
C 0.7385618733787566 -2.339663226571662 -1.4949396832336321
