12
## STRUCTURE-ID: 645667b8b6ab7e5b0e28a81e ; CHARGE = 0; SPIN = 1
O -1.4889297539061936 -0.39113159448244644 -0.7270738346997128
C -2.0432704140143096 0.6502209318137013 0.04051642193397058
H -1.8951247055417146 1.623794784248066 -0.43815223279419124
H -1.6124153301043276 0.6799320514517763 1.0469148891425266
H -3.111910131856581 0.4531289881542885 0.11985398662662981
H -0.5304597874822382 -0.22883499295551102 -0.8100802013152767
O 1.3320001041997567 -0.030230117511753276 -0.7592731987595431
C 1.812405118108249 -0.4769849947566637 0.49427649900266446
H 1.506163962008444 -1.5083411298572764 0.6895925347400388
H 1.3728521276289398 0.1734848291052408 1.2483252590933778
H 2.90059214920721 -0.4022898734907778 0.5523180670893201
H 1.7580966617527658 -0.5427488817186491 -1.457218190059803
