12
## STRUCTURE-ID: 645668a75c81132cc2230d70 ; CHARGE = 0; SPIN = 1
O -0.7440345684452648 -0.01818830774764367 -0.6031070807733574
C -1.4848244933594865 0.5903676428604319 0.40064516971689085
H -1.6731153921721396 -0.08661910213980241 1.2387136585474492
H -2.4270001153129233 0.9504585967346939 -0.01470572506539639
H -0.9389010858903832 1.4791556076333485 0.734831147850379
H -1.9516948906094673 -1.0244727689414768 -1.6072010136604917
O 0.885179824093863 0.4997184068259018 -0.29170628316468494
C 1.651710391009888 -0.5727443628839354 0.2339520429187693
H 2.6922102210499426 -0.24112708091418064 0.2685146089715707
H 1.5636945929403883 -1.4711699719016826 -0.3764139283563246
H 1.2940826686298201 -0.7738997592125312 1.2420010124790888
H 1.132692848065768 0.668521099686886 -1.225523609463915
