21
## STRUCTURE-ID: 6456791bf1bfe524555a8531 ; CHARGE = -1; SPIN = 1
H -2.104237342657129 0.042157141126274306 1.0929166029616482
I -0.6169859696651057 0.8029271268578696 1.2518722416036925
O 0.8135866925115353 2.313484741386411 1.1858973468364467
C -0.10608611087524492 -2.3813915509513284 1.7444040349180798
H -0.06509511752766929 -3.146329976724163 2.521615838362442
H -0.8939321664850596 -1.6702205181824452 2.0255869898435965
H 1.3953422845087835 2.071055730358909 -4.236141152240211
H 1.4687409473465751 2.1469616743587063 1.8636673582814507
O -1.6016525512431223 2.1685829042604445 0.24306169108303186
C -0.374933075690577 -3.123123669923106 0.48345835194809944
H 0.8568142180079679 -1.8775420713978017 1.7303163605220189
H 0.45733169060017304 -3.755428849725428 0.18333841047618787
H -1.329334534673119 -3.6448552089104562 0.47175000291689667
H -1.1647621423449546 2.9746708185392445 0.496957735807385
Rh 0.5298095885361536 0.5066015981321782 -1.389237188736256
I -0.6572019908496546 -1.8075714813512394 -1.4575065601868913
I 2.736935296619464 -0.47240834281904126 -0.507281163329517
O 1.7751811866133493 3.2125955831501125 -1.3690482483023525
C 1.3255790164978276 2.1558443394355833 -1.369963588987334
O -1.596834280676744 2.0871143883319774 -2.7508265496525652
C -0.8482656385534417 1.39687562404729 -2.214838514125885
