18
## STRUCTURE-ID: 6456736a0116f95e162648b3 ; CHARGE = -1; SPIN = 1
I -1.7636541509923327 1.51956161961537 0.5875273848542679
C -2.186321041756759 -1.6561147351655545 -1.5373389540020517
H -2.7096144324332707 -0.7803112404744431 -1.9128556390676346
H -2.21860410334642 -2.494169765458169 -2.222427143849852
H -2.5422661452804833 -1.961372919549214 -0.551479293452113
O 1.973416311628801 2.7182840269585786 0.4730391396981111
C -0.20347602480201177 -1.5186313126553481 -1.9068485263259431
H -0.3409366684467719 -1.2904283998993384 -2.9605147382514545
H -1.1409097670765778 -1.2096834777921595 -1.1629915437886365
H 0.10961376373343047 -2.5367322338800156 -1.681942298081875
H 2.321909467483673 3.6287504577582403 0.4888160340100711
Rh 0.4815714527341396 0.6442991875002154 1.6759155629625375
I 1.3317866533342957 -0.1398245315239015 -1.1565009644984854
I -0.41080835540575594 -1.8516287485636143 1.9927407879064483
O 3.010233563918479 0.594033788172348 3.249491435705024
C 2.015928884444168 0.47979047568901323 2.628284984028146
O 1.0851583128454998 3.3887652510795987 2.4082651305976195
C 1.1869722794179365 2.4654125581884236 1.5888186415557977
