12
## STRUCTURE-ID: 645669aebfd4dd130c5fdacb ; CHARGE = 0; SPIN = 1
O -0.4473836820406677 -0.5266580838741568 -2.6740033925157785
C -0.9648516812251848 0.549489983552778 0.927517955883992
H -0.6329726557374895 1.194036027095871 1.7485122044461376
H -1.3789261632679337 -0.3750990847170904 1.3444838542992958
H -1.7277371327858941 1.061427796616148 0.34571331884624146
H -0.18523874284792116 0.26149973920165803 -3.156381088466164
O 0.10158207517689653 0.2720085776543955 0.04575635587336138
C 1.1723498881177203 -0.398398034995637 0.6751408054403755
H 0.8465229107892213 -1.3626265567227662 1.0805221538981897
H 1.587927671298108 0.20812911287708777 1.4869435532689732
H 1.931589048969194 -0.5604372178736239 -0.08638695324413874
H -0.30286153644602665 -0.3233722588146593 -1.737818767730497
