12
## STRUCTURE-ID: 6456685a19eada576d4efcbe ; CHARGE = 0; SPIN = 1
O -0.29257588247899347 -2.009387527613158 0.5260270817612174
C -0.5191416119134326 -1.463819755106821 1.8052578136378339
H -1.1432182356025884 -2.1738560196057586 2.34619070154146
H -1.0414235468292299 -0.5035922363001435 1.7429904619203378
H 0.4187963584890744 -1.3232370304805674 2.351470677409959
H -1.270896436647779 2.8345219474554297 -0.9955967954803602
O 1.1507805932551165 0.24599624121644795 -0.6707521838887126
C 1.0586577575577591 0.924625723893069 -1.6585647607508422
H 0.42084386198984636 0.6389514137374894 -2.5076182919078893
H 1.631272159065126 1.8548436271043116 -1.7819844807732468
H -0.6752911960257443 2.361119891740945 -1.1878115615382834
H 0.2621961791408376 -1.3861662760412445 0.03039133806853273
