12
## STRUCTURE-ID: 64568821ff007430cc40f1ed ; CHARGE = -1; SPIN = 1
Rh -0.5907314696705737 0.4974317597543329 0.06259181426968577
I -0.7271295338246094 2.128945801946346 -2.1416584158234384
I -3.1712296124336463 0.9107064557750173 0.8948937824636678
O 0.32719752491602666 -1.4663191787114576 2.122616068805612
C 0.06687343970469795 -0.7254228678853674 1.28162919973494
O -1.8905180146214897 -1.3211984263575633 -1.9231991526129537
C -1.3534423664968556 -0.6599492598928495 -1.1636557680822528
I 0.41756792077819455 2.3726453749264347 1.7080802653728595
C 1.4633363190089106 -0.3867537124712743 -0.1128416831192512
H 1.7300732437595334 0.2698965208539233 -0.9525232398782713
H 1.532781875585385 -1.4209187224897812 -0.4482054822913743
H 2.1952206732944264 -0.19906374544776034 0.6722726111607732
