18
## STRUCTURE-ID: 6456715909eb754bd823362a ; CHARGE = -1; SPIN = 1
I -1.164879705949952 2.520678407572116 1.4383251357833642
C -2.4010588968695927 0.31642846915482326 -0.9218497554379266
H -2.460917873820229 0.09113956997318887 -1.9901868275674288
H -3.0144956678614543 1.1983646149238827 -0.7245911429582255
H -2.8131926425626843 -0.5262947598504045 -0.3650994753953647
O -1.685874748288944 -1.1964961200171313 1.5553142825509314
C 3.3867192903844487 -0.7761291939709768 0.4158566592742672
H 3.4146928136682084 -1.1741985176561756 -0.5925339621129599
H 2.7871398457530145 -1.4030254436531315 1.0663462044066168
H 4.380568809888261 -0.6177186400675393 0.8159203937104338
H -1.5800654022871417 -1.7703454221896362 2.3396540005131476
Rh -0.4017391061746146 0.6488571160835489 -0.3311693266114818
I 0.32308152196851814 -1.4557667102680667 -1.8008023559685886
I 2.4044373516115707 1.1476823695031766 0.3435336224040843
O 0.48293426546718105 -0.9071158488452937 1.875961723698282
C -0.5110329064530204 -0.6282388543155131 1.2076018069261514
O -0.7193293735707195 2.6384105792767243 -2.5778059765541896
C -0.4269875749031266 1.8937683843463307 -1.7544750066610908
