12
## STRUCTURE-ID: 64566843782b527b3a64e488 ; CHARGE = 0; SPIN = 1
O -0.9559771158801683 0.8705600601805986 0.5820960828768573
C -1.8981662745279921 0.20449559908515302 1.3944644629429164
H -2.150012409689972 0.7945898469760121 2.280594122947039
H -1.4343436336482687 -0.7281967393181644 1.7108494098093778
H -2.8130942107769936 -0.024561645878126925 0.8400132785809642
H -1.3332657835210582 1.708800493360783 0.2890380359435624
O 2.601922764166912 0.1841693196860959 -1.3995624961754576
C 1.5001598949006159 -0.6959403244687099 -1.3009475635746635
H 0.6658160956404979 -0.23419832705748822 -0.7673310710495674
H 1.7828610086665846 -1.6268413542493607 -0.7983244010599123
H 1.1928762954542649 -0.9249659432400839 -2.319960336239601
H 2.8412233692155664 0.47208901492328714 -0.5109295250015011
