12
## STRUCTURE-ID: 645669c165029324a46c2b48 ; CHARGE = 0; SPIN = 1
O -0.534012099676862 -0.09848152607539769 -1.124341974965076
C -1.9399766200730189 -0.109963209797174 -0.9785122589272585
H -2.1463895479273387 -0.37547674439411255 0.056416476233174896
H -2.3996002387220576 -0.8530733197223597 -1.6350176322415186
H -2.368710440250582 0.8741571052335624 -1.185644409274205
H -0.31715970732775906 0.12335606847005322 -2.03816181718034
O 1.0520972895833365 0.9857912648157795 0.99068692979825
C 1.8785286391653138 -0.10175373122760267 1.3332564183231503
H 1.2903665371392306 -0.9589071691865534 1.6760962606852328
H 2.5247385934279807 0.2323377720166613 2.1442682831018174
H 2.499620686789206 -0.4137907094737876 0.4875115757782114
H 0.460496907872555 0.69580419934092 0.2734421486685517
