12
## STRUCTURE-ID: 645669e2483c9c5c1c5a8520 ; CHARGE = 0; SPIN = 1
O -1.8485274523606776 0.07172103576750763 -0.3767918735932744
C -0.6656678936057729 -0.11575415455902123 1.2140311486230324
H -0.34857970294826945 0.7928623424637585 1.6934867962207945
H 0.09457616451328431 -0.869234187950461 1.1011023782646296
H -1.6018769600508247 -0.4909939149973962 1.60444106897102
H -1.8895717135201289 -0.813672355151668 -0.7576259164376489
O 0.379641404140998 0.8637151064767093 -0.3404129861063779
C 1.4697678327138053 0.15147935405899604 -0.7655564663701939
H 2.0673366220523235 0.7684323506184557 -1.4536724964815406
H 1.1982156801985986 -0.7739949952666696 -1.3028055264189342
H 2.1274661930413625 -0.1215425591727763 0.07678333231692833
H -0.9827801741747003 0.5369819777125596 -0.6929794589884307
