12
## STRUCTURE-ID: 64566ad0b063bd69e95c0b03 ; CHARGE = 0; SPIN = 1
O -1.4466986844457377 -1.158602057129363 -0.7247015524364351
C -1.2629836091406317 0.032952331904989085 -0.0930398844949207
H -0.10576790994306833 -0.39549503566553185 1.2692075065577084
H -1.8601238621829774 0.19701620039623452 0.799354477668829
H -1.4332874504254876 0.841119902518303 -0.80269629456167
H -1.5623105629850444 -1.8879601664812014 -0.09854862573030963
O 1.9163119215733073 0.0788258214476177 0.7167063718408004
C 1.4433639101493565 0.5795647021654716 -0.39354732915464574
H 0.23921784282636124 0.4223140410913665 -0.3281287898423989
H 1.724906751200428 0.04118437204812322 -1.3097743793006453
H 1.5516556974626643 1.6688051137666646 -0.5004146174612953
H 0.7957159559108143 -0.41972522606268853 1.465583116915019
