18
## STRUCTURE-ID: 6456702d9bc72d27794d91da ; CHARGE = -1; SPIN = 1
I -2.164771877878641 2.9566275466134355 1.623690849396985
C -2.3410536865766045 -0.001667218433424219 -0.31499157816975976
H -2.8932859532733537 0.7974438119215265 -0.8145347511500798
H -2.7152884445458794 -0.0960357277071855 0.7076824996693604
H -2.537089607720496 -0.9396734197364411 -0.8399785883628034
O -0.06554925136587739 -1.2212067280678394 0.938327127350363
C 3.0116869487662874 -1.4728818831235866 0.1127959722876948
H 3.156139873559228 -1.883035522372738 -0.8805803073772445
H 2.1182508104600295 -1.876706609134974 0.5817487671167906
H 3.8859190173985043 -1.597717382793401 0.7389677598845975
H -0.666113949059104 -1.9584103274252642 0.7953798383191867
Rh -0.28545308871193953 0.3862974523146985 -0.2950102355123809
I 0.14111559017102385 -1.149116149076791 -2.4789888238966147
I 2.649951948733407 0.6467899165881611 -0.10075386202422146
O 0.2631834062130045 1.384801311253298 2.307697182816448
C -0.44762241579364037 1.399392066090772 1.3713325160757042
O -0.6312515147350573 2.7652017930944206 -2.0703914785536344
C -0.47876780564097804 1.8598970699952688 -1.3823928878705458
