12
## STRUCTURE-ID: 645669b78ae0577d7264e488 ; CHARGE = 0; SPIN = 1
O -0.8180057044574022 0.3296849448957029 0.6829973978479863
C -1.2468300986165821 0.12474609761828709 -0.6800868351992606
H -2.075760015537289 0.8008930950028436 -0.8742381636941976
H -1.5294426639928982 -0.9114497403802013 -0.8600963744198956
H -0.3982366301334408 0.37956070189588564 -1.316163151890979
H -1.517150073381779 0.0012402292777751627 1.2935513973034585
O 1.964935512009279 0.46570728952703694 -1.2365132742965057
C 0.4380544946971605 -0.33256672030165985 0.9701760038866556
H 0.3290470169202921 -1.4137762672497973 0.9729781438693766
H 1.1593933917640171 -0.026708918994968297 0.13798131112051376
H 0.795761526290497 0.031996334412236836 1.9267688935313636
H 2.8982332444381456 0.5506729542968519 -1.017355348058523
