13
## STRUCTURE-ID: 64568ad4400f7c71ee12b08d ; CHARGE = -1; SPIN = 1
I 3.386193123445084 0.1442105719535567 1.2412850939917157
C -1.354335257654744 -0.054787582360309645 0.41792560415268243
H -1.8295729258579139 -0.982855155917694 0.10426463653096872
H -1.8591376687225991 0.7923559563851644 -0.0435486368724282
H -1.5028878695328431 0.028601917107263217 1.512465413597516
O 0.053429734823048344 -1.388854693352372 -1.488577958000519
H 0.032657618107870615 -1.4463589555287868 -2.463428199960693
Rh 0.7884234755339262 -0.023037485806045945 0.7534993054504145
I 0.6423599913702489 -2.506944519266874 1.5882034320200686
O -0.094413778187596 0.8126793602408146 -1.8284183086197046
C -0.004956609819705333 -0.12202999024315257 -1.055583425591213
O 0.89688584686915 2.947399658921604 0.6330882952696147
C 0.8453543196258644 1.799620917866685 0.6288247480317603
