8
## STRUCTURE-ID: 6456637dfdd6bb1f735b5c1d ; CHARGE = 0; SPIN = 1
H -2.5719480540279074 -0.2332627212301502 -0.6665320165770648
I -1.71294924381447 -0.23105831938993482 0.6604198498933901
O -0.12589921682058514 0.07476976354052135 -1.145089088085173
C 0.8938061797127007 0.04282881138574254 0.7249020773738692
H 1.2416255388351827 1.006993918417282 0.4051262959782894
H 1.404224883254673 -0.8014307328026191 0.30129467797124915
H 0.734208431155224 -0.030809184100914825 1.7888146922606754
H 0.13693148170519173 0.1719684641800697 -2.068936488815261
