21
## STRUCTURE-ID: 64567c6bddb8117c366dc15a ; CHARGE = -2; SPIN = 1
O -1.058728708071874 -3.2457060347097046 -1.3169711686657175
C -1.5184874725475799 1.9432455991306483 3.022524507613215
H -0.7980929736980277 1.1418521983519363 3.1371195783600774
H -2.5225968792514553 1.5428021833937058 2.937773539076466
H -1.4327281027691505 2.6797009281256803 3.812021502760878
H -1.9078161109777911 -3.5159485195177727 -0.9492788079281584
Rh -0.5800994419680423 -1.2703007559360915 -0.8478330308771975
I -1.0643618780729327 2.9495881314064087 1.14556350624189
I -2.784312715943888 -0.940790687624958 0.5887690086675916
O -1.38607895528794 0.8860327906815401 -2.4871254568985233
C -0.6867741445646267 0.5997403790491822 -1.58022223103904
O 0.7285905498408 -1.528374841769072 -3.3153507256984613
C 0.8850905040824691 -1.597757015111288 -2.103119280909119
O 2.0899109114228276 -1.9803001346273699 -1.6112166049397363
H 2.710695636639854 -2.202489157622401 -2.3363251560078107
Rh 0.7059553941223147 1.048378985951815 -0.2909256270515832
I 1.6725997050710286 2.8261502241110197 -2.0557860874329874
O 0.9462884082987743 -1.311627336825092 1.569136595774637
C 0.5728395139475472 -0.7001226622020141 0.6222168056987935
O 3.216202839187066 1.3808475909029856 1.309430400392938
C 2.2119039205406605 1.2950781348408444 0.7495987328618596
