18
## STRUCTURE-ID: 64568a9cd959f016b07c7c3a ; CHARGE = -1; SPIN = 1
I -2.637220268582064 0.016968629473750302 1.1545254692967524
C -1.0121987366888232 0.17631430914970597 -2.2146274504081562
H -1.6148184662307854 1.0235734273060146 -1.9134216533497497
H -0.6687250546672494 0.2680156557154331 -3.2385474974946837
H -1.5461182656338939 -0.7515521971341117 -2.0412333269604663
O -0.2806218053489819 2.1491389571387596 -0.13285198990314703
C 1.3419145231111613 -1.6344888074992194 -2.058546727541953
H 2.330893456763801 -1.903748174892236 -1.7056038337124493
H 1.3681989216416557 -1.4219343398813358 -3.120906513028194
H 0.6427070702990216 -2.4326209370281138 -1.83585456697553
H 0.31634756944267145 2.894840510426116 -0.22380683328810314
Rh -0.2392617825187518 0.8436917849907585 1.8151383025024073
I 2.132178521476934 1.8741846719943953 2.3267782538052493
I 0.7154108408422348 0.1715309434835641 -0.9630353354765803
O -0.9384001641874646 0.851676487563594 4.686558609756404
C -0.499269049104851 0.3433226575544602 3.6748593141199373
O 0.5232548687522686 -1.7908385028337368 2.819187378522484
C 0.06572782063311122 -0.6780750755278041 2.9713884001358055
