15
## STRUCTURE-ID: 64566e35067e9c7da00b39c4 ; CHARGE = -1; SPIN = 1
Rh -0.6921029195514204 0.08911913009660938 -0.03265392897922557
I -2.7420294984423674 0.4137810955480257 -1.8789704109192649
I -1.8234015705073379 -1.8978524580144147 1.2661735367548623
O -1.7881633900671858 1.8821477096950006 1.7818701293548005
C -0.8028531751849652 1.1992370926582578 1.593724866234674
O 0.5299029009348407 2.4752886797777363 -1.3359115618876436
C 0.10235091522889765 1.5316377370936978 -0.8337796373565154
H 1.9179889509042602 -0.396865825049711 1.8455038915034911
I 1.6967008310735259 -1.0519200828435988 0.27732473452252604
O 0.2225168832507092 1.1416194593039855 2.4282679937808953
C 0.8940847744542385 -1.678535356141299 -1.8547432128340482
H 1.01154367493182 -0.8498279912702621 -2.547786989470031
H -0.14434088929742128 -2.01195784796964 -1.819500225885855
H 1.5271678674970819 -2.5081624364517188 -2.137755466058182
H 0.09063464477418808 1.6622910935665605 3.248236281238593
