12
## STRUCTURE-ID: 64566a87a669fd18fd0876f8 ; CHARGE = 0; SPIN = 1
O -2.2736944226160754 0.00602585974249322 -0.1020106042898771
C -1.557438510950487 0.5335035721541324 0.9965942897783365
H -0.5609039348331887 0.09078610408231085 1.074127910686506
H -2.0984290076165046 0.3781760569092169 1.9351432122261891
H -1.4599568453617906 1.6032159073467485 0.8186481851270477
H -2.3643047182417325 -0.9462473124859925 0.02123380887283738
O 1.5919776383479933 -0.6926738985563595 0.20304940958700157
C 1.5749868911842535 -0.11972885494472801 -1.0873218285683706
H 1.9077483301695692 -0.8340540901870076 -1.8461939163392167
H 2.2010071148575254 0.776291335594227 -1.1346016030407369
H 0.543276982947892 0.15985328610870814 -1.2942577477010202
H 2.495730482112227 -0.9551479657638784 0.4155888836634714
