12
## STRUCTURE-ID: 6456684a92f6f22a5e304570 ; CHARGE = 0; SPIN = 1
O -1.5749413521987592 -0.3220147039106301 -0.695433893181381
C -1.5146815473340947 -0.11765952873316883 0.6868993875964922
H -0.4646476535762752 -0.18158649966080043 1.0417999811138203
H -2.1143110291227836 -0.8376717225496023 1.2450180855280755
H -1.8807271576320312 0.8889907693735762 0.8841180271866795
H -1.5288150607795212 -1.2655825045243243 -0.8957413276896873
O 0.8325211453578487 -0.09802099401162988 -1.141500213862628
C 1.3074022149236777 0.1665539022460694 -0.015602882924018142
H 1.3020934851870527 1.1547357000825407 0.4274419232733334
H 3.493250574994059 0.6334379042817863 -0.43475613047899475
H 1.6892523441733227 -0.664575695825339 0.5649990450733893
H 0.4536040360075203 0.643393373231534 -1.6672420016350884
