12
## STRUCTURE-ID: 64566899f13ecc5c142648b0 ; CHARGE = 0; SPIN = 1
O -1.1296855997002893 0.5816005031643774 -1.343947344937002
C -1.2332328692084946 -0.3136687392900635 0.4337763171628932
H -2.2264637567671013 0.10677787368411623 0.3514229525671463
H -0.6913926854684437 0.09510760070797264 1.269499351360234
H -1.1877670901057504 -1.3837720533216682 0.3387014770095884
H -1.5494951442445661 -0.04729125166480442 -1.9421223471285902
O 0.7195678164475319 -0.4758578934917334 -0.3391831390788905
C 1.6509468723726368 0.16082503664347192 0.43891417071473104
H 1.6572156466824777 -0.2363362359176721 1.467666441587405
H 1.4878416490594328 1.2502375877394771 0.4900166784732316
H 2.6546324158495946 -0.006011280064281663 0.020380212096256945
H -0.15216725491702088 0.26838885181081007 -1.1851247698270067
