12
## STRUCTURE-ID: 6456648dfd4c4646382eaabb ; CHARGE = 0; SPIN = 1
O -1.448397774639574 -0.24495426660212372 -1.5543530078314307
C -1.2859476201296043 -0.4614617799756873 -0.25924372849290656
H -0.3809452639502927 0.32372375289407856 0.16816158334851622
H -0.8935866672255129 -1.4312335268771883 0.053324332146947914
H -2.152296354806455 -0.11772173460627688 0.30886059252631565
H -0.8447323774739456 -0.7439532320908308 -2.1293351946014427
O 0.8681917452865549 0.7212703883529569 1.8136189840718482
C 0.4653178055282788 1.1530188145262044 0.6294214266719359
H 3.015404817569318 -2.5281925334924202 -1.362378070705482
H -0.14585660442213458 2.0522383397349553 0.7256487121783703
H 1.1967529681452793 1.187424175009488 -0.18046135707361755
H 1.6060953261180815 0.08984160312683459 1.7867357277609464
