12
## STRUCTURE-ID: 6456664b6c40a56b63230d70 ; CHARGE = 0; SPIN = 1
O -0.5113860164566848 0.8138996958339433 -0.40390141885583397
C -1.2961008883663883 -0.3846669338117006 -0.4673966645290502
H -1.988183314214627 -0.2788418399272628 -1.299433998216589
H -1.8381391821096982 -0.5559588844400063 0.46376831824138914
H -0.6032261854231967 -1.2084587549913408 -0.6426460200328659
H -1.5301997874126054 1.7937938677624905 -0.5008923464298567
O 1.9730330328018826 -1.434002917097578 -0.09168088692082543
C 0.38723203513598187 0.8128485070956308 0.5973899751694857
H 1.005548455205682 1.7032770402112511 0.5787562770329178
H 0.016475338916072873 0.5751491595815251 1.5942726231375008
H 1.4797932275127157 -0.6092484570535581 0.17262747664050257
H 2.9051532844108725 -1.227790483163399 -0.0008633352367699708
