19
## STRUCTURE-ID: 64567a7bfc432b21302c50c6 ; CHARGE = 0; SPIN = 1
H -4.621266664190958 1.0871111055404499 -1.9270044453470847
I -4.939268784803788 2.243791913965798 -0.9156196477253852
C -1.9102801273980674 1.7254614005079973 0.1917543923471748
H -1.89218833762647 2.806892696905378 0.2549331716823783
H -2.5139190274692775 1.2416177127627068 0.9510181165718167
H -2.045374481708411 1.3359210483627626 -0.8143502981578359
O 2.5617573289717503 0.13370759183060854 -0.28573834360151096
C 0.12532441868958424 1.2554816325351152 1.1278996648709796
H -0.7675331629549539 1.3320972567615432 0.3348845129802948
H 1.0052432426666522 1.3536410091651958 0.4798469473142185
H 0.01819352672071146 2.0051681945642703 1.9064450426284614
H 3.4593314602453487 0.26442421998792365 0.02353056362749555
Rh 1.8375349842579198 -1.7675751257801366 -0.5122494446052807
I -0.06589424651532846 -0.8009287009780292 -2.009206695456305
I 0.09347400372422815 -0.7051584784267438 1.9457199094753959
O 4.241768832871942 -3.0098592096975896 0.7592164898185633
C 3.314874796175218 -2.4891363818705208 0.307754483689721
O 0.8893221214346295 -4.55221978114339 -1.014992188601287
C 1.20890011690944 -3.4604381049934267 -0.8038422315113138
