13
## STRUCTURE-ID: 64568ca2455db35b1f248ae0 ; CHARGE = -1; SPIN = 1
I -1.802426648003631 1.6909002982398207 -1.1340477346713491
C -1.269148771957892 -1.2634164032463004 0.751120512555079
H -1.270983808888933 -1.2605533513502722 1.8406735393285236
H -0.9604173409907766 -2.2409368372302145 0.37510523856141753
H -2.2635242688671746 -1.0089575944583142 0.3836877829788432
O -0.4226255573147563 1.1755978480374016 1.7456845242086008
Rh 0.08648331804679105 0.20605540369365086 -0.0038407955944234702
I 1.916401116867753 -1.1491000078160314 1.376949057491643
I 0.386114386289998 2.9281697668458486 1.9749008296592516
O 2.8664722686641024 0.6375582743687677 -1.2868384190389275
C 1.6961745620737338 0.6973700347694581 -1.1934108441538034
O 0.476736678344399 -0.27940551600595503 -3.0041830845458426
C 0.5607440657363775 -0.1332819158478833 -1.8258006067790231
