18
## STRUCTURE-ID: 64566ef2088053680773b9da ; CHARGE = -1; SPIN = 1
I -3.213857266159325 -1.0108439586202573 -2.2987010741084952
C -2.3930740069503016 1.0674529867100246 1.0285939116337803
H -2.6341921457380333 2.1235790512021917 1.1474553895877084
H -3.268677234478685 0.5224014005413378 0.6703303771259621
H -2.1169289445130266 0.6518698602776068 2.000116978138221
O 3.278722847063908 -1.3937293189243376 1.5429021608579119
C 2.3739969314096716 0.2722384369221506 -0.378023969837152
H 3.212798719926879 0.4961531566284259 0.2631616510698199
H 1.7594248980635423 1.147979019597204 -0.5501963946259039
H 2.716403439475262 -0.15777363796523225 -1.3116448382501635
H 3.286272722091785 -2.0815133328482838 2.2075469820762597
Rh -1.0323248104140232 -0.8389736328020988 -0.7471119471202553
I -1.8417473951585817 -2.472612197123108 1.1311663478270977
I 1.209952866177919 -1.1669805679666125 0.6431298674855688
O 0.454175365170571 0.16628871378291965 -3.125457959089257
C -0.12046292782628941 -0.14384754086342585 -2.1786415684535356
O -0.45469089924642064 1.8563446940652366 -0.1480906862853398
C -1.215792158894779 0.9619668673862505 0.1034647719677822
