8
## STRUCTURE-ID: 6456647e88e5695e111688ed ; CHARGE = 0; SPIN = 1
H -2.4330337289102344 0.6269954690120751 0.94511163952387
I -2.3846920985742246 -0.5213877223126115 -0.15241975518138523
O 1.9312252433554569 0.6691492149217009 0.5149783179990707
C -0.1318338650277684 -0.1812820497293401 -0.4034071068004221
H 0.41200046684826597 0.259765707479799 0.4629943249504189
H 0.24232371644750453 -1.16811786375599 -0.6521016649080699
H -0.06445517067018326 0.4628802138669903 -1.2727471846803387
H 2.4284654365311447 -0.1480029694827239 0.5575914290967318
