21
## STRUCTURE-ID: 6456782923cc83112732baec ; CHARGE = -1; SPIN = 1
H -4.4615284980912575 -0.5440386081456003 -0.5545716692354422
I -3.310477316852686 0.18239981804374025 0.3504280551328753
O -1.2852322837514631 1.2306621471992611 1.506513427959769
C -1.0847115385606991 -0.5403207045756842 -1.4177355545091552
H -1.5069275058620928 -1.5263997243861624 -1.3241597031995718
H -0.5922172145745532 -0.13560169980985198 -0.5403132107115683
H -1.6088743468243054 0.1605540407561776 -2.0445520661223093
H -1.2904414246079363 2.189442895137436 1.4402009860012168
O 1.2855241842501266 1.1264991699676123 -0.026045997558344306
C 0.9445320005788119 -1.0265575029787057 -2.8642897038994546
H 0.007745268837001756 -0.7621246005247747 -2.128740120575061
H 1.086340687281361 -2.0982313571035136 -2.787811695031913
H 0.6472002831042967 -0.6954205692971446 -3.8525971406643804
H 1.5417177710774403 2.0522471018220587 -0.009551711815561432
Rh 0.6969408317542838 0.44524327046177353 1.9107951784026909
I 1.528734192968642 2.9436327779102878 3.137200621420124
I 2.6478474376198244 0.00133728216046164 -2.209724057836133
O 3.2323186067878042 -1.1334200368312055 1.920309954336092
C 2.235748438942643 -0.5421542061503626 1.9461360465156907
O -0.6435508471347111 -0.911810857309609 4.212898645016297
C -0.07068872694251012 -0.41593863634620554 3.3356097163741247
