18
## STRUCTURE-ID: 64566f137cb1433413242a24 ; CHARGE = -1; SPIN = 1
I -1.884295855799249 1.2427731077769597 -2.7069742829004424
C -2.238021111550259 0.09942370191491791 0.7918996214509524
H -2.6695400814224435 1.0941243574054575 0.8194592661129548
H -2.4587678870548917 -0.47481808837586925 1.6847962745996063
H -2.56920027595334 -0.4292475357930471 -0.09383892141093395
O 2.405258294737812 -1.201410491590175 -0.4310796721712382
C -0.34661430547747835 0.8426506433323621 2.8923498003873016
H -0.6841751570323122 -0.04733104294861055 3.4084292227369404
H -1.0619419164371502 1.6531894400865406 2.9544651971219467
H 0.6294761325746248 1.151152304513258 3.245484477724279
H 3.2417435291080126 -1.699286258442979 -0.3484383820520854
Rh 0.28246938899066143 -0.19640593054543093 -2.020458960920178
I -0.9544425634832522 -2.50151023093939 -1.7090805618769394
I -0.09517171643215058 0.3154378597339602 0.7001429991706261
O 2.631687460167058 -1.7061452582627887 -2.591935010674235
C 1.953440508392391 -1.1700182820750487 -1.7139087611450765
O 2.350293677615308 1.8744165374167179 -2.560761222843156
C 1.467801879056589 1.1530051667931327 -2.3205510833103706
