12
## STRUCTURE-ID: 645666e09d62b54d020876f8 ; CHARGE = 0; SPIN = 1
O -1.7267988742519447 -0.24208263199451796 0.06434851824774458
C -1.2978015197908035 0.3039980893346191 1.294022392023765
H -1.727589308996338 -0.23614067326093954 2.142747309894092
H -1.557457065068848 1.3640960614634017 1.3712550679201514
H -0.21397165269398147 0.20349812688339247 1.323228538050406
H -2.687558869564093 -0.17407643210483986 0.011122876141776298
O 2.021502112494471 -0.6557433781844021 -0.17616956648056092
C 1.4611308890136108 0.09408651939825213 -1.235347369465979
H 1.7633349749169325 1.1280763982303925 -1.077568767550401
H 0.36970701373392256 0.033206786559423905 -1.2308876699826137
H 1.840432605474738 -0.2422871917245283 -2.2052548672208774
H 1.7550696947324627 -1.5766316746002973 -0.2814964615776986
