12
## STRUCTURE-ID: 64566a293a5b42413c23363b ; CHARGE = 0; SPIN = 1
O -0.6887972156986284 0.584899395462521 -0.6323143032071797
C -0.7375083609964035 -0.04000600905993673 0.6381321873934979
H -0.8391152125545732 -1.1077428345903653 0.43118048796819264
H -1.63270943089877 0.2946994813145576 1.1794174123575376
H 0.2635274614217879 -1.0562799586150258 -3.244961904081466
H -0.5184125066438255 1.527276308305357 -0.5067147547013082
O 0.8556866121249146 -0.8921826818617262 -2.507687714260533
C 0.5100861379291193 0.22172802535682104 1.4715497098704549
H 1.3973538176628304 -0.08455089250008452 0.9223224576630723
H 0.45676328351737755 -0.3442714030520323 2.39669768964039
H 0.5947775697801904 1.2789380438348583 1.715345768722325
H 0.338347844355973 -0.3825074745948942 -1.8629670373649851
