12
## STRUCTURE-ID: 64566637eaf3675e15230d7e ; CHARGE = 0; SPIN = 1
O -1.086646314169153 -0.3035470634647257 -0.9267795212100837
C -1.97405143374242 -0.03850671753911601 0.14171603302690639
H -1.4986678528004842 0.7165594562920583 0.7650391112021774
H -2.1532573504974875 -0.93518970866571 0.7411877035625205
H -2.9270370195553705 0.35235714861761175 -0.22306914625077404
H -1.4918309032853605 -0.9501875636670629 -1.5174255722944003
O 1.6162486785649515 -0.8053153042584535 -0.18042176496829312
C 2.09769518278386 0.4207998283472023 0.3158541918488498
H 1.536338446887081 0.7430080172786886 1.1996265827950718
H 2.048081407893138 1.2077684961035284 -0.4432975430796044
H 3.138503584158852 0.2643441287873151 0.5974357821258547
H 0.6946235737623936 -0.672090717831334 -0.4698658567582284
