18
## STRUCTURE-ID: 645689c3c127592cda530d5d ; CHARGE = -1; SPIN = 1
I -2.7375799841626063 0.8357262771662118 -0.2049749668588536
C -1.6926852932038128 -1.9736175900759114 1.6800716237582334
H -2.4653073638469256 -1.4503978013109702 2.2406907717148874
H -1.043068811179775 -2.507588778999513 2.372448695932849
H -2.1861029545854866 -2.698772579665084 1.024851261203281
O 1.698527185616368 2.2585721381141233 -3.0861914845245426
C 1.3370919316523728 2.1178233285598242 -0.3837493272018651
H 1.9537744664012646 2.8381654168972967 -0.90085396409446
H 1.9007767158081346 1.576114260800087 0.3694611358172795
H 0.46731851021178133 2.594902653669976 0.05598739121848982
H 1.567238694318326 2.0829736409916744 -4.017862231186959
Rh -0.6000426149954828 -0.7746915111059482 0.09001130841409247
I -1.0971459529026824 -2.2718787982547295 -2.1037339072557835
I 0.6563694222344612 0.7177659382502661 -1.8373024080970939
O -0.4421753715361061 0.36050465937498594 2.8513616844268697
C -0.48992675509599715 -0.07825521722478039 1.7866425140488997
O 2.1068635183504156 -2.0534400820809853 -0.0029109778449898254
C 1.0660746569157626 -1.5739059551065289 0.06605288052968417
