13
## STRUCTURE-ID: 64566c3d9dc49a279b351d70 ; CHARGE = -1; SPIN = 1
O -0.791703340771477 0.3704257211941979 -0.6781088196619012
C -2.397862406884642 -0.31085754384170255 0.6013676732950342
H -2.802349849834719 -0.2340785047925969 -0.39183560565176195
H -2.281075869624531 0.5999328512048956 1.1607456888327843
H -2.798409878876741 -1.1373499651763117 1.158900297386822
H -1.1050057295978688 1.2502711859200848 -0.9178682580113885
Rh 1.266842067245042 0.15412306698349296 -0.09478240831401596
I 0.9948196694317617 2.11789834257635 1.7151502648401784
I -0.17728814570052487 -1.761133363974402 1.4109389038598785
O 1.4085697117934277 -0.7686721851426226 -2.941281693066204
C 1.4500427766938835 -0.4532177015554976 -1.8304906702888608
O 4.180875761769748 0.08014172434453547 0.5312044440445753
C 3.052545234356626 0.09251637225958638 0.2760601827348706
