12
## STRUCTURE-ID: 64566a7962ca355d4e41e588 ; CHARGE = 0; SPIN = 1
O -0.9351559721374452 -1.5516310676734795 0.47705641704604146
C -1.6154134472522537 -0.539060667498036 1.1800930014300006
H -1.842972201434657 0.3140490649063138 0.5319123129294118
H -1.0358778830952577 -0.18953191744622255 2.040629867656706
H -2.550749239117055 -0.9704703088531792 1.5350742647593338
H -0.08147637696642003 -1.1902375406204497 0.17732725393963958
O 1.4463879728857534 -0.24246068238956386 -0.4422427297369497
C 1.197463837039897 1.0233997864018367 -1.0209648819768993
H 0.6860031603678025 0.9267162976028998 -1.9830168310878251
H 2.12380249017497 1.5869086294771406 -1.156696085423801
H 0.554677719782084 1.564384539088747 -0.32869121512645544
H 2.0533099397523613 -0.7320661329960262 -1.0104813744090646
