12
## STRUCTURE-ID: 64566ae514ceed31bb6b0e1e ; CHARGE = 0; SPIN = 1
O -1.3476918664999213 -0.8548697831752852 -1.4959101045824121
C -0.747380989019374 0.29164790104454247 -1.0755419653456808
H -0.5966270545471695 -0.424857319266943 2.892722885926229
H -1.2753722047473732 -0.401331642188551 3.273968873366787
H -1.1824879863533473 0.776522277052899 -0.20982634516548757
H -2.0820929412523257 -1.0889203103143898 -0.9168523561307814
O 1.5386695980440486 -0.43477751753648247 1.3007208826773446
C 0.3182704868877893 0.792694426174464 -1.6804828701034145
H 0.7651936130812467 1.7056791290182518 -1.3380276166205873
H 1.385100594943611 -0.39117373316005116 0.3512864343776166
H 0.7473975386137479 0.3102443899556465 -2.5405672651196616
H 2.4770212108490646 -0.2808578176040939 1.438509446720044
