16
## STRUCTURE-ID: 64567659dd896453b51d80aa ; CHARGE = 0; SPIN = 1
H -2.969426468172775 -2.0074024516979923 1.8153267533331934
I -1.9090788885970116 -0.7774163881194575 1.5446117814761247
O -0.48346504289596137 0.9751488848603417 0.8965256348134707
C -2.4477869750848615 -0.9183865916922977 -0.5173819123257215
H -3.4962766180241784 -0.6591132818883112 -0.6036428956266153
H -2.252051891364025 -1.9380471518913378 -0.829410823276754
H -1.831843784360918 -0.21368772235279898 -1.0635185088989356
H -0.939372562593419 1.814365219018162 1.014580747995396
H 0.9899169126051088 -2.0706217284889243 -2.0386725617728825
Rh 1.4815816010868692 1.0860405677698033 0.02459431117882356
I 1.1961397287697182 -2.0072634400782676 -0.47123693145791545
I 0.4023147065687621 1.658221348916623 -2.297747390413697
O 4.1379906778522875 1.6609311441489978 -1.1928201265862377
C 3.1239467069239484 1.3972288346632946 -0.7164578903699046
O 2.758429913725574 0.9949555708070742 2.730435203454147
C 2.238981983560888 1.0050471860250816 1.704814608477512
