33
## STRUCTURE-ID: 6456c4298f30814978462264 ; CHARGE = -3; SPIN = 1
Rh -3.6153276607961815 -1.5377974710931768 0.16630058243601503
I -2.772610647986096 1.0861737923918982 -0.10068958739293456
I -4.980531013685587 -0.9120718781107651 2.328155449322912
O -4.701783994405051 -1.1654014502403478 -2.359921697749993
C -5.057875650146506 -1.1254352801088645 -1.2056277247218885
O -1.8965158995701508 -2.7559833612275066 -1.9389372777150224
C -2.5375632899446163 -2.184727231579056 -1.1658881639163374
I -4.57334717110558 -3.997537043162576 0.18456706202235815
C -6.460055925188186 -0.78870124250874 -0.7996701752653171
H -7.051576670517412 -0.6882976856427232 -1.7087839186933502
H -6.878250750241541 -1.5609226918018166 -0.15357520421362417
H -6.464706092416301 0.14938213550320767 -0.2428946374402337
O 5.566627804686622 1.7896226248171576 -0.14257501442833412
C 4.9545297626203775 -1.5381826832734624 2.365367177851216
H 4.9256655269137735 -0.918281026241652 3.253993879837123
H 5.890973491686768 -1.448957802816437 1.8281186367100433
H 4.7230935791514845 -2.5715571027322657 2.598295143447326
H 5.669277267784323 1.407788304798501 0.7483953025082889
Rh 0.1993280398833219 -0.04264603950495537 0.36087745177891917
I -1.055369492994569 -2.071831019559615 1.695500655727482
I 3.2908745629589027 -0.8132380154776158 0.9798089992152839
O 2.219458065346276 0.5604822320897291 -1.6391464776407578
C 1.375285000094597 1.0568795847039547 -0.8533754266343666
O -0.23475395423414958 -0.6791739731009072 -2.4983230820290356
C -0.06896057718473293 -0.6123757774345514 -1.3359037955540087
O 0.757660105356572 2.233793274501809 -1.3023146392184561
H 1.1795998172344229 2.515469822070705 -2.132447836471158
Rh 2.794944565784967 1.8209066370677283 0.7936593784045044
I 0.678142000976025 1.4569134017877885 2.504227957277592
O 4.128187189063442 2.7139618788043665 -1.5267934732585144
C 4.282332714627605 2.1661072885133956 -0.4437064336472026
O 2.8685851432697222 4.806199837640545 0.8275570216845769
C 2.844664152977481 3.64943796092629 0.9157498677669134
