23
## STRUCTURE-ID: 6456b7a8d2af9719a75c71be ; CHARGE = -1; SPIN = 1
C -0.9563262480972007 0.645022576988429 -2.139099283514496
O -1.365672977289816 -0.3674221622098393 -2.494225324091517
H -1.8243195158032048 -2.6337681208643415 -1.1944015759873596
I -2.1714297877080018 -1.8060819529783971 0.26646424419465575
O -0.31894258532566283 -2.7457462192003046 0.3593480047861535
C -1.8176660065471395 -1.3656356586949547 2.3691761348953744
H -1.6883010764032045 -2.299319156510151 2.900601131983647
H -2.700680587526321 -0.8381316912144711 2.706195780526301
H -0.940660449122381 -0.7371394716889693 2.4709551595241015
H 0.2966909622025478 -2.36566205719805 0.9988494163286458
O 1.7167986936794815 -1.3247219473657907 1.733350207367591
C 2.302705865133648 -0.42931147250233237 -0.7733100983699059
H 2.1622266002707446 -1.4990792700161184 -0.869027702584185
H 3.2276547839564778 -0.2334261980980849 -0.2462086534612408
H 2.283111969112348 0.06210864025618704 -1.7417894524949242
H 1.6061270396082823 -1.1417944315953128 2.6664802464112247
Rh -0.19935657028563936 2.16503511455222 -1.3483816653594818
I -2.05691150350095 2.2036928156142075 0.7582477158939079
I 0.6970706079135803 0.3340979983940018 0.3704804951474497
O 1.9835273143789875 3.710068419965593 0.04554305936094965
C 1.1253333673105927 3.1972718574932415 -0.52496286703723
O -0.7749798207574491 4.098372295399146 -3.5896185825557114
C -0.5860000751997413 3.371570091474072 -2.724666390963976
