12
## STRUCTURE-ID: 645665e059b56c2b852eaabe ; CHARGE = 0; SPIN = 1
O -1.0866553137670754 -0.6014429394749812 0.34302498575534274
C -1.6521602773317186 -0.8678535125145838 -0.6848336534145866
H -1.297566914375406 -0.5115076885106209 -1.6596868805458362
H -2.5553592895134654 -1.4846173510552407 -0.7095450018104157
H 0.20286790758438347 0.2460904686270362 0.8316517338010804
H -5.356846531946049 1.7460413943709734 -1.6130555958095512
O 1.0955419880003392 0.6285989965127129 1.1447170007924146
C 2.1462017377273326 0.196051557694428 0.2435332632540846
H 1.935357985225394 0.622668815026676 -0.7339787457761446
H 2.1928279037922622 -0.8889157658487431 0.17369220554320844
H 3.0908028108730545 0.5928900171496784 0.60661304055621
H 1.2849879937309505 0.3219960080226831 2.0578676476541777
