19
## STRUCTURE-ID: 64567b215c1f587ba84b6a66 ; CHARGE = 0; SPIN = 1
H -4.1081681577437585 -1.9936104250068423 2.2414868738625793
I -3.96820950873344 -0.5670462405486181 1.565420788265156
C -1.5251801955930089 -1.3568158796992593 0.3922939442454242
H -1.4438039769517965 -0.30386267415904594 0.13753293670507838
H -1.2873540813119961 -1.642362382548611 1.4056215134007568
H -2.145079671329507 -1.9941756323988133 -0.21929274758927012
O -0.636494780977523 1.4967382639265132 -0.5110929341287448
C 0.6641689335869673 -2.2015105409267677 -0.5373506041821049
H -0.3119012641613502 -1.688152012337286 -0.15669124306575047
H 1.2459289717571433 -2.4642973706069062 0.34324355338397317
H 0.3862045865521883 -3.0495052100771014 -1.1572256023592686
H -1.0756004331431819 1.9934981523870283 -1.2038137726511153
Rh 1.3212185445270497 1.914685933389132 -0.0822534379351301
I 1.7355732365853191 -0.7729921555521064 -1.7185694763683999
I 1.0861348965527131 0.50350119979137 2.102155149182203
O 4.109124245273812 2.662852867045816 0.6845742731884976
C 3.041113123206696 2.3302222614231374 0.38934723046299763
O 1.505356438930227 3.979497134607036 -2.238423856707641
C 1.406969092973471 3.1533347112913535 -1.4369625877092056
