13
## STRUCTURE-ID: 6456888d7e08097b0a2eaaaa ; CHARGE = 0; SPIN = 1
I -0.574726636767211 1.9430992443322141 -2.116319619858125
C -1.4906842502203534 -0.9750298556886037 0.28280750849572234
H -1.3001947993682144 -0.8961119655871354 1.3545673209344362
H -2.02608839975419 -1.9041257078762173 0.07792698999615266
H -2.1118501303022263 -0.12925355719419238 -0.01998122793427667
H -1.3328805548888907 2.8547095773297824 1.130163656313137
Rh 0.9525483268279821 0.6580208344400094 -0.43295389177291993
I -0.10786330546484685 2.03832981869816 1.7339380703157756
I 2.8883752394089446 0.3586633760186716 -2.256039562087339
O 0.2160956909420727 -1.8770056306602443 -1.1678191184807356
C -0.22108098231661874 -1.0179380342770306 -0.4830241250823033
O 2.948446062060403 -0.8062625921399801 1.250662897507519
C 2.1599037398431475 -0.2470955073954481 0.6460711016529588
