15
## STRUCTURE-ID: 6456b71b8614ef08c02cdf8e ; CHARGE = -1; SPIN = 3
C -2.5627420289282368 0.12979280624979586 0.03087832224149534
O -2.7259618647340087 0.7510921675875444 0.9762597315014115
I -0.5375128706057145 -1.8544114419076136 0.38186320815367586
C -1.0708611587247903 -2.2253270710938646 -1.6936814375263225
H -1.802330424171721 -1.4679601870424654 -1.9605550778203857
H -1.4824263058197598 -3.2281285297669235 -1.736453685529971
H -0.16447128936298222 -2.138919821459911 -2.285586274369779
O 2.7320686996223236 2.3982575117887146 1.11444710141497
Rh 0.8648363950804716 0.5755188145808774 0.31906517242635885
I -0.6444210052127609 1.6773339735831128 -1.653672277557445
I 2.7842928398580824 -0.39033300253162134 -1.1960215193072394
O 2.7318733296186206 0.4596180748070433 2.319998538352023
C 2.4568006034639653 1.2984959842870976 1.508957038994245
O -0.5147525578611273 2.44903470881436 2.2323369106988857
C -0.06439236221719692 1.565936012100395 1.6421642483249814
