12
## STRUCTURE-ID: 645668df1a2b5b245d662c6b ; CHARGE = 0; SPIN = 1
O 0.03466084041486553 0.2937525538487628 -0.10910916131489562
C -1.3541555090933213 0.07102128240244387 -0.22769477254993953
H -1.7979996331923702 0.3463921167636636 0.7261661016639146
H -1.5645125826093464 -0.9827259314584941 -0.44014130285738623
H -1.781062900497341 0.6882354373836906 -1.0253779249505923
H 0.6626739370790226 -0.18355956721755876 1.6521294627385206
O 0.9405155120291171 -0.3218488877263379 2.569675502717559
C 0.7457040224630909 -0.0450982996208316 -1.2800442772694827
H 0.6348315091449419 -1.110285947108727 -1.5111698571798031
H 1.7919068700635425 0.180573401849606 -1.0880005114124516
H 0.3931646920846762 0.5434847650840736 -2.1337170672204895
H 1.2942732421131256 0.5200590757997037 2.8672838076350495
