18
## STRUCTURE-ID: 64568ae248a9a556b632bae0 ; CHARGE = -1; SPIN = 1
I -1.801899317344552 -0.14962415683659436 3.072047808061405
C -2.1220179250788576 -0.5717815334766976 -0.18603324365861887
H -2.03836634783711 -0.308844145451724 -1.2427053760345532
H -2.9319939288121257 0.02410731365255379 0.23971331975583138
H -2.389727288595999 -1.6333108274517951 -0.09844633711580898
O -0.4430403466811426 1.5794475224782578 -0.0018537599976775957
C 1.0657590955205596 0.48428235078463755 -2.6143744027725933
H 2.1282387885141905 0.6708182818139476 -2.725247211292654
H 0.5875201782450196 1.2567616439717062 -2.0166892820954403
H 0.5687519569565025 0.3354739775260132 -3.565615048608862
H -1.2651846459878329 2.062134489629783 0.09842017987239308
Rh -0.2977025011855319 -0.38852450661551385 0.8452320803506481
I 3.2091377501212617 0.6741013266644037 0.5690067537016682
I 0.8479644652125197 -1.3398072510073782 -1.4628893049893705
O 1.416264963475587 0.8621130421648033 2.8671038620893596
C 1.3910624913649448 0.26765315775534754 1.8374342657544662
O 1.3707452971806557 -2.2625096617172007 2.523653378746832
C 0.7044873149319174 -1.5624910238844159 1.8612423182330482
