12
## STRUCTURE-ID: 64566b7fe1ec722af65c0b03 ; CHARGE = 0; SPIN = 1
O -2.3836691287235543 0.4093468083255291 -0.39612616602541123
C -1.6143671563062212 0.39914027697425536 0.687716448346186
H -1.7384021488846357 -0.41121581399912666 1.4022560716936792
H -1.5065356305684965 1.391122684255179 1.1142418195193113
H -0.3154588351863182 0.1269558008065973 0.29470192744167245
H -2.6445007620332635 -0.4768324236308709 -0.6967540246514936
O 2.7417382117339124 -1.365574608284796 -0.8027264491158111
C 0.8200072759701961 0.13141575841551767 -0.026633545770058966
H 1.1481299100203024 -0.867934203368059 -0.31934622379627275
H 0.910651096200395 0.8341021166246894 -0.8469402749262521
H 1.3769909484134997 0.48308547267421265 0.8333867921595906
H 3.205416219364184 -0.6536118687931319 -1.2437763748751403
