12
## STRUCTURE-ID: 64566801d07e192d7a304578 ; CHARGE = 0; SPIN = 1
O -1.6484115013171208 0.7130464379305999 -0.7097660387634595
C -1.8135742638147496 0.13683052909946034 0.5694045644083
H -2.6237595793666366 -0.5987552270837231 0.5733543208777986
H -2.0161006731910622 0.9010142195923139 1.3261367713423164
H -0.8780319875376918 -0.36392622776264877 0.814078245716225
H -2.4657472936050278 1.1628096057061736 -0.9564197356497943
O 1.5812074684112556 -0.8179441521384556 0.6402188499954494
C 1.8275171914700772 -0.1282362426517853 -0.5676453151501405
H 0.8734672611844032 0.2768708720567374 -0.9014628993187136
H 2.216460088397654 -0.801387886079978 -1.337751546219868
H 2.532073992887485 0.6955089990122618 -0.41886365307058326
H 2.414899296481414 -1.1758309276809558 0.9687164358324641
