12
## STRUCTURE-ID: 645667316131a74bba351d70 ; CHARGE = 0; SPIN = 1
O -1.0241254439346728 1.4732294115876976 0.5763893162792207
C -0.8278606251181687 -0.4589207999427133 1.0199337289262995
H -0.09990264985997484 -0.7065165947727233 1.7714476539577924
H -0.8499143099851034 -1.1113159025576544 0.164079122135928
H -1.803846310240112 -0.24625618311175504 1.43463768571087
H -1.5859385987991172 1.4878250166426772 -0.20758854490343898
O 0.9586015321900382 0.2574650802881806 0.14845271332863635
C 1.2451193592352492 -0.35913895636099125 -1.040954762103686
H 2.2571018204208686 -0.07619755677427423 -1.3679511288833774
H 0.5467942571849128 -0.08209470132409374 -1.8498939622463542
H 1.234273473200254 -1.4574617367606342 -0.9395088671849768
H -0.05030250429415335 1.2793829230863725 0.2909570449830563
