18
## STRUCTURE-ID: 645672b050ba6170d433a751 ; CHARGE = -1; SPIN = 1
I -3.9313725565051505 -0.8800300753047494 0.8543367401434907
C -2.462418375431533 0.30897845352956954 -0.1332099295736149
H -2.8187138738232727 1.331317498618556 -0.1713122940667388
H -2.327926197167226 -0.08436789455408744 -1.13383251825828
H -1.5230817380085775 0.2555689760901338 0.44771984595834713
O 2.1343002303989342 -0.6492958520652811 2.5828096320872747
C 1.0627814814696277 -1.0211610871288255 -3.0785281996082445
H 1.7602439599277926 -0.22398411254731773 -3.3087217641060622
H 0.048084242392621566 -0.7062541472968247 -3.293442326725477
H 1.3152795415670142 -1.9387807072642553 -3.595526173595536
H 2.123904804871522 -1.2156512079010406 3.379410398823971
Rh 0.739934279142518 0.7018623879986697 0.5215772843575722
I 1.2039508214851808 -1.42705371544708 -0.9250415106821814
I 0.3882138569067552 2.3161952769022873 -1.5407535986741523
O 0.7528846931369426 2.6725990879071087 2.7562574901762797
C 0.7307091780405174 1.963887330801412 1.831734832447479
O -0.07053620998903497 -0.9630685133168564 2.6989544643586614
C 0.873761861585378 -0.4407616990214059 2.10756762693721
