12
## STRUCTURE-ID: 64566b4ebdc1765e020b3f71 ; CHARGE = 0; SPIN = 1
O -0.6004733792675987 -1.5652151758908162 -0.1109471089506107
C 0.17565613979711092 -0.8886167064717315 0.5133147500236088
H 0.2256975395882641 -0.9465662048813305 1.6167940682727637
H -1.9854325338360859 1.6608008247305373 1.8053566286268952
H -1.8914590437645464 1.0258717792457743 1.364995123048042
H -1.480354650007057 -0.6905587563334097 -3.240904267182781
O 1.9353967308501419 0.7645290186332692 0.8431253853565717
C 1.1523921903063692 0.07906245123281815 -0.09561890934235613
H 0.6108523685626842 0.7635963019354826 -0.7649343586180872
H -1.3745741004503784 -1.0749111136868905 -2.5721110595869203
H 1.848234193288191 -0.49421835450931845 -0.7183534313663852
H 1.3840645449329072 1.3662259359956128 1.3592831797192562
