18
## STRUCTURE-ID: 64568cabcd5e57619d56edee ; CHARGE = -1; SPIN = 1
I -4.957521433907799 -1.6988763233353967 -1.2494164533477827
C -3.5052116747099897 -0.14265127520839632 -1.2716126105758634
H -2.9916983297634583 -0.14532853424048592 -0.31701553278178113
H -4.019773742159834 0.7954366302998543 -1.4294558755916051
H -2.805187459901707 -0.3439166048707478 -2.0729056811170037
O -1.5001626693086798 -0.20883726172678962 1.3605696972306018
C 3.9569620292893024 1.7772811640629764 0.5623230064266934
H 4.222916533690711 1.0434948855787873 1.315778953571972
H 3.4983748970468014 2.647373006568035 1.019970829703259
H 4.805125940281344 2.044803006687858 -0.058078113173574905
H -1.5075144548920767 -0.4548536408076631 2.2904639502117963
Rh 0.36512955506851336 -0.10791090704464647 0.6078141429492436
I 2.46709569101211 0.8524327956804464 -0.7647758712579457
I 1.2819467419037351 0.8224848265396455 2.911555533363463
O -0.4238532350789398 -0.9406758985307758 -2.2065498812340407
C -0.08305142893155072 -1.064359860734906 -1.0370443788504993
O 0.7458673693914704 -2.9480315163993014 0.45945897484923776
C 0.4505556709700472 -1.927864492518476 -0.12108069037617021
