12
## STRUCTURE-ID: 64568f080c16c633ee610aaa ; CHARGE = 0; SPIN = 1
C -1.5922446879359022 0.29351388294229636 0.1905967688532245
H -1.4615669921925172 -0.44305467005542915 0.9874777549875127
H -2.2161142353171686 -0.09954819327186462 -0.6189103544124664
H -2.0179729652611913 1.2172512373940156 0.5805227665878796
O 1.123101788016197 -1.3764909472646314 0.4703333404717498
Rh 0.2785417326947397 0.5570790696324448 -0.6879330425526394
I -0.2537560922081686 2.7530349907189953 -1.9469396211921128
I 0.2822668390373387 -0.9149471467721265 -2.7880364170061895
O 2.252544004957898 -3.3442763186176565 0.7609891489568229
C 1.6905470069225137 -2.367504925812004 0.608279796454325
O 1.1598789605801774 2.171569163695455 1.6540864219181968
C 0.7547746407060848 1.5533738574105085 0.7895334369336963
