12
## STRUCTURE-ID: 64566b9b1ecc37164a1a5620 ; CHARGE = 0; SPIN = 1
O -2.764465033244601 -0.19901433556477177 0.9156157919251735
C -0.48120720288485896 0.0905543401029868 0.509586461925082
H -0.9435665021816851 0.7916331820223445 -0.1645503577088865
H -0.6166973010981599 0.36081127969254484 1.5427214591630833
H -3.1537538568872416 0.6574581476187121 1.1290494925308947
H -0.7591101465042494 -0.9284793904132992 0.2981533055598702
O 1.0720467771209092 0.2401439578287707 0.2511487775777198
C 1.4581421903802525 -0.1134645220029655 -1.0902920002250247
H 0.9476958976684572 0.5685020855705962 -1.7668263831521063
H 1.177365392011239 -1.1385004561665006 -1.330974253769779
H 2.534300398025397 0.02280538992991956 -1.178949836584872
H 1.5292493875945472 -0.3524496786183377 0.8853175427588429
