12
## STRUCTURE-ID: 6456648cfe88b64e785b5c2b ; CHARGE = 0; SPIN = 1
O -0.9114395665671345 1.5027612388512457 -0.2589523381318137
C -0.7148437820664068 0.36240244423504864 0.38492981332621967
H -5.3786973942624945 -1.3416118387158342 1.1015201051608738
H -0.6827836560104092 0.5127624590311453 1.4645403266230008
H -1.2969296493789395 -0.5079998255581079 0.07886961938351629
H -1.2587061353263227 1.4035203442181343 -1.162146009995513
O 1.9302472146681455 -0.8117930813198996 -1.1672232463260224
C 1.7075567858715466 -0.36102689195571347 0.05577282467376089
H 0.47633926495193235 -0.03428922804682986 0.16907411957862364
H 2.1992723058664443 0.566069650980963 0.35770924892631795
H 1.7602183409663927 -1.1643341563394165 0.7921232311425931
H 2.169766271287263 -0.12646111538073465 -1.8162176943615678
