12
## STRUCTURE-ID: 645669f05865b138551a562e ; CHARGE = 0; SPIN = 1
O 1.2864681718534605 0.5637525643525585 -2.947283585946086
C -1.0064806927185133 0.7517682104166457 1.7728152674261246
H -2.0203587801481255 0.7816168583226196 1.3834726935440123
H -0.8199177447693912 1.6176108321484413 2.405888875586884
H -0.8630381687955306 -0.13438243783702614 2.3884940133296664
H 0.6726050530883337 0.7656933750592487 -3.6576691543963418
O -0.2664026696292482 0.7700971687065471 -0.506048366041058
C -0.011208534797223826 0.7380834190110404 0.6744641516819799
H 0.7129994258192958 -3.3276089172177197 -0.4630448041818366
H 1.040949367416534 0.6936734114546698 1.0097223351816773
H 0.4984281046538604 -3.8544813658936468 0.06667058576798718
H 0.7759564680265394 0.6341768814766158 -2.12748201195301
