13
## STRUCTURE-ID: 645673e00b943037a75b5c14 ; CHARGE = -1; SPIN = 3
I -1.8504968038939233 -0.0883874175598402 1.0119594393860194
C -2.9392440468986427 0.008827107793489589 -0.8739433885889828
H -2.7363645895294297 0.9800823826724441 -1.3137870058004066
H -3.9892836741340307 -0.11840250309877441 -0.6364581768239591
H -2.5678570420049174 -0.7931671969146176 -1.504084160528634
O 3.4894258000495015 -0.5512090970521512 0.05197986241392167
Rh 0.8451062517476101 0.0473738444871746 0.21436901560331945
I 0.46886378845985127 2.236817602508314 -1.3433597276005373
I 0.5615179765949045 -1.8209516506040286 -1.621641898043974
O 2.333704521349625 -1.8597907457382639 1.5207844740492975
C 2.596456939734757 -1.0216739278349116 0.7037831986870342
O 2.2217710449369252 1.8682123549649998 2.1821949965256255
C 1.5663998335877825 1.1122692463761725 1.608203370721255
