19
## STRUCTURE-ID: 64567ae39e4b173a35390831 ; CHARGE = 0; SPIN = 1
H -2.873634530321693 2.8177576446045016 2.094482410543844
I -1.5877616015560163 2.1542543285199205 2.723525298510186
C -1.1662345804668581 -1.614219174698816 0.6812248789658051
H -0.9996490210174287 -1.7802663354845523 -0.3836194186395522
H -1.5329271212778934 -2.5247082784657233 1.1570596683908172
H -1.917361059180902 -0.829062077428236 0.7955543885053965
O 1.1383283645137876 -1.041568774394869 -1.4445046170844493
C -0.3804300862636386 1.2158037415947889 -2.887235777482916
H 0.13320474165552712 0.2630773223084556 -2.975204855389304
H 0.17746899774323668 2.0163035885950613 -3.3574727413965824
H -1.3962071721164977 1.1618068911648591 -3.259033107711242
H 1.6698344093828132 -1.8244978146176871 -1.6136299100708922
Rh 1.3404703939752536 -0.09071721857136898 0.2587501181961564
I -0.4737226031071693 1.6151122070918857 -0.7735656903803089
I 3.5462527221494407 -1.4688691846193367 0.7255273559139244
O 2.1377841759981306 1.5977890103884764 2.5995700772563457
C 1.744613262242048 0.9571013144768744 1.7375995947859448
O 0.37588841087884795 -1.4385046782710027 2.518829537904559
C 0.0640822967689708 -1.1865925121932255 1.4021427891821356
