8
## STRUCTURE-ID: 64566392d6e31f1a9f7ffa88 ; CHARGE = 0; SPIN = 1
H -0.8793613953392246 -0.6322119604121103 -1.1456413367354432
I -2.322792154800711 -0.40446941862842356 1.5513035582868144
O -0.6664416743685369 0.26566773641721514 -0.7870695196827442
C -0.46547101457151635 0.2232681482410668 0.642247197637203
H 4.154866402361341 -0.8608252783122522 -0.9379849815909312
H 0.3158705729874926 -0.4745406401521288 0.9394563958282997
H -0.25421276303725227 1.233323826610504 0.9887513913419649
H 0.11754202676840195 0.6497875862361264 -1.2510627050851697
