12
## STRUCTURE-ID: 64566b521bd10162ac6f2ca0 ; CHARGE = 0; SPIN = 1
O -0.9439395357823388 -0.04227220612017687 -0.9624910986599153
C -1.5558555817548956 -0.3512924711374025 0.31013263619175113
H -2.620050544529096 -0.5010982642568622 0.14038912897262884
H -1.378569590836532 0.43652658207619516 1.041702659938528
H -1.1059155361137794 -1.2712645066849935 0.6782826347052845
H -1.3678760101307403 0.7677258707160994 -1.3306135387376288
O 2.5372939744277665 0.0516354488042759 1.5485825555607582
C 0.4785839555823287 0.19135040729385452 -0.8691860182585902
H 0.7259117012591894 1.023396056111987 -0.21226348825815883
H 0.9595588604166284 -0.6826509885335317 -0.43572943894438065
H 0.8606758699886112 0.35989823331111764 -1.8719974099938221
H 3.410182437472857 0.018045838419438184 1.963191377483549
