8
## STRUCTURE-ID: 645688083753c675e01aaa0d ; CHARGE = -1; SPIN = 1
O -0.1306517222832914 2.284987286916984 -1.4427568736455556
Rh -0.20869530439498146 0.3442761686448424 -0.45661177866189573
I -1.9339054476701976 -0.8421356499706353 -1.9133821111431166
I 1.1581896396449651 2.5245981050192627 -0.019371239049076363
O -0.9828799045949306 -0.625999034446129 2.17324261198106
C -0.2711454738673417 -0.6969488053487285 1.2005322020935052
O 1.6514221285942428 -1.8372025766137545 0.05834200051709324
C 0.7176660845715247 -1.1515754942018477 0.4000051879079716
