21
## STRUCTURE-ID: 645677def08f0a4fa15a8529 ; CHARGE = -1; SPIN = 1
H -2.1307754971611135 0.6567839738537357 -1.3937807178684671
I -2.8982685555797914 0.6920454199558571 0.22031248897865094
O -3.406808452967404 0.76093635699886 2.3480753238471737
C -0.7625693878481951 0.48385678674790317 1.0764321550966056
H -0.1987583021086096 0.7685617970933046 0.20227747099768673
H -0.759288908387684 -0.5388010378660608 1.3963133898425168
H -0.8219716571316324 1.1945761637124883 1.8757473461121281
H -4.28458773098321 0.4062195080016849 2.4865062589757314
O 3.271175868474743 -1.3939377026801734 0.22635520260375713
C 1.5114315344311802 0.3548508245004711 1.7341322600838167
H 2.226550737603708 0.7528523291699094 1.0023448412247464
H 2.0141224024453153 -0.41867106045802366 2.3220320204308904
H 1.2761897356427097 1.171078768271938 2.424292973886591
H 3.806252022660494 -2.1407694018166183 -0.05316147067049882
Rh 0.060594574217271165 -0.6110889661696989 -2.0122840390714862
I -1.3784137982908944 -2.7181077925148087 -1.4839525647363794
I 1.3622744582399346 -1.8675973042102099 -0.16887416163031047
O 2.2366549392438433 1.42614570576737 -2.1971564203180547
C 1.3469923075526133 0.6970329707934626 -2.1554562930307304
O -1.5465416264024492 0.35397036420403316 -4.363715078698198
C -0.9242546636508162 -0.029937703355367072 -3.4864409860561496
