23
## STRUCTURE-ID: 6456b956b9a3b1486112b084 ; CHARGE = -1; SPIN = 1
C -2.2915391793502966 -0.2706874075370624 -1.0488754916144911
O -1.5961658356317665 -1.1579956111824505 -0.6988272024291593
H -1.877093038656465 0.9116451668541445 -0.6246081275679496
I -0.5343591412249059 1.554877885738199 0.6607398320268099
O -2.1845409057078435 0.8833098618537294 1.6197206224465945
C 0.3324082807797189 1.8357735962051047 2.6396143717542238
H -0.18626578318516848 2.649402165619413 3.132406452650065
H 1.3767144852041975 2.0825483266023963 2.4827736334902943
H 0.2529090969121265 0.9025561562954529 3.185822664532689
H -2.125348294257703 1.065927490028038 2.561514587648769
O 1.821624419086882 -0.8708856468431939 -4.393421806918097
C 0.31721420616728346 0.8547572970867079 -2.8327976953141887
H 0.6871264102448381 1.053087977264212 -3.8291971654702355
H 0.342452984743216 1.7347489048174867 -2.196538156565734
H -0.6779052853266869 0.4254234494706696 -2.881676081748255
H 2.540718537068818 -1.4677333468837586 -4.595200529418953
Rh 0.44647111633037817 -1.0560797056135747 0.30416182722702756
I 2.8025074231550597 -0.8406090812821221 1.4515233737851585
I 1.6532991328997466 -0.59818256433607 -2.005710460784387
O -0.24770259879726583 -3.8256421961335145 0.6463129167897356
C -0.038549730793263126 -2.7783546548422966 1.2162778471027649
O -0.5571960619855606 -1.3772456808463855 3.1716330388254272
C -0.25678023767532854 -1.7106423823351038 2.034351549551899
