13
## STRUCTURE-ID: 64568cffae7aaa155c6dc15d ; CHARGE = -1; SPIN = 1
I -1.300781691541407 -2.634882632159199 0.27287216169152817
C -1.0038584942382884 0.9851407689387076 0.5361595845979441
H -0.4572926084624448 1.6213500099409575 1.2514619787070593
H -1.4869073633475471 1.6152234098323368 -0.2092946955730241
H -1.7558417488080555 0.45237184519680174 1.1166878511920932
O 0.7212490360783405 -0.6550886585610808 1.8533551956071925
H 1.406051195690178 -1.2560207864697595 2.1621903888523466
Rh 0.8077342982284264 -0.04688418214535202 -0.024129824686264234
I 3.215331791509522 -1.0712791452645953 -0.2815976831270819
O -1.5517227075164428 -0.4404559340389492 -1.6664363289693944
C -0.889555503976361 -0.6323257994421901 -0.6984297274922647
O 1.2556730771487403 1.2993723619948556 -2.654096466842065
C 1.0399207192353424 0.7634787421774476 -1.658742433958075
