18
## STRUCTURE-ID: 645672529871dd70e37cab91 ; CHARGE = -1; SPIN = 1
I -1.7610957661976903 3.030446212014868 -0.7354105151471626
C -0.8456736326534979 -1.5509957888131554 1.627790537504167
H -1.2095745326568141 -0.6924927224347724 1.0615701303222302
H -1.7052410211079878 -2.132898067706187 1.954758876351868
H -0.3169375968201199 -1.1798447154238012 2.5013828059046035
O 0.6296057010941941 1.4551723177391258 1.2765383932700607
C 0.04483088416471117 -2.426434640366385 0.7809933863472089
H 1.3769104377250057 1.9277456243181301 1.6610014259450225
H 0.4695466024671726 -3.2520398508685857 1.3464400671187937
H -0.4657335447956006 -2.7934513225631172 -0.10719662580428499
H -0.1392513177756246 2.0331891830869244 1.3701001078078507
Rh 0.8479330778541913 0.8012650692199137 -1.3825036328547038
I 1.7756387845032682 -1.3052959435602023 0.01888702360720783
I 3.187451484994437 2.005123078593853 -1.2610986129877784
O 0.19881093666157107 2.6674613760628083 -3.627079158965369
C 0.39458101197237594 1.9927166610693627 -2.713830306105854
O -1.7408407691267056 -0.5373680839914275 -2.033128188701334
C -0.7409607403028736 -0.042298386377331895 -1.7392157136124766
