18
## STRUCTURE-ID: 64567336fa3d8a41445c71be ; CHARGE = -1; SPIN = 1
I -3.0365938239768564 0.8922286133411224 0.252400078628124
C -0.912803531292114 1.276797917699314 0.4651295512017734
H -0.7876207252540238 2.301028756809047 0.808610031980221
H -1.5699697719968073 0.42069001551609797 -3.512936955214911
H -0.5073369605364619 0.5681893353640483 1.185893390600173
O 1.8769341280848575 1.1454180491610784 -0.6246418830169137
C 0.28168714253996047 -3.183266682709923 2.7176026781476184
H 0.14246914114265077 -3.2680475594140344 1.6468315408602792
H -0.6665000352942592 -3.217339313060532 3.236253566547182
H 0.9640181242546915 -3.935074655380377 3.089385058628048
H 2.854813519640326 1.1289002945335025 -0.7301848232644447
Rh -0.7497384202467552 0.8452150991656744 -1.4885593231467393
I 1.1595836589650328 -1.2669486079010874 3.103365292622002
I -0.37053564367271236 -1.6700511733379864 -1.0320263931550782
O -0.793917020255247 3.6205292079380977 -2.5386060757604243
C -0.8094600220687016 2.6055171886000306 -2.0089234746340807
O 1.7143917736437027 0.8032979194134336 -2.828957255575553
C 1.2105784663226975 0.9329155942624976 -1.7406350054472488
