15
## STRUCTURE-ID: 6456b8169e34545af75fdab7 ; CHARGE = -1; SPIN = 1
C -1.6535380152845902 -0.6879003745068383 0.9612203013504698
O -2.49919718199618 -0.6589256473003796 1.733120251171649
I -1.6272734284529267 -1.1425871132482879 -2.3464346725845724
C 0.164752413503223 1.9092865673277513 -1.4090025133578812
H -0.8036921463502644 2.0955972810301877 -1.880720617729382
H 0.7662978543239529 1.3198536983848241 -2.098731297290741
H 0.648477345560169 2.865267699773567 -1.2099739725823793
O 0.9826371907962514 -2.1686825601189543 2.024663613258611
Rh -0.17165836399654041 -0.7837584557471399 -0.12756734774413458
I 2.189174463960962 -1.2637832052324622 -1.2016600290205421
I 0.1716685693098625 -3.6171978764108723 0.9596245117061595
O 1.4075139973884272 -0.04447524629785352 2.220928360961707
C 0.8704441182745833 -0.8863714102976904 1.540926719153518
O -0.3382019575126427 1.820896976091077 0.9277886969308181
C -0.10740485952431726 1.2427796665530495 -0.09418200422328941
