12
## STRUCTURE-ID: 645666ff48a83829bd051b80 ; CHARGE = 0; SPIN = 1
O -0.7697523159384286 -0.7183711603139095 0.21679555579132795
C -1.7149525738440847 0.26233211884369134 -0.18223542331089626
H -1.7816318344554958 1.0786068524995134 0.5366866848019627
H -2.6823454847844306 -0.23736430008540332 -0.273101872051926
H -1.4054206324300682 0.6464292231104241 -1.152469306042166
H -0.9832201430137133 -1.0544511729085186 1.1125263886489545
O 0.7462907274124094 0.023237834947274907 0.6452218317840247
C 1.5396560439083726 -0.17875567890746066 -0.47593848975962205
H 1.5268622546363695 0.6835936309508824 -1.1486641644388444
H 1.1850172498667597 -1.0813119094158488 -0.9853507121131563
H 2.5608277608212493 -0.3934251050148812 -0.1589297195070902
H 1.7786689478210624 0.9694796662942334 1.8654592261974352
