12
## STRUCTURE-ID: 645668a24abdfe7ade112993 ; CHARGE = 0; SPIN = 1
O -1.369157171915775 0.8751959303157852 -0.8302681395247317
C -1.1866952394874313 0.22432423467922627 0.29999222452704355
H -1.3124870289458053 0.9060290455605939 1.151543965843559
H -1.2764174789963927 -1.379897846040476 0.7618775340982935
H -2.0428228866377776 -0.667942707594806 0.4765089135410846
H -1.0658566997522403 0.4037220690995367 -1.6256992829633494
O -0.02033296147752098 -0.6021166519396409 0.38267067634567553
C 1.1983343824022936 0.05928016474872988 0.7336178852557803
H 1.3361280982627453 0.9477947019604269 0.11745631048833896
H 2.0029346378921997 -0.6405541030672607 0.5260572028237978
H 1.1878384343556967 0.3275651828081829 1.7909372023039984
H 2.548533914300018 -0.45340002053029105 -3.7846944927394928
