8
## STRUCTURE-ID: 645663d3358358201c242a3b ; CHARGE = 0; SPIN = 1
H -2.7652757968524146 -0.36973618816814574 0.4235215342293437
I -1.4106065718334173 -0.6157672361124532 1.2437168851207123
O 0.18515806284093642 0.0386856497125718 -1.4654242130225603
C -0.08927861254758689 0.770117771665261 -0.45394833879725544
H 3.301826547906113 -1.8517678931329247 2.0255081910333144
H 0.6752837410190725 1.0467202755377636 0.2683716931524013
H -0.8944663822647224 1.4827946768127358 -0.6287712136047935
H 0.997359011732018 -0.5010470563148097 -1.4129745381111727
