21
## STRUCTURE-ID: 645677467f52d13ba64975be ; CHARGE = -1; SPIN = 1
H -0.7275472208590051 -2.636625962128 -0.38658324405218264
I 0.87329365534727 -4.37428929167196 2.9337228785135183
O -1.772584749691072 -2.110060252269582 1.744612767831199
C -0.7685362965506067 3.8634062845461696 -2.9499838544254082
H -0.16653216895334247 4.54151575297683 -2.350428667294016
H -0.8306752474116428 4.257261824295047 -3.961833777641291
H -1.7697967951749929 3.833106316403245 -2.5272685474420693
H -2.6935088468113366 -2.061374953130957 2.0751444281576283
O 0.18732331156241394 -2.7407273577356 -0.08847808596867476
C -0.15096537389570672 2.472994685647561 -2.9518278283197232
H -0.7538697662635687 1.785851148378278 -3.5408441649572833
H 0.8512761815073273 2.498805957406737 -3.372848877419513
H -0.07944274909029202 2.085650204610895 -1.9365005070575858
H 0.7560088403330083 -2.7550258801501495 -0.8728118421514075
Rh 0.9880441473099876 -1.889786759440245 1.9481152518031948
I 0.5220349205009077 0.5706514489705367 1.047123680384909
I 3.541778679470801 -2.0894962708757663 0.9119298349595285
O 2.2717914423259082 -0.8571486605068377 4.400348064294537
C 1.753391017936488 -1.2563926109108214 3.4593982796735907
O -1.1556895528254942 -1.384908997808065 3.7682292635201367
C -0.8757934287627129 -1.7534066266065877 2.650784947589139
