12
## STRUCTURE-ID: 64566aa5ba472d37f20b3f6b ; CHARGE = 0; SPIN = 1
O -1.7329561104620157 -1.4371141438507977 -1.70438633094489
C -0.11646870877187408 -0.04509245032860647 1.3825824956539166
H -0.7996470235195549 -0.8537620664792721 1.6319251220938287
H -0.6227203152889864 0.9194990335866792 1.5025155188038037
H 0.7487554326966487 -0.07717747264921902 2.0528196855194625
H -2.332618563001794 -0.6882143279072398 -1.7552148105051673
O 0.27614069337212316 -0.24432798471950917 0.04173787461485656
C 1.2109725993105507 0.7133330353174291 -0.4055389658844721
H 1.4401221607741637 0.4677390003156948 -1.4400367697677539
H 2.1285360890704657 0.6727454901644404 0.19172085026414176
H 0.7933305291073429 1.7251813793541777 -0.34964426075267696
H -0.9934467832870725 -1.1528094928037806 -1.1484804090950491
