12
## STRUCTURE-ID: 645665aeb89d653a8e32dfdb ; CHARGE = 0; SPIN = 1
O 0.09561104635540728 0.15617698402691652 0.30211888730862796
C -1.0861572759084799 -0.47747750130652655 0.7436488023442973
H -1.7717210137470814 -0.6545069452604853 -0.09217910193335091
H -1.5945817116704561 0.13015999616405177 1.4996986532219505
H -0.7882881099533673 -1.4286068306791122 1.178568565072193
H 1.3050739299240772 -1.002686362785331 -0.6242892049888428
O 1.9436970145750259 -1.6158973908708896 -1.0191393003652547
C -0.14563682669576206 1.4138722921682843 -0.2912951239940781
H -0.7835371255552899 1.3133775812779327 -1.176234533894745
H -0.6262062825904139 2.0940393103942307 0.4199485909057237
H 0.822813743772541 1.813886319253206 -0.5823922433351849
H 2.628932611493806 -1.7423374523822825 -0.35845399034132
