21
## STRUCTURE-ID: 6456772e87b55a76594efca4 ; CHARGE = -1; SPIN = 1
H -3.6992507662431806 -0.6630062347454291 2.6557486485339905
I -2.927370435023042 0.23449668794782602 1.564794651985774
O -1.591860072392724 1.828766075185053 -0.27129916906469953
C -0.7435221279981962 -0.3476700022750492 -1.7917698506933912
H -1.5935138919755005 0.2359934105384884 -2.1137489565450283
H -1.0711798738008604 -1.2550602537466604 -1.2994584982400152
H -0.10276794997838326 -0.559854651280801 -2.63496881051741
H -1.5341928416374933 2.772759428310087 -0.11574106703648288
O 0.7172062010860802 1.7526188553761406 -2.5571276967075396
C 2.1874607412953058 -0.2454075477676665 -0.9529224257518639
H 1.932344792715269 -1.273948795446739 -1.1804238059934467
H 2.888760733361439 -0.20365210483942886 -0.1257392566680727
H 2.615782393445407 0.22537024897385957 -1.8280447190661353
H 1.0128669995114459 2.6575903195733384 -2.4734926500732057
Rh 0.008632822480698384 -0.38688558891092056 1.8085450569939252
I 0.5554311365306134 1.9720196895001856 2.8346428068568623
I 0.3991509773702348 0.8485353868703978 -0.47616642455633185
O 0.41680548106707527 -2.8206104967216894 0.12582126870874902
C 0.21775007122638274 -1.9149805571927234 0.8179588436927056
O 0.22296935083961858 -1.6721249736941812 4.5212603190009535
C 0.08849625811980442 -1.1849488956541092 3.4921317351406533
