12
## STRUCTURE-ID: 645667fd8942363aa1248ae8 ; CHARGE = 0; SPIN = 1
O -1.3835527028789893 -0.6956597380598497 -0.5507886976573484
C -2.085876461949586 0.47459244707374054 -0.19075921958591416
H -2.4694165364647325 0.41104891467663807 0.8319689621627425
H -2.9149566136531737 0.6704642967862349 -0.8769902745586097
H -1.3752971924239497 1.2973840523235103 -0.2505337456771383
H -1.9886557305714392 -1.446152326468925 -0.5136683773769799
O 2.621679388647266 0.6061177819331535 -0.29904268983766336
C 1.8790332183075789 -0.22344894394047451 0.5721694514493486
H 2.3839134547279124 -1.181478131714489 0.7325122100435593
H 0.8712678407362873 -0.4059566537086197 0.1908780417745983
H 1.8138066930133214 0.3039360347344446 1.5224053393784946
H 2.648054642509513 0.18915226636463708 -1.168151000115096
