12
## STRUCTURE-ID: 645664d5705d990e120b39d8 ; CHARGE = 0; SPIN = 1
O -3.0796572239386295 -0.1268121310058285 -0.06581396307005458
C -1.6898945716025873 -0.021578593492006325 0.1560166477661813
H -1.2293856796431009 0.7132915654143064 -0.5099963437946287
H -1.2664412389420803 -1.0015210535723902 -0.05418427538885691
H -1.4642781029594545 0.2471342422631586 1.1915227646241153
H -3.488497796522402 0.7264802395421673 0.12118297931384951
O 1.7392223261337885 0.3093083552003551 0.8235451055521567
C 2.049327310456643 -0.05820016353551381 -0.5025551620452946
H 1.7116437773081843 0.7568895405374345 -1.1398866490040034
H 1.5287142178514233 -0.9749473397270488 -0.7959149972109257
H 3.125958455133956 -0.19331976594312353 -0.642932492104665
H 2.063288526724256 -0.3767248956815367 1.4190163853621356
