11
## STRUCTURE-ID: 645688492eabbc62ad530d54 ; CHARGE = 0; SPIN = 1
Rh -0.6908903832380544 -0.39223858867251254 0.03777455034801806
I -0.8212771533150641 -2.331803484722733 -1.7233685480859222
I -0.7963065532448844 -1.9681448557537422 2.130474683206914
O -1.1690135822092604 1.6888103571128994 2.1363781634368473
C -0.9547828496600773 0.9282835877792857 1.324240557582921
O -1.1879045096745748 1.2523341956161913 -2.4143758234170742
C -0.9656803556445726 0.6609026423977663 -1.4737780390739754
C 1.3891749527372104 0.018111733606912293 -0.0020448101075585885
H 1.6884825710288653 0.6140160540802702 0.8603007168206154
H 1.6794923890420699 0.5136591670301075 -0.9283676195790734
H 1.8287054741783197 -0.983930808474446 0.05276616886829052
