17
## STRUCTURE-ID: 64568f15c278c675f82cdf74 ; CHARGE = 0; SPIN = 1
C -2.237795901880496 -0.8911486028649497 -0.7101874868024804
H -2.064281964034752 0.15090222469357975 -0.45471639646363127
H -2.674086032032149 -1.4608093516151264 0.09966964056538845
H -2.725161226968939 -1.0319572431750872 -1.6648038738253637
O -0.48340788265859963 1.567412367729303 -0.10942257925169627
C -0.11357928870844489 -1.9954446055192563 -1.2534841303753537
H -1.1234141706303882 -1.3160804032652416 -0.8311083121036514
H -0.12151344777030458 -2.866322100635621 -0.6007403283595768
H -0.3385691018518344 -2.181347943315798 -2.3001458788379643
H -0.4628455779201515 2.3376775723579772 -0.6805692688481702
Rh 1.0831590566052482 1.2063393433587364 1.13624905442496
I 1.6387132353541853 -0.8698519471153862 -1.0402283845900826
I -0.34780575834232386 -0.596512056224634 2.387463779655016
O 3.2015018871313954 0.7360552370284321 3.1945390645459377
C 2.4101653892854573 0.8933321944525279 2.37339878498475
O 2.4192897407901457 3.6382043924918728 0.018983227399896135
C 1.939631043631948 2.6795509216186835 0.43510308788206
