18
## STRUCTURE-ID: 645671a69b70b972512fdd83 ; CHARGE = -1; SPIN = 1
I -2.433143952708355 -0.10349317859684702 -2.7727880324087506
C -0.5197781849442474 -0.8989158979194992 -3.306717066582262
H 0.07331417484966164 -0.9079707546662588 -2.400854807791491
H -0.08886502608919301 -0.24442336541473744 -4.052628036880293
H -0.6724681762645446 -1.8966543559792008 -3.695132710338526
O 2.932544539764103 1.649257001102981 0.6686918654932551
C -2.2973602362034375 -2.2913457059159255 -0.6296242556610996
H -2.7871278152607424 -2.6623115458069395 -1.508291633421357
H -2.8782841133523744 -1.8030973352115984 0.12423685722550716
H -1.3390675757827155 -2.6847569888989837 -0.3620627846134363
H 3.622382930548705 0.9773567380773003 0.6866690101213185
Rh 1.5250219900528896 1.4380038489994476 2.190809460686413
I 2.85637945349707 -0.6425330002266249 3.192812242014209
I -0.1449861256790829 -0.01120338241591854 0.5379637452746014
O 0.894094963587712 4.241632009661641 1.349076768943063
C 1.0918182955833615 3.1754004606788655 1.740236975044905
O -0.2498365946125941 1.300557436475426 4.590128274347126
C 0.4153614530137539 1.3644980160568438 3.647474128546882
