21
## STRUCTURE-ID: 64568d53e161576b4932baeb ; CHARGE = -1; SPIN = 1
H -3.9346029554052655 1.4826137988441759 0.45426910015662925
I -1.7891309805219593 -2.316136156982556 0.3528935413243045
O -3.7550122531193018 0.8048477599009831 -0.21198371010723593
C -0.85673048027236 2.2277630006391207 -1.017331958797981
H -0.42292538212903175 2.2702089269103998 -2.0200359954088087
H -1.8045950345840736 2.7720357019414203 -1.0283055143958468
H -0.1728157409890866 2.745020698487274 -0.3414861003451539
H -4.309779605224143 0.04970313636506597 0.023562480345063617
O 3.002108468090066 -1.3928624734373665 3.0322729464899396
C 3.1467681127968388 -1.633958806443412 0.33408803866757963
H 2.826299814183982 -2.651072928056504 0.14742679115955243
H 4.041144382951591 -1.6181388324456176 0.9375866040977677
H 3.271098789310058 -1.0917716750794328 -0.5940607926141555
H 2.6436501440600186 -1.2530297578341298 3.90922089605578
Rh -1.2611873759098087 0.2772726275616237 -0.356553159912898
I -1.0950345948494016 1.0985267494684892 2.1846806984110496
I 1.648911357825163 -0.6676979822092453 1.465868189991969
O -1.60340812407993 -0.4138247963054858 -3.224246874601794
C -1.4893412348653918 -0.14602071035394082 -2.1150466721559
O 1.2753396440487834 -0.36206104007598877 -1.4668771854491935
C 0.6392430486831024 -0.18141724089490022 -0.4659413229105572
