13
## STRUCTURE-ID: 64566c43609446700061a6e0 ; CHARGE = -1; SPIN = 1
O -0.7948608757850557 -0.3586999494543609 -0.6553224822628881
C -2.3859485672107295 0.3337922888776229 0.6437521534586276
H -2.7560463996525835 1.1588063718803796 1.224188877859101
H -2.324711834132452 -0.6019226799365687 1.169210515794887
H -2.771722723487718 0.31450317318468546 -0.35977133455445437
H -1.115669989478367 -1.2413978493330846 -0.8738418696446483
Rh 1.2722404419376743 -0.1650150766503131 -0.12086211629761806
I -0.1082281495409098 1.6065144867922814 1.5851525272110278
I 1.0908827819932254 -2.2977176642080153 1.5198827789152214
O 4.195538759018981 -0.020563912052910048 0.444659092442649
C 3.0631894570867435 -0.06588830389186194 0.21241709839470915
O 1.2565178670132289 0.8367951509681177 -2.9441216680124613
C 1.3788192322379171 0.5007939638240252 -1.8453435733041952
