18
## STRUCTURE-ID: 64568b18690673211b233624 ; CHARGE = -1; SPIN = 1
I -3.359025850776729 -1.7415608004977545 -0.9783146092213837
C -1.704402268811144 0.1960481001016992 1.8486249909187045
H -2.6849578938849077 0.47227275764673676 1.4461900065537943
H -1.3795607183949077 0.9862012789522216 2.5320501195639022
H -1.800692447291602 -0.7409269691520881 2.4121950988844407
O -1.1956227082602113 -0.3896271023182746 -2.6952863137561063
C 3.165880173074615 0.9836793259811443 0.3136408236853419
H 2.936284230399828 2.0418271597539865 0.2565226486725734
H 2.8393343090190037 0.46928991006728776 -0.5845038486582995
H 4.21555745554754 0.8081653049940354 0.5126325088857486
H -0.6386788411793682 0.1698323450503736 -3.2636657810056473
Rh -0.3258307977759516 -0.12015430296435334 0.3574183115571692
I -0.42345040565782344 2.3740910636321497 -0.4107174875169212
I 2.0323189977561675 0.1604950181696473 1.9668863865872626
O 0.7613334292564331 -0.874554761079049 -1.6254585363877738
C -0.4945423227915125 -0.9040465940736412 -1.6717075187230026
O -0.7015566123416768 -2.265124225694203 0.2597077060139881
C -1.2423877278874005 -1.625907508569982 -0.676214506053602
