18
## STRUCTURE-ID: 6456710a465a5a4cf7051b80 ; CHARGE = -1; SPIN = 1
I -1.1067278139878258 0.016599105778863733 1.3740474262988311
C -2.0485605004565377 1.9693480844766804 1.5910209521354832
H -3.1150830297704424 1.8045390149892304 1.6912140731338234
H -1.8386745678514285 2.5443049691761987 0.6949474869316662
H -1.6496319424605004 2.4405074461544833 2.4817706853645163
O 2.3721851459520784 -0.21979755595830794 -1.3232717926707191
C 0.8208118287313407 0.9004215253771176 1.4805392915369837
H 1.434504194216015 0.46838762332819184 0.6887736758058329
H 0.6884521757461551 1.9651483398855512 1.3273105470939095
H 1.247528647749419 0.6691715491071977 2.449956378591254
H 2.5082346722609965 0.6434886981494878 -1.726816711461515
Rh 0.5598220477761656 -1.0738901956479385 -1.7155464925081931
I -0.49029120098055745 1.3153440363549758 -2.016708444034717
I 0.5820288767160958 -2.6331966670774256 1.3163043733665587
O 1.7664611797452132 -3.7846837080610833 -2.1284748791298522
C 1.3609253289017906 -2.723532678113369 -1.9262995648972048
O -2.0471292628619118 -2.4262183904259036 -2.2299727068401696
C -1.0448557794261097 -1.8759411974933624 -2.028794298716453
