12
## STRUCTURE-ID: 64566b732e9a1937a2293420 ; CHARGE = 0; SPIN = 1
O -1.264643709975595 -1.2203977860117041 -0.6885723702920843
C -0.50951657919284 -0.7077369091191833 1.0817782464908956
H -1.4174721931302627 -1.213880206251152 1.380292828300526
H -0.5217350784302337 0.35408959967139275 1.2570904659308357
H 0.3783553217950042 -1.220159374666912 1.4060183321540467
H -1.9330574731082661 -0.5492930300633839 -0.8713049565115464
O 0.8688328129743964 -0.22894657367961516 -0.448141506441681
C 1.1167473950408031 1.1162547929179023 -0.5231626132511751
H 1.95687134385026 1.2982421719819741 -1.2103969836996595
H 1.4073182398376252 1.5286086332587536 0.45772562475534223
H 0.2531008430317453 1.6939592841117446 -0.8963203507785765
H -0.33480092269264483 -0.8507406021498175 -0.9450067166569209
