13
## STRUCTURE-ID: 64568a0fafb4564e70092923 ; CHARGE = -1; SPIN = 1
I -2.5035801015139874 3.1157689170471405 0.7282432622576734
O -0.35728960526789394 -1.829077172811585 -0.8469829299507103
C 1.745332723196572 -0.855123651212517 1.9165442352654107
H 1.7691520969624843 -1.8093114711013163 1.4266313423869055
H 2.636608116897519 -0.3825281523516043 2.281791394145575
H -0.8856237192945283 -2.49233299359628 -0.35745619169187964
Rh -0.6073505774955356 1.5781172044927445 -0.25036297401897045
I 1.7001211374712237 2.798739093668421 -0.38315479418083076
I 0.023583127697293153 0.20965699051065878 1.9060155975031026
O -2.2161839946121598 -0.5720698287852054 -0.728577223213028
C -1.0502720512289214 -0.7251050452895589 -1.0951082408888615
O 0.04859194911675943 0.5672450193669927 -2.872596536207143
C -0.30308910192881594 0.39602109006211417 -1.7249869414072376
