14
## STRUCTURE-ID: 64567b0e5ddb0e4a0841e57a ; CHARGE = 0; SPIN = 1
H -2.7701414313591153 1.8558531821595958 1.0532055984112616
I -1.2822391260418364 1.4527137872153921 0.47392329967847796
C -2.2499575208062907 -0.4010587103737004 -0.09082072745600688
H -2.8504310207188754 -0.19684587851195662 -0.9730409975399803
H -1.4567847105797513 -1.1111447281530118 -0.3206714539748461
H -2.842921370173826 -0.7303588368503374 0.7565161018647097
O 1.3135213626556153 1.9620642486732152 0.2765447532834146
Rh 1.3911854702120312 -0.0656118766165739 -0.2711722006506138
I 0.40812916594608195 0.519913245790142 -2.625687023417352
I 3.0902821946135033 2.414070497232935 -0.448184627240244
O 2.2460774796780285 -0.539495764228835 2.5567773266415084
C 1.9045613118505405 -0.40758273225839237 1.4728809107448015
O 1.5975309174835233 -2.923510227529688 -1.0932132345700085
C 1.5011872772403634 -1.829006206548815 -0.7670577257751487
