13
## STRUCTURE-ID: 64568d423b536b1deb09291d ; CHARGE = -1; SPIN = 1
I -2.1830972017719357 3.6317632701148743 2.038246837779273
C -0.9548067482599302 -0.8614122105565962 -0.597274595845479
H -0.6706513494158485 -1.839771633446185 -0.9878978390006947
H -1.5600439782358275 -0.36243717982322854 -1.3586480851627978
H -1.6328345793898003 -1.0261847149753132 0.2708783197009219
O 0.25876716757083035 1.2633518376111244 -1.7016108098398213
Rh 0.44632785150872784 0.11628184853839686 0.7345246773678012
I 1.8986198395244818 1.2335102709868608 2.579537923608022
I -0.8127789717706424 2.2887103848977883 0.040769081562871214
O 1.4068194655484256 -0.6397925338695686 -1.7846213495882859
C 0.5976972230133055 0.12377360050357719 -1.2864613972780123
O 1.8878994330032226 -2.4584671755904157 1.077854817874322
C 1.318081848674978 -1.4693257643913253 0.9747024188218835
