12
## STRUCTURE-ID: 6456690850eb3b65321fea7e ; CHARGE = 0; SPIN = 1
O -1.246015116016126 -0.5886712814630767 -0.6946772136436702
C -1.8833393930847984 -0.023711458363649802 0.4352302420362301
H -2.9007679866166365 -0.4043361242810658 0.54884131526475
H -1.9060599411126309 1.0677829365687284 0.3712189097792124
H -1.2980907140425586 -0.31712117110779553 1.304852395111218
H -1.784809855360992 -0.4143947373077176 -1.4762549080031877
O 1.3029207012028983 0.6639796696527046 -0.8484725916819456
C 2.138685078269217 0.06879794782735076 0.11505612700980651
H 2.348874308654343 -0.9778477762391384 -0.12765234206818776
H 1.6977715673313059 0.11995559737894866 1.1158678254471301
H 3.0742560824677394 0.6270107856399554 0.11330463036291297
H 0.45657526830824596 0.17855561169475134 -0.8573143896142703
