18
## STRUCTURE-ID: 6456708e23b5fd28b27c7c48 ; CHARGE = -1; SPIN = 1
I -3.047606423597862 1.1298635049897763 -1.2837262517553811
C -3.3323408387441527 0.2533595568069737 0.6570096395328274
H -2.435810820573914 -0.31659183600921814 0.8853483867662498
H -4.2033353685684425 -0.3867182606619917 0.6090727407324019
H -3.4684870787425233 1.0580066983727567 1.3683486372423503
O -0.36180334007776704 -1.0801384815116648 0.29121855643723904
C 2.87064574006847 -1.8020477405868194 0.3992617137633533
H 3.106445747642946 -2.2613658474943215 -0.5528211011837744
H 1.795336246778691 -1.7640429889584586 0.5543240671952238
H 3.3652711650635556 -2.3043536882905373 1.2196567934858773
H -0.512138016631894 -1.7930837498837302 -0.33957553941365076
Rh 0.24657042256001876 0.6667931034263752 -0.6592184853677048
I 0.7133029086339209 -0.660172422919041 -2.8773718983535854
I 3.573029969075368 0.22638918706661415 0.3380879509430277
O -0.17214283392674873 2.087832991434847 1.9353345607961585
C -0.006722787987072524 1.5347039560859954 0.9352859336443539
O 1.0968606160672192 3.1948813468807526 -2.0012464153589438
C 0.7729246929602851 2.2166846712516244 -1.4789892891062342
