12
## STRUCTURE-ID: 64566a21a9b31d611667f9d1 ; CHARGE = 0; SPIN = 1
O -0.9003372410357745 -0.3354255072206791 -0.18628200888311522
C -0.8169698316890528 0.4988585608397114 0.6277905748681366
H -0.7636549519496094 1.5834237714554937 0.5187730124778946
H 0.9918620486551293 -0.7767220504935913 -1.7679340028159802
H -0.8459217767013876 -0.8277560034555512 2.201856268385301
H -5.225081244724438 1.0356658046332166 1.7712098700879995
O -0.6927638544647224 0.13730276044921674 2.006456533824496
C 2.043326580863754 -0.5748861214694244 -1.9251907692464274
H 2.2133954612828615 0.49381406286732715 -1.9300490451851953
H 2.3452744199219837 -0.9869090966222174 -2.879350121072195
H 2.628204315915219 -1.0331701583804542 -1.1386712878361205
H -0.9773339260739712 0.785803977396943 2.7013909753952148
