18
## STRUCTURE-ID: 6456895cfd3205339b0876ea ; CHARGE = -1; SPIN = 1
I -1.2329679993260365 3.0674528962639847 -3.369851960697854
C -1.9380538814381654 0.5328412919780344 -0.913683906361574
H -2.291007039640284 -0.23850829416467048 -0.2228510700556078
H -2.3616984644174646 0.36803014217446595 -1.9077731540869975
H -2.2224608542644595 1.522721266128755 -0.5561520088976155
O 1.8134758988004953 -3.1778662692488004 2.140992909694912
C 0.5588978205358758 -0.7576505409012108 2.4430130479048158
H 0.5455755977177515 -1.5432374047198734 3.183885722232692
H -0.36686595170146463 -0.19446671078498526 2.429735861291835
H 1.4122428322207192 -0.11000075665944915 2.6047807489034267
H 2.094261026455214 -3.9835827401425674 1.709717036120124
Rh 0.12788382920579716 0.28880116757051266 -1.0903712350084203
I 0.08844190362771359 -1.5643349314790551 -2.909528815021844
I 0.786528802408133 -1.7114733668693682 0.5482115875307002
O 0.7443745054358621 2.3018084942252277 1.0072243882066771
C 0.42855467292004645 1.51603436113 0.23046132330760924
O 1.4584156642366455 1.9670694578942758 -2.840223569053975
C 0.3544016372235699 1.7163619376046977 -2.4875869060089686
