39
## STRUCTURE-ID: 6456e919d5601d4c2e304576 ; CHARGE = -3; SPIN = 1
I -4.690483667666206 -2.0874828617337373 -0.2941914173227919
C -6.631854982025439 -1.4272215454114006 0.6232544812946739
H -6.592692514445297 -0.3346294911920874 0.6650429492004787
H -6.661131531731803 -1.887950088338638 1.6064362361668743
H -7.401867344085653 -1.8061456389402624 -0.04340492049292229
O -3.774377690118907 3.9151248745190372 -2.2724646354472466
C -0.2626134203478597 1.4508171294444367 -2.5615277232433784
H 0.4883424149808938 2.156497635570874 -2.1961135915688916
H -0.49119412786962985 1.6551122652592023 -3.610068897056518
H 0.15948623677187065 0.4447213727847688 -2.482310163007178
H -4.620429173897664 3.5538533072927665 -2.574115115310445
Rh -2.594165362795375 -0.45129053716714823 0.10995222679191827
I -4.402315047686544 1.6312620445324375 0.08827075053674883
I -1.899841238768047 1.5145107643458056 -1.3626578168940855
O -0.9320059757694986 -1.4369940216206383 -1.9077434666424267
C -0.9269450555848217 -0.9284679965413469 -0.7549398715398183
O -1.187920134758614 0.8720932021292666 2.2170531325435494
C -1.2501996394691313 -0.14301113447891997 1.6003842509718555
O 5.0514814151965455 1.8866832817304617 -0.8584916764539201
C 6.077382348847389 -2.001943491719798 2.274456406206931
H 5.2821159861372236 -2.067225741454971 3.011991504827034
H 6.752113011936567 -1.1789003390353654 2.4798149165314705
H 6.603341942046244 -2.943293330331884 2.1539698697356764
H 5.614350113064642 1.7080881604593576 -0.08109975490622644
Rh -0.5157988755949947 -1.858067845671925 1.1632515696368815
I -2.2396442547683417 -2.913895107656325 2.823183199105504
I 5.090757351374659 -1.5756591664142108 0.31298682809871353
O 1.395665317067181 -0.80219672321178 -0.7528866938895395
C 0.33603081702226417 -0.19126380569558213 -0.36749686641687973
O 0.5761615744172366 -3.789460353367889 -0.7938970455105196
C 0.12317522553073881 -3.26139303814136 0.14438115500158563
O 0.29465415151584723 1.0359341720401847 -0.032143095901757804
H -4.028968609697745 4.4535476409405526 -1.5110612627682838
Rh 3.1698726992483515 0.26053279249627814 0.7134765877074748
I 1.8870127629021949 -1.2809957285711941 2.504741242912386
O 3.109667268804404 1.442827482874503 -1.799208559688812
C 3.809249593916449 1.2907414528127705 -0.7896783234997262
O 2.475453299316233 3.109625465021646 1.2507021491146242
C 2.8081351169849302 1.9855149424422778 1.3021514411767066
