12
## STRUCTURE-ID: 6456689aae5e9722aa610ab0 ; CHARGE = 0; SPIN = 1
O -0.9159432649370193 0.2226147043271593 -0.17999460988585764
C -1.2289460863423562 -0.3830720900432481 1.0291273260870148
H -1.1292297712786825 -1.4709688583899982 0.9794784878484487
H -2.2430527725563407 -0.10632023132188878 1.3213213279203755
H -0.5658084969229995 0.029681119410679066 1.7969178406036679
H -2.424411855890414 0.02314722405259065 -1.2637408969705828
O 0.7170073793786266 0.773710847252563 0.03823680831559049
C 1.6186536414289399 -0.032377914606830906 -0.7041859828678988
H 1.6472951592319252 -1.0153551602288693 -0.2376860501011259
H 2.6023907023635684 0.43870255254320734 -0.6375363729829804
H 1.3172175503950594 -0.12615151818265488 -1.746992553311801
H 0.6048278151296986 1.6463893251872868 -0.39494532465485005
