16
## STRUCTURE-ID: 64568e14d9e3af615c2eaab0 ; CHARGE = -1; SPIN = 1
H -2.7206758641791002 1.7727835824502016 1.1575449312184312
I -1.8400924696519692 0.3884817208969054 1.6279174517685242
O -0.6058584141559344 -1.341622285578117 2.224982191237115
C -0.721720932731665 0.938933121384293 -0.23097226106463614
H -0.6277061498196888 -1.7175588543029452 -0.7716120879981593
H -0.4049806530983711 1.937808517795862 0.060815435632487036
H -1.5586943341726225 0.9816947681920715 -0.9231656453819757
H -1.121498997487977 -2.0894005880064728 2.52803662331642
O 0.014331116870241769 0.2532659259320681 -2.5263251550833608
H 0.5582421243779889 0.5935433727736625 -3.260412233041343
Rh 0.46535894067315753 -0.8932247499359472 0.04326104792418201
I 2.241438618312599 -2.8573758855028535 -0.3590998790387472
O 2.4751952862545816 0.22551674425135457 1.9444722871340232
C 1.7251834700406992 -0.10982840472827456 1.1349318324684756
O 1.5418613746762628 1.3441589925285606 -1.3166913293996623
C 0.5796168840918118 0.5728240218496006 -1.3336832096917033
