12
## STRUCTURE-ID: 6456883f4bad2143594d302a ; CHARGE = -1; SPIN = 1
Rh -0.6314685817566517 0.44908484699751405 -0.035115870991937304
I -0.2115202626596065 2.8269136914115442 1.272513730027986
I -3.371883605899177 0.5703686388966779 0.004579082358742576
O -0.9702004912564964 -0.3993211589866075 2.811728575529135
C -0.8000752463895998 -0.10643466345094628 1.7218718465595433
O -0.23296097536035207 -2.1975919931858066 -1.3686724028374107
C -0.2817667717693741 -1.1758895220230796 -0.8418054669367895
I -0.4559829978551943 1.4851383933056224 -2.5121504470642724
C 1.4512248735731772 -0.35046919706430174 -0.2707768264339851
H 1.7469102767030773 -1.1690246720872737 0.38448493189320454
H 1.9053823312262081 0.5769720073733491 0.1046535502820852
H 1.8523414514439975 -0.5097463711866882 -1.2713107023862964
