12
## STRUCTURE-ID: 64566dc45aba885ff64f7340 ; CHARGE = -1; SPIN = 1
Rh -0.7334412087213658 -0.5683139071080417 -0.017104927263328167
I -0.48648865139266806 -2.5416813475615347 -1.8310560037085328
I -0.6916559571452637 -2.148476349593883 2.1484228286772664
O -2.0159125951635763 1.3457561772475328 1.8928168721952245
C -1.4847717733073733 0.64824244623537 1.15654784285721
O -1.6577488838268792 0.955500231381289 -2.4205256871150254
C -1.2682300148159964 0.40659040645897104 -1.4945329477064047
I 0.9009667359389167 2.5650949108732553 -0.16772439219361038
C 1.6512024502394433 -0.0259233013197128 0.14752627808831303
H 1.4201086976998376 -1.1032266253807628 0.09227169881194705
H 2.0153481153636426 0.24381570522938348 1.1285963760436177
H 2.3506230851312866 0.22262165353808552 -0.6352379386866674
