4
## STRUCTURE-ID: 6456634481681f624b1fea67 ; CHARGE = 0; SPIN = 1
H -1.958916976027388 0.00741262396878053 0.6345722393688626
I -0.6072680538528767 -0.005084246616014318 -0.2979714977280416
H 0.23382769355900596 0.0158258919387646 1.0518391687720021
I 2.332357336321243 -0.018154269291558424 -1.388439910412836
