12
## STRUCTURE-ID: 64566729e5578f7dde6dc16b ; CHARGE = 0; SPIN = 1
O -0.03542512396650646 -0.27233123669137876 -0.13305351365069978
C -1.4119685438537926 0.0376578858207311 -0.16681711083302878
H -1.5693475395764556 1.121810908167542 -0.16779809443183344
H -1.8528398804273911 -0.3944363700765616 0.7284127189206069
H -1.8860922931873585 -0.3924874022733494 -1.0555088859198158
H 0.8344179008948582 -0.12839531871253274 1.5796877285170678
O 1.273234222745931 -0.1609925920801738 2.442855704439719
C 0.6657064528490811 0.22733516953807842 -1.2513750863249093
H 1.7048567241941412 -0.06831799262330476 -1.1277809088518795
H 0.5973356359209192 1.319620696109077 -1.300573052281509
H 0.26989162536584804 -0.197068560192011 -2.1802751023412257
H 1.4102308190407213 -1.0923951869861115 2.6322256027575075
