12
## STRUCTURE-ID: 64566b6629c4c53de47ccc1e ; CHARGE = 0; SPIN = 1
O -1.3264094837344649 0.07375061758706924 -0.47390942381781354
C -1.3891841301524888 -0.28132381334657713 0.6805584870779088
H -1.5095538577526773 0.43299468405626496 1.507081058037217
H 0.9216559755366723 -0.35025828663434544 -0.8411662124498375
H -1.5042381493765906 -1.33616608606975 0.9630361486567912
H -1.0953371969320973 2.01955874602915 -2.073123135696915
O 0.7412893452417538 -0.44339922822257954 1.21796535779662
C 1.3965756995584817 -0.8263422275788108 0.024545317341096405
H 1.288421342211822 -1.9055018163333552 -0.06448113645823697
H 2.4547674056099815 -0.5664942214037982 0.05461663288541825
H -0.9533195523403977 2.7084221324258357 -2.407795415849001
H 0.9753326021300003 0.47475949949089835 1.412672322476753
