12
## STRUCTURE-ID: 64566877ba163217617ffa80 ; CHARGE = 0; SPIN = 1
O 0.13935143822896667 -0.6377692124374188 -0.5040556682788946
C -1.0661474880469592 -0.09493766274132172 -0.9633208200646266
H -1.222063785480761 0.9313550762698363 -0.6246726466168485
H -1.827613858439754 -0.7394979724681804 -0.5242399528710289
H -1.1090535338676413 -0.14047452110235026 -2.0547604070678522
H -3.5666079073834953 1.0839773239524944 2.9907193930465454
O 1.2862982333101824 0.08792763410921697 -1.0331439607172412
C 1.349307309572604 -0.005604618845918924 0.9336147648409846
H 2.1224821315064246 0.7509596389874639 0.8302147050106932
H 1.6712122612489997 -1.0240637979538927 1.1141805505736757
H 0.4675647994438504 0.3169914122774093 1.4773106897992254
H 1.7552703999077979 -0.5288633000473401 -1.641846647655062
