8
## STRUCTURE-ID: 645663f3c200525bec068a1b ; CHARGE = 0; SPIN = 1
H 0.5366169575670408 1.0794209687083645 -2.3250357186826203
I -2.285011051086736 -0.5679070057156054 1.1389635424031626
O 0.7426020873308357 0.27950884620867966 -1.8340927916248195
C -0.18766762637911188 -0.13826578582544402 1.348867275433472
H 0.27444158176067135 -0.9833543818311822 1.8415124350403715
H -0.09298695560276221 0.7586228321026004 1.9463575376064417
H 0.22285864249755213 0.007892742714021015 0.35730999778058237
H 0.7891463639125056 -0.43591821636142875 -2.473882277956604
