12
## STRUCTURE-ID: 645668ea69417457223dae50 ; CHARGE = 0; SPIN = 1
O -1.569881033131551 -0.6528756710851282 -0.8767683534374394
C -0.8794267942041397 0.26493114819325053 0.9875433367941898
H -1.3874656305772692 1.0177764308296566 0.41515969925072815
H -0.19493887095970597 0.6812184154772857 1.724429151010059
H -1.5206555511700994 -0.5018981704035798 1.378741617967007
H -1.3888215546859657 -1.5937218387355818 -0.8389342541647299
O 0.6025488229221742 -0.5071481601219133 0.20491967249858467
C 1.1751936175590276 0.33943485530239526 -0.7836682545423812
H 0.3936684854218641 0.4903687553443018 -1.5269654739835807
H 2.023693001606086 -0.17148889040390766 -1.238420953911448
H 1.4853252321792638 1.2962355667881449 -0.36039560694896666
H 1.2607602750403175 -0.6628324411849107 0.9143594194679645
