12
## STRUCTURE-ID: 64566717ed39f0111c1a562e ; CHARGE = 0; SPIN = 1
O -0.9016351478144089 -0.6677398086424262 -2.0684195814148363
C -0.38971078678706966 0.2270753240942111 1.3908761328065824
H -0.3587847426493046 -0.16546168634914923 2.4031161680017203
H -1.0706309070542195 -0.37741479972774383 0.7956683510766753
H -0.7609247955556975 1.2485940510841282 1.4170756881136972
H -1.4673298047680639 -0.07320395342126165 -2.5690675637449853
O 1.0403011717061483 0.7174589344349949 -0.5314846502152555
C 1.005148293820891 0.19184279590025508 0.7760450790926585
H -0.5440836122818057 -1.3080077468907068 -2.690027815854512
H 1.696540077394139 0.806143723149884 1.3609739664014076
H 1.3822019079869432 -0.8426792040503542 0.7751577611428304
H 0.3689083460024568 0.243392370418152 -1.0599135354059892
