12
## STRUCTURE-ID: 64566a2a637a8b177128a821 ; CHARGE = 0; SPIN = 1
O -2.1778412880094975 0.7920276921310725 0.05449250918707813
C -1.3756021855349507 0.4556985632632344 0.8905632758776687
H 0.3668716856346862 0.10086246891131098 -0.9977441740688962
H -1.469679283280768 -0.49356540674589666 1.4363215103433313
H -0.6454935892355602 1.1590182848141506 1.317753164974663
H -5.104178517221942 -0.9287437574792915 -2.7229505190421883
O 0.17756058134711472 -0.46459208126747725 -0.23630844386683703
C 1.3697858609134852 -0.6653599726602943 0.5011479735064707
H 2.133201524548108 -1.129368247537615 -0.12568544565183024
H 1.1245253146634648 -1.330998612998334 1.3258035514865008
H 1.7686900024239152 0.2742086713290942 0.8916254942074678
H 3.832159893751936 2.2308123982400008 -2.3350188969533994
