12
## STRUCTURE-ID: 6456b68c16ad057048293422 ; CHARGE = -1; SPIN = 1
C -2.5157372701103493 0.293667695004177 0.5776072783778675
O -2.5391596119871394 0.7789414389389413 1.6198991461717767
I 2.982836382031912 -1.496162783667368 -0.3805351841405433
O -0.6222783992712201 -0.9086687171261506 2.6619271598462806
H -0.2797456493484625 -1.609796522819538 3.2178197062648506
Rh 0.8639107774354181 0.02987864148000364 -0.7922794702169785
I -0.7211799089526904 -2.11842637008561 -2.1525450967285105
I -0.6434167126325213 -1.4988608341262433 0.7382794879516624
O -0.8620813653894603 2.443461060431577 -0.414285542112501
C -0.2826987468568666 1.4669327211001886 -0.6059281423720775
O 2.665392461804815 1.6034264964888936 -2.5731323671740602
C 1.9541580432765626 1.0156071743811244 -1.8968269758677636
