12
## STRUCTURE-ID: 645667806632d535b55a8528 ; CHARGE = 0; SPIN = 1
O -0.24087890186275493 -0.7015124178412817 -0.26290596296435936
C -1.6151976010816198 -0.26594277773759806 -0.4556203341613367
H -1.7902135547738574 0.6932443594080007 0.031737814608873885
H -2.2690980313023386 -1.0326584021926262 -0.048765904026499635
H -1.7762483663596256 -0.1753691697195016 -1.5281866323316213
H -0.11907802429320394 -0.9705964591497933 0.6754161969444414
O 0.5739949559246915 1.4780138877156834 0.09381235709729474
C 0.7516155335064387 0.35261766739376205 -0.6358445735522323
H 1.06339418694878 1.4822588042633156 0.9278280251889942
H 0.5288920472676889 0.5720501558870184 -1.6840961677038733
H 1.7256160345334464 -0.13298220546366543 -0.5274462016868724
H 3.1672017214923534 -1.2991234425633031 3.4140713825871862
