21
## STRUCTURE-ID: 645678e5f849ac0f9a408606 ; CHARGE = -1; SPIN = 1
H -3.264921010558841 -1.7469069275518836 1.7720656454873815
I -2.1493385281193143 -0.4917661671378884 1.4255151306524547
O -0.9376668125264394 1.1959814126327952 0.6800742562940083
C -2.657982267106281 -0.9311127324130646 -0.5876427701674208
H -2.479710294414113 -0.04133751947656736 -1.1776256277900463
H -3.693203551844029 -1.2508082305680541 -0.6170167626222082
H -1.9624318773504497 -1.724166236296311 -0.9023522379665457
H -1.3710895215466683 1.9982353585146688 0.9663298956794373
O 2.8754519018848392 2.315388878388959 1.3320651953703173
C -0.35138628062028787 -2.803387827567071 -0.5494849433500151
H 4.400758807430429 0.563124475825497 -1.3409098199816847
H -0.24544810819546978 -3.0165574506474373 -1.6048869365959022
H -0.9084774669892686 -3.4661039788878947 0.10402252525299449
H 3.5079882876233843 2.2806742454115465 2.079176064990213
Rh 1.3907506988093563 0.8605598922890539 -0.6542627134631605
I 0.9557072733045959 -1.4679495750472562 0.3335707761083744
I 0.3504462662845569 0.3116371924337979 -2.9583752110375054
O 0.4201294297919704 3.654637101714898 -0.39577819162780564
C 0.7959138796216481 2.5669411763573144 -0.5037255113114032
O 2.8598458601573085 0.11295307850876887 1.6265705949697227
C 2.464663314363083 1.0799638335161061 0.9726706411086473
