13
## STRUCTURE-ID: 645689dda90b401cee1aaa0d ; CHARGE = -1; SPIN = 1
C -1.6430262031652156 1.3249138800949951 -0.12083730509490195
H -2.3112107559696713 0.4707239080411753 -0.03891799784008933
H -1.5625996900952865 1.6422796463130813 -1.1625111051504071
H -2.0411105899683943 2.150856834329392 0.47048583739644756
O 0.6958111352169524 -2.513516671280628 0.15130464467737434
H 1.3954624835111398 -2.9146226821528516 0.6783200924227497
Rh 0.9766699965741955 -0.5177048869550807 0.08634617928826603
I -0.49970580130980746 0.06925997834091999 2.5780262196063712
I 3.4016619587462413 -0.7131924338967145 1.2800120624710807
O 0.5108161811847234 -0.935128889788729 -2.8244137385388113
C 0.5981156795233892 -0.6897542298877379 -1.7024815095055925
O 0.7592070949068362 1.6364734427496685 0.24074267780913375
C -0.28009148915508175 0.9894121040925117 0.3639239424584065
