12
## STRUCTURE-ID: 645666e70bc0bf2626750ef0 ; CHARGE = 0; SPIN = 1
O -1.4679120386431064 -0.1943310875490869 0.03703706612361981
C -0.8265890213770923 0.4125712769259171 0.9508727338234607
H -0.43647887209973224 -0.19960602684124334 1.7470766790181873
H -2.227736912027337 1.0165147888804116 2.195174609476355
H -0.5317896675786112 1.4469156085056807 0.8907880347585394
H -1.8137302206869776 0.3759946791038086 -0.6776326766307058
O 1.2036336921922597 0.17920978303811486 0.009141415776854614
C 1.114272132948499 -0.5460511761922003 -1.2064921946267877
H 0.4105346143539207 -1.3778077353565528 -1.1136309909771038
H 2.091103970031178 -0.9260005222782124 -1.5062518997201062
H 0.7607035440289486 0.1478724619952943 -1.9659329729458608
H 1.7239887788580655 -0.3352820502319646 0.6398501959236522
