12
## STRUCTURE-ID: 64566a94bd39c614c337419e ; CHARGE = 0; SPIN = 1
O -1.8059629874246166 -0.48463299524296216 -0.3545715827241137
C -1.938962149086511 0.10133945612851285 0.9189938403783121
H -1.748568377411371 1.1782696639144656 0.8857070531792537
H -1.2570237652346574 -0.3580746329528461 1.6430053893370176
H -2.9647866389013577 -0.06894532489620983 1.2439153229739346
H -0.9149242899788032 -0.27664713491801757 -0.685210188295257
O 0.8498051687234754 0.3775811835727658 -1.0213078471603794
C 1.9538988505581902 -0.16931716250617987 -0.32955398150999626
H 2.758658379833729 0.5630232313566966 -0.2253088744699043
H 2.336381041568881 -1.0614197206661828 -0.8329552853470389
H 1.598378284849558 -0.44636440620130374 0.6612178766482988
H 1.133106482503506 0.6451878424112634 -1.9039317230101414
