13
## STRUCTURE-ID: 6456886b56fbed38c66c2b3d ; CHARGE = 0; SPIN = 1
I -1.5474257992701572 1.7608647310208165 -1.6139205492654862
C -1.231082731645274 -0.394191285424817 1.0645348134413317
H -1.8349354362041148 0.3812199127828062 1.5431575176888992
H -0.834093298618433 -1.0343516317549033 1.8547216235915964
H -1.9263826361339396 -0.9824361780698746 0.4557124151249793
H 0.6278958970745119 -3.167232530133731 -1.3515530087246783
Rh 0.2828423837040489 0.25330633583999423 -0.3040727105271044
I -0.18015978879715522 -1.9773335391789721 -2.027276004000527
I 2.217224322841194 -1.074524929098825 1.025515705247361
O 0.25578937089758175 2.165064315111432 1.9643845620360376
C 0.2638408873704346 1.4389005057027355 1.0904409365132353
O 2.303941769739662 1.6458752331391455 -2.147898380537698
C 1.602545059041643 0.9848390600641984 -1.5537469205879468
