18
## STRUCTURE-ID: 64566e9dee5bdb45b62eaaa4 ; CHARGE = -1; SPIN = 1
I -2.344736815658145 -0.5622454017635616 -0.8371525797877648
C -3.7770368683902005 1.048136850348491 -0.5203452532613335
H -3.3714900720523278 1.6931945338924406 0.25220948638330665
H -4.70737724333471 0.5892033386893474 -0.21060770429779896
H -3.8816665768280063 1.574734309582564 -1.4605792577279435
O 2.2180518410802255 -1.869613445373147 3.20713169025209
C 2.26993360278394 -2.0145123481849847 0.4696238385758424
H 2.5246757789487564 -2.7544156420352475 1.2119483354145413
H 3.1694044214076698 -1.6067177112523279 0.020388355866930042
H 1.6187708494368225 -2.4321526171254946 -0.2917178036298934
H 1.9919039656693014 -1.53752027203635 4.07573075082012
Rh 0.34089806563162783 1.0055756162442142 -0.525326668206996
I -0.6493451091040359 2.2746056283442093 1.5383504246038884
I 1.2480798534702366 -0.46644376369344276 1.4746035542105214
O 2.204288392422275 -0.4606340258786668 -2.3528416509941072
C 1.4618922643319554 0.10166584962873924 -1.667404989951324
O -0.2275796199667927 3.107286013188156 -2.5985139164139763
C -0.08866672984856638 2.3098530874250347 -1.7854966118560913
