18
## STRUCTURE-ID: 645673661c2591160b6c2b43 ; CHARGE = -1; SPIN = 1
I -3.585228650774723 -1.5213984452027736 -0.5422433750477952
C -1.8754810681400547 0.21778492067475566 0.19983041566716583
H -2.6194096149835824 0.6274449627339477 0.8524555493217726
H -1.8046735184183291 0.5658835549875035 -0.8119099249733523
H -1.2381781085055321 -0.5687646306851561 0.5562832727741216
O 0.8690119700146534 -0.7253717794038755 1.381194012492317
C 0.5580215110996457 -2.342104393465924 -1.3178965131894576
H 0.6163029172682505 -2.2476175892130152 -0.238386003350402
H 1.239099385167832 -3.0973438269435705 -1.6875830764081636
H -0.45769772750311927 -2.5246016702038343 -1.6464257312227646
H 1.3175870711240418 -0.9530211508147902 2.1997482236605097
Rh 1.132013343163386 1.0640227115070628 0.5761794885019772
I 1.1840828528844651 -0.43816864167403874 -2.1258642935281866
I 3.6376944280572596 1.1003436480451483 1.4462898329506948
O 1.5520876667833654 3.772094122610995 -0.6039111903612793
C 1.397252607183181 2.7112036634963204 -0.17894588123794686
O -1.2505014513266828 2.6584910094582614 1.1446514074907104
C -0.671983613094007 1.7011235340929831 0.7965337864600769
