12
## STRUCTURE-ID: 64568e4d4f5a4a1da66aac5a ; CHARGE = 1; SPIN = 1
C -2.194193214882267 -0.539834367912855 0.08647367859674854
H -2.1333121434105675 -0.10041669462410198 1.0826184150650995
H -3.0228969220507507 -1.247977200768732 0.017418527564258407
H -2.2044269435723303 0.22587208385551694 -0.6913424349152365
H -0.858190240335175 -2.2638094357514955 -1.6089707005013953
Rh 1.5975266756718276 -0.04139111131096857 -0.5821440652952595
I -0.37254826446637734 -1.6949004449026315 -0.17741546256499643
I 3.265838981699538 0.7237324942028169 -2.308702093615529
O 0.04174474958357921 2.1653728959775287 0.5164791856014563
C 0.9506879346095788 1.410042044551634 0.56827940817492
O 2.885120882090038 0.564606654067756 1.9463925234872756
C 2.0446485050629017 0.7987030826155259 1.1509130184026681
