18
## STRUCTURE-ID: 64566f073a4a526ab92a1578 ; CHARGE = -1; SPIN = 1
I -3.282956189228918 -0.4990861975813188 2.4969663052209636
C -2.766729600594805 -0.5676926421980608 0.42585423665413646
H -2.859098640583349 0.4306964247334955 0.016555669886374195
H -3.43606972407719 -1.255371697248225 -0.07490699149899262
H -1.7229760053113212 -0.922504985067269 0.35220812074411467
O 1.312181102421739 3.27273965120357 -1.919282764649784
C 1.7983963645314462 1.879936848837278 0.4098670636529259
H 1.9311021296245638 2.9199586732050764 0.15621202792925146
H 2.757063544919965 1.3922702626676908 0.5430518357235887
H 1.183238814006118 1.769034822855031 1.29562543117065
H 1.0017609582208553 3.4293539804764284 -2.810541625597516
Rh 0.414848365818937 -1.4666958443403597 -0.40693905134944963
I -0.764395444921972 -1.68957271017138 -2.703753457406277
I 0.804770550224511 0.9832881965114412 -1.2352637972967835
O 1.9511475885229317 -0.8967193496483034 2.0913114994164874
C 1.3434012508109128 -1.1119686754471443 1.1362528012027109
O 0.13437275309444333 -4.391403033569006 0.23796318946451303
C 0.19994218252111748 -3.2762637252189326 -0.011180493266893956
