15
## STRUCTURE-ID: 64566e0711560a31047ccc04 ; CHARGE = -1; SPIN = 1
Rh -1.7007121589078986 0.3955291616654098 0.24488377930216326
I -2.844163353772295 2.46963890998674 -0.9197517149780376
I -1.2004093991213147 1.6515635941175788 2.500873787795154
O -0.7745102111856486 -2.1691817395149697 1.4473397462419002
C -1.115890372353242 -1.1589783197038501 1.0114377535004035
O -2.3684051172093494 -1.1799274744840202 -2.197888254196863
C -2.123743082984869 -0.5599603353198436 -1.2609360959678932
H 0.2139593435479752 0.8877394073181533 -2.3344828672647173
I 0.972536876884619 1.095743865104289 -0.8397943715437851
O 0.7100423232179813 -0.9972740654398936 -1.187160134465414
C 2.052557787146352 0.33645000459189406 0.9342954334360309
H 1.431705378898264 -0.35971045783857397 1.4852069001580934
H 2.2586491558939605 1.2138391736355747 1.5360653614497373
H 2.973261897961069 -0.13344672080660722 0.6128815042361844
H 1.5151209319844021 -1.4920250033119191 -1.0329708277030185
