18
## STRUCTURE-ID: 64568940f4fd5f69bf610aa4 ; CHARGE = -1; SPIN = 1
I -0.3406829351715979 -3.4006645640689026 2.4032343002371306
C -1.364956707097319 -1.323646109782224 -0.2784150638867972
H -0.957365713913823 -1.827621557443549 -1.1588280406170903
H -1.8555557029029535 -0.40587670469988296 -0.6083974010501044
H -2.136979517790199 -1.9764952341144795 0.1364001567918847
O 1.3557777462292684 3.378426387604822 -0.9267383912640583
C 0.08246030919298539 1.1859735526994595 -1.838322287386559
H -0.952881436700823 1.5014917819726123 -1.8327469152139417
H 0.1797416817486625 0.14264335404248374 -2.1095460417862277
H 0.6681130280298911 1.825774792288574 -2.483352858919669
H 1.8076401124010282 3.9760431455617313 -0.33040499509889665
Rh 0.126186008587722 -0.9513547402744873 1.2048607904993012
I 1.9510687362545989 -0.06674800978303956 3.050853598884991
I 0.8960743843372806 1.450429888819181 0.11287776066603047
O 2.284935481561173 -2.0971503061715104 -0.5372082977643794
C 1.4549823407244022 -1.6805216356613544 0.1327015613563336
O -1.9944404786580412 0.3941629215676175 2.852313607972113
C -1.2041173368322857 -0.12486696255715228 2.2107185165799863
