12
## STRUCTURE-ID: 645666cb5469d64d17230d70 ; CHARGE = 0; SPIN = 1
O -0.7127063114519927 0.3224807825520315 -0.5526245218390061
C -1.5904479804057132 -0.2578650700503058 0.3529113924761331
H -2.5898048358860004 -0.29120815073275863 -0.08331904254392411
H -1.6093173383520487 0.27797946527834144 1.3060669485150538
H -1.2862412325591857 -1.2996440446823678 0.5005823529769569
H -1.6196842391927277 1.7716438007708002 -1.299564485828311
O 0.7259390320882828 -0.6416927505682778 -0.41545577691238517
C 1.7460788285653417 0.07949788181216223 0.25771548333146926
H 1.9034703310912098 1.0651688711039056 -0.17918182538454325
H 2.661082513490878 -0.5136609233777706 0.18782508450950391
H 1.4493858666275479 0.18036327084393483 1.3000036734054012
H 0.9222453659844161 -0.6930631329496961 -1.3749592827063493
