12
## STRUCTURE-ID: 645667ba09eeca670622414b ; CHARGE = 0; SPIN = 1
O -1.6594169238200365 -0.7773413949738978 -1.5139102565027107
C -0.6104619158707677 0.12833129153033304 0.9180744089463042
H -0.997654305339331 -0.3755985949638025 1.79665847052525
H -0.7349485123743746 1.2055870191570883 0.9903842780075196
H -1.1431257498805636 -0.2513433389245109 -0.019620269519678584
H -2.620887573218208 -0.8211939886783794 -1.495561125051908
O 0.783426958522771 -0.23799203566862664 0.7724636154863169
C 1.3270610109315326 0.17771374597175688 -0.49820974641489046
H 0.6510297492160291 -0.19895754810162597 -1.266815912213348
H 2.308147972223615 -0.2777484606867569 -0.6075130642011334
H 1.3824885465586172 1.2629182790855553 -0.5731914237615837
H 1.3143407430507226 0.1656250262528589 1.49724102469987
