12
## STRUCTURE-ID: 64566596eb487d14262cdf8e ; CHARGE = 0; SPIN = 1
O 0.7019323567464814 1.8948190924487052 1.9143060451322218
C 0.5922761440066893 0.7578416072073774 2.168787145663343
H -3.5469879026011735 -0.9747923725226548 -4.131935355678833
H 0.15725238100143074 0.2777659919357186 3.048730575166351
H -3.313856595279262 -1.132670455350639 -4.85678777359139
H -3.3758584624647887 -0.43872683325172346 0.16203696691554423
O 1.1424605577544786 -0.23737695268838716 1.3081838308641969
C 1.6380015796833176 0.16763287573864027 -0.002275020076445143
H 2.381474407158863 -0.565778030153907 -0.30672507055822534
H 2.0975343482573896 1.148670112418979 0.11157887197726354
H 0.8214890333550311 0.22562654330428017 -0.7212913306795445
H 0.7042821523815387 -1.1230115790864013 1.3053911148655288
