20
## STRUCTURE-ID: 6456798f2e9a9019a9112993 ; CHARGE = 0; SPIN = 1
H -3.17671705060947 -1.41152997710137 -2.3301684447719944
I -0.8069688936658906 -0.1617431331422363 -1.2007463201639998
O -3.6921178179812095 -1.0750928657294756 -1.5567666995692337
C -3.0539262158653613 0.12721468515156575 -1.0499409069932222
H -3.325474439807652 1.004831396251613 -1.6314563634691297
H -3.320788169883155 0.2335461261849412 -0.0019783938930622315
H -4.63711363684244 -0.9125184758512703 -1.792617434893586
O 1.5751774902309739 1.493763376195123 -0.21437033248695117
C 1.8946792891703095 -0.8904869648303738 -1.457440531168787
H 2.9310486926482566 -0.5874763561766734 -1.6781367547309272
H 1.6445640021420727 0.63306459759623 -0.8271359609717892
H 1.6303931170672776 -1.6134205501592853 -2.2340484236917457
H 2.2829526713690895 2.095292783949773 -0.4822755519979881
Rh 1.65243894872019 0.6136734565928214 1.8186928947236636
I 4.262648923084186 1.1225695582776116 1.8944075899432353
I 2.0356951777167085 -2.0802265093754 0.3918099106325856
O -1.3119812896645855 0.8100615846002056 2.1641891997269025
C -0.18698462098579086 0.7281222206810474 1.953480610541061
O 1.8638554137878374 -0.22918456806409918 4.665382563992996
C 1.7386184093686736 0.09953961494926544 3.5691193492419764
