16
## STRUCTURE-ID: 64568d66d9ed5035f240f1ea ; CHARGE = 0; SPIN = 1
H -2.59430100773373 1.6647043058902697 -1.358037858308548
I -1.2327168283946708 1.1380633380704583 -0.5872157245007277
O 0.2981958396952533 -2.047436498792817 -0.2757684127874951
C -2.6513203378562413 0.28394368065913794 0.813908789656581
H -3.235202845210072 -0.4551973758261827 0.27385992208502374
H -3.2553213624916033 1.1032129836743156 1.1939125028199913
H -2.077847407529841 -0.16902206167700584 1.6158485868332295
H 0.23805736669107647 -2.8618749592489454 0.2615153367276246
H 2.127815496924653 3.4452242278292515 0.8593772002251553
Rh 1.2445055519264854 0.22864015830907847 0.1617873033245883
I 2.6212115014165156 2.4958554346539334 -0.32641041041662844
I 0.6085764921535367 0.6049864045659749 2.70173692752095
O 2.478228122440616 -2.6241213922878606 -0.4710903569853741
C 1.5590155476625276 -1.8617490263684102 -0.754503695384663
O 2.1504139866875174 -0.36095960923150505 -2.6076411916994298
C 1.7206898836179456 -0.5842696102196969 -1.501278919110336
