19
## STRUCTURE-ID: 64567bde91027d3e010b5344 ; CHARGE = 0; SPIN = 1
H -1.3655077443246018 -0.4767270415809733 3.29952997123268
I -0.8188791607613629 0.46755564880121936 2.0548081717995434
C -2.620215082460595 -0.04928458678892704 1.0409946271107082
H -2.66119935434064 -1.130908585332709 0.976881413612906
H -3.4506427403301365 0.36043159063108365 1.6034365851545522
H -2.5576349675246357 0.39334571529498036 0.05517117977175365
O -0.42361585889006315 1.7812595215326747 0.14508380507357496
C 1.313971422127254 -2.4122863908320693 0.9045746168465134
H 1.7466884953798294 -1.5398212954800852 1.3822368142115207
H 2.0887395636788533 -3.0721005188164154 0.5331555200776521
H 0.6339549380698025 -2.9354164605523954 1.5659459501801254
H -0.3335936340593514 2.6881341017862335 0.4549331922453934
Rh 1.0229918686994468 1.2110481001766709 -1.3552343549990127
I 0.1659057161227263 -1.7332422578221864 -0.8123281403526184
I 2.9002902707468774 1.162857324996925 0.47839614114536516
O 3.1129363908862553 0.8137016992040182 -3.440409101891074
C 2.2992385382166347 0.9362765611434387 -2.635726256019889
O -0.8706684527403016 1.9087269286953519 -3.5650642419217915
C -0.18276020849596672 1.6264499449432042 -2.6863858932778744
