18
## STRUCTURE-ID: 645688cd64bf61221c630f10 ; CHARGE = -1; SPIN = 3
I -1.446070944068884 0.4164413748034483 -1.6610798181177522
C -3.335260468275218 -0.16487902725191073 -0.7301720493073569
H -3.124666757620979 -0.954766267096286 -0.01660889249244538
H -3.9956059605996606 -0.5029256983738191 -1.5187764906159285
H -3.729343449929741 0.7084906472111147 -0.22317458938061308
O 2.7221464364245955 0.8340965572247377 1.3009706829879193
C 0.9931879343650154 -2.375855468992577 -0.5399259191604248
H 1.7006428587156681 -3.147971430587908 -0.26578188921422036
H 1.4965681554353316 -1.51134883435625 -0.9607080146838541
H 0.23889778618559362 -2.751566455357733 -1.2205412745918978
H 3.645286318711085 0.6167764855579619 1.0638431562441382
Rh 0.012974746011309138 0.9691960905412945 0.7458408488592371
I -1.8827622300290048 1.6719193969943802 2.5360810971010497
I -0.023587216629364766 -1.747687767292013 1.2804567716632516
O 2.40812964868638 0.7305110613936732 -0.9198955593962322
C 1.9270832456160492 0.9321147033366358 0.19574659558325114
O 1.6318283847002157 3.53236738132423 0.577474914185075
C 0.7605515123016114 2.745087250921021 0.3562504303368089
