18
## STRUCTURE-ID: 64568b2093ead7561109291a ; CHARGE = -1; SPIN = 1
I -0.7765781633266032 -2.754584276344266 -1.214451565572905
C -2.9297890960523336 -0.41682391526713847 1.1385468167758572
H -3.6417123776381373 -1.2418524669456434 1.1270820036394364
H -2.9892497045384747 0.14143445023581763 0.20667492928910133
H -3.1629429365784874 0.23909934411059994 1.9774918445074914
O -1.404739057161544 0.9072303831412168 -1.5086776995795192
C 3.7009107579897087 0.7105248640907178 -0.38403409704651054
H 3.644877300713678 1.259426660453312 0.548943769683596
H 3.0560440397094255 1.156377959377583 -1.1329463261588844
H 4.71973330454548 0.6225495037339014 -0.7374478347034118
H -1.4516535497663787 1.4654558934634037 -2.3110352445847466
Rh 0.0005657170117546303 -0.7013103598844957 0.26625281534937506
I 0.46105017622696576 1.4770831723844096 1.6873833747550722
I 2.960727099722106 -1.285147043207877 -0.02237002724271674
O 0.7775769601659922 0.6738771677729871 -1.9846029140302048
C -0.1849377785148511 0.4311394624899389 -1.2829185148342241
O -1.2142067196196986 -1.7043927924543443 2.2657093191429687
C -1.5656759728886684 -0.9800880071501933 1.3603993506100112
