19
## STRUCTURE-ID: 64568ef7df2e26343376344d ; CHARGE = 0; SPIN = 1
H -1.7689766323498533 -3.0908929002767005 -0.016618543407698465
I -1.410433443208967 -2.4173293923000685 1.3704000390733657
C -1.8605718806027287 1.5297995935585396 -0.0137379536805825
H -2.120468207201459 2.2631041564419965 0.7483346988582069
H -2.4957172922337842 0.6420314593987475 0.15285119123858762
H -2.127805436084912 1.9134258460350777 -0.997155971728693
O 0.20314052116428344 2.4110818904938323 -1.4958598215585153
C 2.229447051141595 -2.8777905955956173 -0.4421988476948893
H 1.7058611534199075 -2.784476027859121 -1.388922148735364
H 1.6827716547853175 -3.4931696633180036 0.2645115347189969
H 3.239830844681318 -3.2438223216458573 -0.585150986702358
H 0.6301284227726358 3.268999363797693 -1.680758446440128
Rh -0.11030470721940924 0.2643583387893399 0.26317751653572674
I 2.3978443423241536 -0.8809954612981593 0.4189302257136603
I -0.4433921106939517 -0.6579445371585035 -2.187064651080896
O 0.014673438315685848 1.106091304399297 3.1211037576851774
C -0.014629748788425186 0.7800448072698022 2.026830390502874
O 0.2729235820889983 3.045993804793208 0.6412864425498511
C -0.024321552310307755 2.2214903344745776 -0.19995842584717963
