12
## STRUCTURE-ID: 64566b57040ee31f3b2cdf80 ; CHARGE = 0; SPIN = 1
O -0.573935152335934 -0.028428393716369627 -0.3318163953379256
C -1.7289669033470725 -0.03538734309274844 0.5395421425382887
H -2.5245753859990914 0.5215401030155652 0.04931798010659436
H -1.4939431014101385 0.40260923435493134 1.5100995192003628
H -2.0279683104938964 -1.0743564252920896 0.6683933752304779
H -0.2585852061893776 0.8841600482011875 -0.5059604594845496
O 1.7938722499170858 0.6235986044630998 -0.7618852567861253
C 0.6277260156043634 -0.7041815605968584 0.14400438866116402
H 0.7694931728286745 -0.5598644386315316 1.210951759493131
H 0.561748224612765 -1.7541130208907465 -0.12710384593116247
H 2.436695739223194 -0.01931804695265665 -1.0619298587277852
H 2.418438657589429 1.7437412391382137 -1.3336133489624675
