12
## STRUCTURE-ID: 6456648dd3c30b21006aac68 ; CHARGE = 0; SPIN = 1
O -1.210144543927034 0.442372199530715 -1.505817095812926
C -0.9565910024550839 0.6861009336798217 -0.22798098494379443
H -1.5121876242942809 0.1202957432024976 0.5219944392243779
H -2.8142995994143 -3.9648603549912806 0.399270249561804
H -0.9044621281092547 1.7603463341496481 -0.04106200714790838
H -1.5407709099653282 -0.45156327657452594 -1.689874917520839
O 1.8178908885757346 0.42624739929939953 1.3977848208700974
C 1.449870757531017 -0.010547348707846706 0.20674019688119552
H 1.923742952711487 0.4292675226492943 -0.6739515822652004
H 0.229366096969186 0.316001987428514 0.01677326823401057
H 1.3769276559644543 -1.0992732352102126 0.1850411395616026
H 2.1406574564134284 1.345612095543972 1.411082473357567
