12
## STRUCTURE-ID: 645688314765b2511f2b66aa ; CHARGE = -1; SPIN = 1
Rh -0.2763616291318145 0.8062982013187833 -1.0301656733627544
I -0.4853928751768826 -0.06493141871398268 -3.4771268645010704
I -1.785216969647286 -1.272673093947474 1.4206843299471819
O -0.123237277182997 1.2054906738275952 1.0192117587208884
C 0.01147248418185902 -0.013488029259379431 0.8597595186003294
O -3.246212683565106 0.9034936358241817 -1.1013267252728605
C -2.1117142726955613 0.7471029858303128 -0.9974996275028543
I 2.1735377975312478 1.6676101959766332 -1.3460719639219236
C 1.2347450305209409 -0.8391059759413779 1.1110902051657374
H 1.3038651300545006 -1.6565418456657288 0.38849378170320026
H 1.1814966602031938 -1.2736577604768637 2.1095270894382083
H 2.1230186049078776 -0.20959756877264113 1.0434241709858363
