18
## STRUCTURE-ID: 64568ca150ef101b9c7ffa74 ; CHARGE = -1; SPIN = 1
I 0.2521075820020735 -2.5446363899903046 1.894064041910119
C -1.6511049650066028 2.6652533240159424 0.32992872903275466
H -2.366255661861818 2.5154936785538964 -0.4708224461312711
H -1.942933441894301 3.4847949099635405 0.9753677040501987
H -0.65225044133103 2.8078076357849397 -0.06909457343200347
O 0.9537698037627023 -2.4093105554286782 -1.917000301484657
C 2.3669452862444795 0.8742426827959613 1.722423684014354
H 2.056359543394023 -0.018607155158817335 2.254190085974782
H 1.8283570191029046 1.744020259389006 2.0789185481450136
H 3.4380704550189054 1.0128595312597288 1.789519481963274
H 1.1744418515236625 -3.1671688196991976 -2.4919449151984887
Rh -0.7333511727441927 -1.1050207911092822 -0.10520634202572056
I 1.8774381507151572 0.5948962057660796 -0.37877198486489244
I -1.6259228052093075 0.8530550716445955 1.5313526965630955
O -2.1821394152965863 -0.5047454913579799 -2.6425860675131814
C -1.6380414724265637 -0.6216637259019464 -1.6137943810934186
O -0.8967701164863316 -3.599211958950563 -1.5795391368976746
C -0.25872019950716757 -2.582058411576884 -1.3070048230123061
