12
## STRUCTURE-ID: 645664fcc4104458f876345b ; CHARGE = 0; SPIN = 1
O -3.401920888616383 -0.2701831782033174 -0.8753131936879502
C -2.089148146099498 -0.10147602291183176 -0.38771533216061405
H -1.4862852452431363 -1.0015357341085493 -0.5435408855548169
H -2.0865877778264834 0.15667985033774048 0.6758000929137804
H -1.6530411224755397 0.7210883467480422 -0.9517833993838792
H -3.8217417498912374 -0.9955691278583294 -0.39773136897763073
O 3.0000273129649893 -0.21316797257555645 -0.3787793923546214
C 2.3730459966917836 0.3155716509483273 0.7691351612922241
H 1.3603909450328417 -0.08154470244241423 0.8907992127039143
H 2.3303853078764494 1.4083142498578873 0.7360710746079219
H 2.97806990615801 0.011241786375666259 1.621331316114072
H 2.4968054614282083 0.050580853832348185 -1.1582732855124178
