34
## STRUCTURE-ID: 6456d276942ebc44075c0af4 ; CHARGE = -2; SPIN = 1
I -5.155214288396552 0.5782178035833624 -0.8388200005458448
C -4.767495927396989 2.2612737929074376 0.4596597406587926
H -3.693255446272756 2.294759331457605 0.6138575662672195
H -5.289782485826639 2.0776764454248067 1.391263138098273
H -5.129581235730758 3.149293974067318 -0.04241914043400632
H -1.3076703731583972 0.8251056499759643 2.13580187806767
Rh -3.454988323488303 -1.5233600302563661 0.7667391820807961
I -1.345656723620969 0.14981740534408927 0.7022629112387043
I -4.185836595665243 -0.5079315672678006 3.0557539714382203
O -5.4788514773287 -3.6511691522424217 1.3010138198132224
C -4.709039797547806 -2.846621998490684 1.059293445875321
O -2.5138729364990584 -2.71116691981146 -1.8170029404393921
C -2.8846690369957204 -2.318402144761092 -0.8103423499182923
O 3.1569541543305975 2.340760809956843 -2.8733736321115013
C 0.4230005537963705 -0.6077417945786311 -2.5148195886962963
H 0.75636746856646 -0.697370186767883 -3.5420848722671447
H 0.22578609153487067 0.43129524347942644 -2.2643188472936133
H -0.46002629173949783 -1.2167193066448958 -2.3472242315676652
H 3.9162896099732056 2.0240413284676513 -3.3861615160312706
Rh 1.0612438493849556 -1.3057881496526174 1.2361624719900195
I -0.1354062238773277 -3.687296912273528 0.9291053328956677
I 2.0132713583603667 -1.2955098058004773 -1.217125519819276
O 1.1620242608040852 1.4306214556217767 1.9583445969317193
C 1.8509646323087676 0.4744229660075485 1.5897501258730917
O 1.4812373686042322 -1.28666311778171 4.192696799487368
C 1.2610213776246504 -1.3886686233498833 3.056288282192029
O 3.2010813039693438 0.6545402104967276 1.5346352106426748
H 3.438064960901898 1.5520720987964107 1.8415608463338446
Rh 4.097704725988168 0.22649734523516443 -0.9881762562681999
I 5.041289853510817 -2.0422390655432263 0.08871481871550468
O 2.056462837577561 2.0714881700300287 -0.9861806322727381
C 3.0258707372223714 1.715355404459161 -1.6563269131096199
O 6.67548437125666 1.6943021636477515 -1.3832109749506345
C 5.6672276478298205 1.135107176263341 -1.245316722873872
