8
## STRUCTURE-ID: 645663ba55cacc23201fea6a ; CHARGE = 0; SPIN = 1
H -2.1765830655699916 -0.7361648303728012 -0.46548480085644256
I -1.040294811502472 -0.21466817720886805 0.6828213873776983
O 0.752174477051836 0.4931113725592365 1.716680061107741
C 0.2947717977595036 -0.030401796593790418 -0.9654974900845696
H 0.8412246477378108 -0.9586774970321859 -1.067113493339779
H 0.9725744639882721 0.7745964012472307 -0.7198415426099644
H -0.2936543105460397 0.18645706054079902 -1.8465625554279999
H 0.6497868010810822 0.4857474668603807 2.6649984338333184
