12
## STRUCTURE-ID: 6456673ecc286520f21a5620 ; CHARGE = 0; SPIN = 1
O -0.9834316501703986 -0.1420295753790146 -0.1417900174616342
C -1.1859082114854123 0.46269429237080617 1.070719054025662
H -0.5245001487061817 0.07226280914973929 1.8636772027094108
H -2.224062941296232 0.2968915993414118 1.396148981474511
H -1.0384511720919265 1.5539690187522508 1.007259589415556
H -0.09937465374944127 -1.2645939379119198 -0.33525311275023223
O 0.8407777478517844 -1.5604183450162628 -0.6457456930481773
C 0.8651593197943098 0.3974443128301774 -1.0141015419821588
H 0.1565869123698587 0.7728399470716395 -1.7304063932693008
H 1.7958022177165138 0.08684063853089764 -1.469128594232145
H 0.9885609232145707 0.9949436947089659 -0.12746023787313726
H 1.4088416565525377 -1.6708444544486993 0.12608076299165963
