12
## STRUCTURE-ID: 645667b14a799c71932cdf8b ; CHARGE = 0; SPIN = 1
O -1.6782130600001934 0.6949150980163415 -1.5363174788399085
C -0.6176320948609473 -0.161072538627273 0.9071208891956035
H -0.7202212764100858 -1.2393368562024416 0.9941341361407977
H -1.0227386301852193 0.3466238897135911 1.775491403678406
H -1.1516639145060024 0.19325127796815808 -0.04049003452828476
H -2.5831138890782794 1.0055636185746715 -1.4302167231570806
O 0.7699428716942451 0.23288452565272083 0.7706826460040509
C 1.332614617649273 -0.16735851077258115 -0.4969454567023048
H 2.3025343141981223 0.313221808195109 -0.6000658769143301
H 0.6524587435383259 0.19449624620364084 -1.2688517929898782
H 1.4148390302326572 -1.2506896157180265 -0.5739660756353899
H 1.3011932877280632 -0.16249894300395284 1.4994243637483813
