18
## STRUCTURE-ID: 64568959edc2d134d209291d ; CHARGE = -1; SPIN = 1
I -1.1420757316292243 -2.3128920113693052 -1.9611677225514923
C -1.7793180932594947 -0.30302509346618073 0.8737365783939448
H -2.4036040540870816 -1.0930562952730714 1.3045009414616313
H -2.3363759485058755 0.12646261802472805 0.03479729100744145
H -1.6552200438409461 0.47513616673751385 1.6366306444919898
O 0.1562401078516267 2.554356487182805 -2.8488863499073163
C 1.1143565962068493 1.837585516954451 -0.46860873770326456
H 0.6659948125696282 2.821998088759104 -0.4974233326871711
H 2.1426530064651694 1.8530135211866186 -0.811631579769161
H 1.034604543626684 1.3888552913224441 0.5222902406717438
H -0.11121273815872398 2.490842740420167 -3.770785948903211
Rh 0.08165258153668895 -1.061090878151352 0.2113020977343156
I 2.5983162491238456 -1.4972211757835943 -0.6626097434780692
I 0.010575683514938618 0.7007848935506041 -1.8906616989191742
O 1.1143981961897191 -0.7510120379187443 3.05430810958759
C 0.6314789648175174 -1.2009921394297798 2.0278002167904003
O -0.22877275107155745 -3.585609945061347 1.664225870935074
C 0.10630861865022981 -2.4441357476850545 1.5821831228447383
