13
## STRUCTURE-ID: 64568c003bc12a2516324914 ; CHARGE = -1; SPIN = 1
I -2.9541960788161994 -0.65202855464498 -0.7190555741560405
O 0.10580508647255313 -1.5854377368750987 -0.9256815055515615
C 0.5275889017582946 2.10769436222686 -2.0960729876924016
H -0.13039869399738338 1.8463977389951955 -2.9035114246773817
H 1.5593655297404634 2.3639045442707824 -2.2513537322570505
H 0.8819917105652589 -1.713680120334443 -1.4815493378802431
Rh 0.285046721062758 -0.6379107652152511 0.8374265957827669
I -0.11637723128075543 1.8166879351047314 -0.20070968208127038
I 2.930098186686467 -0.5548040404935592 0.6184371550082959
O 0.28985944998801993 0.11501034319929139 3.725793777247881
C 0.3067322240277882 -0.08774411539112731 2.58877333467115
O -2.08726277029367 -1.870028347272711 1.8095912509134926
C -1.598253035913589 -1.1480612435696824 0.9979121306723416
