18
## STRUCTURE-ID: 64567068c0b4fe3ead0876fe ; CHARGE = -1; SPIN = 1
I -2.9177534745657803 -4.084783407783201 -1.8411372829071464
C -3.1082775698606326 -2.095051498234131 -1.2601791819997739
H -2.44696987571664 -1.436066198808004 -1.8115456005198993
H -2.659976790300167 -1.9849087304296573 -0.05124680605767669
H -4.144208786541706 -1.7910195099843527 -1.1824137940799992
O 3.412774211083982 3.4133821514262213 1.2589169518576897
C -2.351533555114662 -1.8402694964578459 1.1064389282958953
H -1.3365507676424788 -2.20640057422691 1.1741983542833738
H -2.4004890916614063 -0.7759846597524298 1.2863897055922935
H -3.0604332267061607 -2.4158564212021836 1.6851076286513522
H 4.252470914462475 3.639800329326503 1.7055259932501776
Rh 1.9030219166356956 1.4668830184484944 -0.21122962453728522
I 0.16754408592413828 0.1351971693386669 -1.636031947789143
I 0.9710357141545906 0.6211374110065437 2.0487186910845248
O 4.502124268481713 1.509740378304968 0.8325257739715041
C 3.46092322967359 2.1628084187896928 0.7259363596192028
O 3.1457777581987285 3.2058881004315976 -2.284978602561665
C 2.6105210394946217 2.4755035198063173 -1.5449955461533826
