15
## STRUCTURE-ID: 6456b71b8614ef08c02cdf86 ; CHARGE = -1; SPIN = 3
C -2.254205545252256 0.2971580364347264 -0.20729111446004658
O -2.811166635858814 0.775394651537731 0.667981782501332
I -0.49999620202283 -1.9814560898396363 0.5480254150314138
C -0.8961832787787377 -2.4189950453508993 -1.5438568856251478
H -1.4283974476395394 -1.5608163621007438 -1.9428122763669626
H -1.4998002066087954 -3.318894042675456 -1.5712000557291674
H 0.06064884709318475 -2.5597558696218212 -2.0366342908239043
O 2.607219398006572 2.3091625404749347 1.0731707976768512
Rh 0.59708947670747 0.6782199209635633 0.2599687119155081
I -0.5912230663261594 2.4351325638798818 -1.457323810202076
I 2.3852012444685027 -0.2544432163224376 -1.4534301618333565
O 2.56983608040644 0.2678670607507423 2.099984061558078
C 2.3213362751729414 1.196526186251466 1.395245402404952
O -0.37924457236358916 2.5525191202157105 2.381731182224371
C -0.18111436700420885 1.5823805454015936 1.7864412417278943
