12
## STRUCTURE-ID: 645666d146168f4e8c2c50c0 ; CHARGE = 0; SPIN = 1
O -1.1109615488464488 -0.25101576908085 -0.36162644430924323
C -1.451199596273076 0.2153456036135209 0.9336614908344506
H -0.765860517618613 -0.18269582154282918 1.6860750526752921
H -2.4766586779107564 -0.05715652892040465 1.1855738123001947
H -1.3676710469773716 1.2997008452298446 0.9139063302683137
H -1.3044740776561146 -1.1991102745268925 -0.4025398518388924
O 1.4692568200609843 -0.45375644285697003 0.31647145749608496
C 1.031456701448913 0.17934723299909225 -0.6963014350902411
H 0.7121728551330277 1.1952222515456397 -0.5349538367332634
H 0.8367010298511622 -0.2779365459469537 -1.6522685113153592
H 2.662975792502133 0.9022804591436161 -1.5305040693313468
H 1.7642622662861442 -1.3702250096568431 0.14250600504405023
