21
## STRUCTURE-ID: 64567a2eab65841b87111e01 ; CHARGE = -1; SPIN = 1
H -4.537090489472851 -0.9249812298795987 -1.7043076186373638
I -3.8002991170634 -0.8689804181324328 -0.3078693151752933
O -1.2704283512849028 -0.664197322472092 2.313943053082371
C -0.6133305366998378 1.7262689007864869 0.5398106364119487
H -0.5122763118866634 2.378599150195899 -0.33812302151162865
H -1.6555097429467247 1.4104874987080087 0.6247061874568184
H -0.36042548566994015 2.3010739993144727 1.4323626057455705
H -1.5684310691128225 -1.4171811981723492 2.8634187806183773
O 1.6067990983527556 1.4824345462086508 2.6313450417830198
C 0.7971445819516929 -1.0052560303598492 -3.5911443615281815
H 1.5479686249337907 -1.732292394238492 -3.3043927993970987
H 1.2529927025834127 -0.031106020659776044 -3.7259848358131045
H 0.26506045121182403 -1.320025725435346 -4.479848740994196
H 2.266363375351088 1.4439521501090076 3.352181109521586
Rh 0.6523874379450583 0.11633828629539664 0.2365045052493182
I 2.6229576669666583 1.2359486358704603 -1.210898108732642
I -0.6346316151151735 -0.8508660949850954 -1.976737897484351
O 2.5425810371980693 -0.4546320554099679 2.0412198481841886
C 1.7114502412489718 0.423817725842673 1.8168915230729559
O 0.02904876448928577 -2.211275340327981 1.3634110276380764
C -0.34233126298007327 -1.038127063257753 1.423512380509895
