15
## STRUCTURE-ID: 6456b82ad4c8e83d806cd4b3 ; CHARGE = -1; SPIN = 1
C -2.7427809944660493 -0.040959594403542444 -0.03223656227419468
O -3.7172942054640457 0.13674874819165828 -0.5817522168279727
I -0.9273842038709909 2.2002763923735644 -1.4647203573222942
C -0.47619851902862226 -0.7578272796081498 1.9819404547854185
H 0.20477530601837193 -1.175277601704163 2.7264895475591127
H -0.9287934290095209 -1.5617749075289622 1.4038151306242639
H -1.2553953135991391 -0.1905159393611484 2.4916241782110164
O 1.979710288130826 0.6352993597117205 -2.985992743516367
Rh 0.5022716453882307 0.07754048464034002 -0.7965129804639529
I 2.287649732902161 -1.7956870756424677 -0.2700177770188841
I -0.9814640461539353 -1.617249921500049 -2.088556047751652
O 2.6403583865863967 1.710792979271963 -1.0639535043369623
C 2.140601642843929 1.0706820255997487 -1.9086203523879701
O 0.972656702827373 1.1260713879097288 1.4390421892541279
C 0.301287006895016 0.18188094204974212 1.1494510414663068
