12
## STRUCTURE-ID: 64566b5f0995a92b830b3f6e ; CHARGE = 0; SPIN = 1
O -2.183716160124613 0.32464013004224657 -1.004221745332179
C -1.8847617823277103 -0.0857378731108882 0.3145341941807924
H -0.8847022036640162 -0.5222076975738761 0.3827472328215575
H -2.6205046352149526 -0.8077014309571664 0.6824856690955843
H -1.9275829252639411 0.8080892089243006 0.9345682091378962
H -2.13733364940467 -0.4461356524484714 -1.5822953461712583
O 1.5496206608452907 -0.8858645648594203 -0.04678370346579941
C 1.9772161167005324 0.42878790000421163 0.24000648022333768
H 1.5254901826780443 1.1526798007629726 -0.4453418695764027
H 3.0665989823685376 0.5144006166385144 0.19317699607409117
H 1.6486740014849028 0.6505604868048831 1.2539396511198047
H 1.8710014119226075 -1.1315109242273003 -0.9228157681074374
