12
## STRUCTURE-ID: 645667b424f1b35613750ef6 ; CHARGE = 0; SPIN = 1
O -1.4344013743376876 0.24383539311431301 -1.090663365589011
C -1.3909741148783648 -0.4754443282365695 0.06531340289415467
H -0.2858828706085621 -0.3151241910322899 0.4571009040938879
H -1.474243620105472 -1.559756869994815 -0.07822653177207992
H -2.0995086641777756 -0.10293985883399803 0.8067701042771207
H -0.4269983448015029 0.17204413895222648 -1.4074764884850852
O 1.0010606070665327 0.012396202525028288 -1.2507448055820234
C 1.0460545370590462 0.21828216926014624 0.8443668508719401
H 0.6762841526734696 -0.0533950308896616 1.8317311347254912
H 1.0756792221313218 1.2857063512946925 0.7066496100911771
H 1.968308528243301 -0.29284951175145063 0.6266563974060723
H 1.3446219417356948 0.8672455355923827 -1.5114772129316503
