21
## STRUCTURE-ID: 6456779f9cef9f1c502b66b3 ; CHARGE = -1; SPIN = 1
H -3.444457440368745 1.355109589187184 0.35143500840724157
I -2.7577779902858164 -0.06840472373448911 0.5353545479004004
O -0.06897075981231031 -2.0547027453516007 1.0856047986907802
C -1.1762795219954596 0.9980476876561633 -3.2173584556294323
H -1.9715056865148484 0.41250911395862705 -2.800119480166497
H -0.9080724307324293 1.9222061727696997 -2.745426443705131
H -0.8507507600342606 0.8091454097705378 -4.220884357950277
H 0.30570293099166135 -2.95466395988061 1.1416396633097694
O 3.0231093890142824 -0.26690543635607167 0.07300121373123827
C 0.9098125784749801 -0.48705339787776086 -1.7615554435340985
H 0.22988048251131007 -0.12217878144440002 -2.553586026358388
H 0.5124935366665824 -1.3684853778177846 -1.2725122211934465
H 1.9207353264001594 -0.6692800986796495 -2.099349132348613
H 3.4541127670168157 0.02517349416593213 0.8753093454702107
Rh -0.2127307389927287 0.6329485065919344 1.9318651594703284
I -0.7833909557443637 3.2331275669245487 1.897869371090017
I 0.9764927833872773 1.0871682973237147 -0.30974952859207233
O 1.4786560312780725 -1.613788419890378 2.625074937685912
C 0.5507532603298025 -1.1949922555744776 1.941747921813013
O -0.6430031936616927 0.016964631988397445 4.818725564390208
C -0.5448096079282815 0.3080547262704964 3.7029135575188126
