12
## STRUCTURE-ID: 64566813ee67c9618662319b ; CHARGE = 0; SPIN = 1
O -2.0424016926362496 -0.5937977660606758 -0.20513581953040824
C -1.3050385580191486 0.37903186410292894 0.3055581416792644
H -0.18333997418744438 0.3883659137640054 -0.29400028035273634
H -0.9913943519768074 0.2915823087687773 1.347663111601771
H -1.7020823521710817 1.3584460347080556 0.03256734515239054
H -1.9006529201279228 -1.4660258414238139 0.1985709769192707
O 1.7671908858906873 1.1762774683576984 -0.233846403464735
C 0.9048373849128094 0.4710412488353123 -0.9477314976743992
H 2.279419013240017 0.6603607306005278 0.410685929742389
H 0.5816391331371722 1.0233954036069028 -1.8320096202429934
H 1.1280262539188661 -0.5824990772347229 -1.127636846123801
H 1.4637971780191061 -3.10617828802497 2.3453149622939606
