33
## STRUCTURE-ID: 6456bbc4dd29575e307c7c5a ; CHARGE = -3; SPIN = 1
Rh -4.888867685402051 -1.1796201622112301 -1.5485601504307012
I -3.3057268332719523 -0.6205799948179617 -3.616401623981574
I -2.9148397757258886 -1.8392223662637759 0.1426095914198758
O -6.600511080925713 -2.3638521476258934 0.5905166363543443
C -5.977521463961825 -1.8677567574053444 -0.24008482048475013
O -7.092807586620578 -0.9693848365569995 -3.5468656755703796
C -6.263232173221468 -1.0244308760288843 -2.753516170326501
I -4.93826940431643 1.8921685667520667 -0.5416549108677317
C -2.872545343093189 2.2210989056006545 -0.9440318335240151
H -2.539372017649172 3.0655744846302655 -0.3541604971615088
H -2.7647552451734887 2.4127586340070506 -2.0046056170044424
H -2.3169695757892694 1.3246352904567837 -0.664057426238202
O 5.027828914911407 -0.2732580384327016 2.6470805791432923
C 4.906620614547838 0.14625321176497727 -0.8814533171748514
H 5.754632176389771 0.10310824978028837 -0.20743105096034786
H 5.1846464145750755 0.5031398301433014 -1.866726204665351
H 4.4007057116407715 -0.8131492657989402 -0.9309192733774847
H 5.144989227071276 0.6923909942558695 2.690101103439653
Rh 0.6187082728635742 0.8927548169377437 -0.6742744973489131
I 0.3605469173545293 2.914329040183749 -2.3710955963276086
I 3.464111394964004 1.5357249152905528 -0.06494442779871701
O 2.0762714227371712 -1.4428654018681488 0.008785638546495613
C 1.125824868133162 -0.7143453141720546 0.3606316342874256
O -0.04487778945424978 -1.5532578810278952 -2.231109596953403
C 0.16746301971316632 -0.507880196725997 -1.7443331757774638
O 0.26461409543670317 -1.2432635364248352 1.3098775297582936
H 0.5664781983293339 -2.133792934962984 1.5632010330385917
Rh 2.3011244624258924 0.6702040853429098 2.1843122320242414
I 0.2539068256386832 2.3631463695474784 1.621540518987559
O 3.4981753738121237 -1.8585504390993317 2.5633569865573884
C 3.7090631840481163 -0.6554211731397117 2.509916644805898
O 1.7503797245518933 -0.013553730448998743 5.0416026915585075
C 1.9442051554607915 0.3368976583179401 3.9526930460524228
