12
## STRUCTURE-ID: 6456699d6d4f6d64152c50cb ; CHARGE = 0; SPIN = 1
O -0.07584823669101176 -0.28530034331304926 -0.06070623162878879
C -1.4114360447023495 0.15838586873686394 -0.16771115216000365
H -1.4512067918190208 1.2227164043104908 -0.4241759883579807
H -1.8735741371590844 -0.0007114304038957806 0.8037079796215715
H -1.95140914072884 -0.4128672507785243 -0.9303804712939107
H 0.8620144033589133 0.14845225723970162 1.562176571765883
O 1.3302271883302437 0.25074400809582326 2.40425674914677
C 0.6484188252941119 -0.13748992664361076 -1.2630470401505287
H 1.6517449158349136 -0.511133974445527 -1.0726319338502965
H 0.6986870282165527 0.9149127362810722 -1.5631927606398874
H 0.1863946172740563 -0.7170070480276282 -2.0694127494258874
H 1.385987372791516 -0.6307013010517152 2.781117026973055
