18
## STRUCTURE-ID: 645671e03aa144183433a74e ; CHARGE = -1; SPIN = 1
I 0.7296261574489391 -1.0312098294044338 -4.105271855605738
C -2.2871924807261257 -1.8985697579514909 -2.2082467344334042
H -2.800616603838112 -1.470705028102572 -3.060884606311155
H -2.697338527342731 -1.5968335664752895 -1.2509241200932013
H -2.1107062509233905 -2.9639079795954717 -2.2894802992318577
O 0.5389749115599985 3.104854067299497 1.365920596945293
C -0.057728885087048626 -0.9003919871450947 -2.1915146943640016
H 0.4690427200128218 -1.5154356302559562 -1.4753452704686285
H -0.24753917398320038 0.11601461640801917 -1.8769920194953125
H -1.203074758141384 -1.4012435862076587 -2.2243659598368164
H 0.681504011959929 3.8949677797328253 1.8890715583126625
Rh 1.1001135678950988 1.2064826644002722 2.1407646547256123
I 2.366021599847099 0.6063448987209341 -0.23597978080989446
I -1.2399496460054842 0.11269342090452056 1.222241678316197
O 1.6846125598260184 3.143810212805004 4.348671719757623
C 1.5155990799441612 2.2757451768442714 3.587211819173743
O 1.949958277426492 -1.324017332643415 3.457880314629665
C 1.608693440126917 -0.3585981393339812 2.907242998789247
