20
## STRUCTURE-ID: 6456b6caf82b520fab630f04 ; CHARGE = -1; SPIN = 1
C -2.130077684512465 -0.4383153696944254 -0.6120307909930256
O -3.198126882772334 -0.6419610998034634 -0.972125653809363
I -1.3980474772279816 2.3087432378155466 0.9220750592806591
C -0.5773273505447485 1.0726165361717381 -2.720110237889058
H -1.046229888475474 0.17987131925892882 -3.137764024341704
H -1.362566239807716 1.7497131259042535 -2.385796538434048
H 0.029714983832927516 1.558357469929942 -3.48371705818807
O 1.2956690255701673 -2.3242810814690524 -0.1389222368985705
C 1.345178486185888 0.915153412212702 3.485030605232606
H 0.7936976317402556 0.0928310150516446 3.930100777683316
H 0.7262384722118388 1.8044282019658864 3.4123627931085454
H 2.2639675953836886 1.1149253069099543 4.0234510623796025
H 1.597227353957433 -3.162144512086829 -0.5465346565004984
Rh -0.4788109706709739 -0.14201930400409513 0.10336783856658184
I 1.896609015176534 0.3256368376807382 1.4593020674720958
I -1.471582263839883 -1.5890780046968225 2.2713943292131824
O 1.5160019794486386 0.7534887267971191 -1.6413914414513395
C 0.3085922317894023 0.652494216410974 -1.569849391270436
O -0.3061980531562485 -2.3999974757753004 -1.6777383457868906
C 0.19607003571100304 -1.8304625585795826 -0.7211041573736574
