12
## STRUCTURE-ID: 64566678b94a6e50e7071031 ; CHARGE = 0; SPIN = 1
O -1.2587066726992255 0.014254451886591482 -0.22845049717904775
C -2.2303379685779894 -0.4307353289557858 0.31759878202328445
H 0.9844784147369355 0.35637323639717045 0.913860359291384
H -2.9813826056804626 -1.0259302659285408 -0.21918808629918846
H -2.423165907011214 -0.26826499322113234 1.3866929596371655
H -0.7214204589661295 -0.10010352699741645 -2.131206872941805
O -0.4708077830242813 -0.16382683826496539 -3.0630892614318355
C 1.9427317965635373 0.33633567706210177 1.416376734368737
H 2.3016431642838486 1.3483179907638416 1.5506388752098013
H 2.651790984815488 -0.22091671799885407 0.8181391920492441
H 1.8354529707662022 -0.13924147098061598 2.3825787377964605
H 0.3697240647932954 0.29373778623761027 -3.143950922524206
