12
## STRUCTURE-ID: 645667ad13facb7a9a32baeb ; CHARGE = 0; SPIN = 1
O -0.3392736187554089 1.0522189480151272 -1.8869327941555405
C -1.71269927484714 0.8303254148834031 -1.6762964685263049
H -2.0046642611905043 1.0906469890173973 -0.6557918027926828
H -1.9814122760118174 -0.2081506229226791 -1.8873950684750898
H -2.191605378791253 1.4986828846861653 -2.388788908822556
H 0.8549624842330158 -0.5872402661261646 1.2892750897962055
O 0.428525433254634 0.20046134459408974 -1.0332844636943754
C 1.316154933816447 -0.8971120211308264 2.2187406842706006
H 2.1997757510753146 -0.29912158535356853 2.3995224590244764
H 1.5947200782217106 -1.9408468330964121 2.154685314585623
H 0.6167613391872784 -0.7602479411167474 3.0331289798787044
H 1.21875478980772 0.020383688550205645 -1.5668630210890646
