13
## STRUCTURE-ID: 645688791149da0da00b39d3 ; CHARGE = 0; SPIN = 1
I -1.833803320351598 1.8811866918534665 -1.1069316155007893
C -1.4550443082298943 -0.8074803693082269 0.9017534882570479
H -1.7831654301650817 -0.25679411711166994 1.795855988025315
H -1.121691229050277 -1.8015523617957951 1.2094233656189894
H -2.311904323005132 -0.920598016501712 0.23226925977965188
H 0.8458838057548838 -3.056615394329185 -1.3464351717134044
Rh 0.052840940168002275 0.3523924322435824 0.06891481139994517
I 0.07498494954476179 -1.891113658214776 -2.0932842069091357
I 1.8287485281321596 -0.8836358440662562 1.6549328186222543
O 1.371460657492197 2.8725370436500506 0.9968007786882382
C 0.9019233699879478 1.9017067604715936 0.5894216289611472
O 2.0704861152877543 1.4527253697240166 -1.8745700883772685
C 1.3592802444342815 1.1572414633849126 -1.0281510568519903
