16
## STRUCTURE-ID: 64568dd06789d552d34dd533 ; CHARGE = -1; SPIN = 1
H -3.122705490599314 -1.1026763652464358 -0.9001369383648214
I -1.449942720610736 -0.9097603347190427 -0.5517121128119851
O -0.23427185384673174 -0.5556305835879745 2.3303191935193035
C -1.795019351516144 0.8607761321737087 -1.770234991713076
H -0.9942239057305343 1.561057947275004 -1.5483395102293342
H -2.7598488849292804 1.2710712090112999 -1.4973501061198293
H -1.7495683518333802 0.5567526442819414 -2.8103201621494733
H -0.39092187348066637 -0.209054367335659 3.233022249503129
O 0.8786051357886936 2.0531442097718826 -0.3661890237374544
Rh 1.1284360104832065 -0.15055091445747545 -0.13505499482052466
I 1.435787067238802 -0.5330653481412122 -2.7168411517241267
I 2.8129666289546327 2.1751201015723987 -0.058624907227107906
O 1.911432102021329 -0.07894859303289449 2.7258994604035895
C 1.0538241508337296 -0.5120563685778807 1.9669454455400777
O 1.8095875339675873 -2.736274009759777 1.2823060858463498
C 1.4658638032588092 -1.6899053592278792 0.8163114640852779
