18
## STRUCTURE-ID: 64568b95361e7627ac2b66a4 ; CHARGE = -1; SPIN = 1
I 0.315266606736233 -3.316300636437666 -1.8304257063589378
C -2.4539629805811716 0.1272127416720437 -0.04557334461191168
H -2.807826897036357 1.1322098236793015 -0.2846491452558105
H -2.6311474900434573 -0.0644380173536905 1.0165647764377668
H -3.0468729640921413 -0.590145991951738 -0.6200193567126815
O -0.0026763875730852057 -0.0732068367845973 1.5862323321261775
C 3.124955247524382 0.9912965903680243 0.988118720105965
H 2.3792389723998086 0.9273044285206193 1.7740413582766823
H 3.1581516076470346 1.9873519392074266 0.560548511649239
H 4.098246091347249 0.6644399074764956 1.3328977731758893
H -0.47169398900672965 0.5895675360966296 2.1025682482069676
Rh -0.39772949358194987 -0.0557866534870095 -0.4153624437002061
I 2.478028101537964 -0.3791693595973943 -0.5549590167229416
I -0.039525187988221994 2.6234507845673427 -0.5165738890227011
O -1.0051551440092026 0.04243717524184562 -3.340937298923493
C -0.7420705786142073 -0.02851772612672028 -2.227461780796763
O -1.255654905112257 -2.61446189873339 0.6355879350120502
C -0.6995706095539013 -1.9632438063575095 -0.16059767288529547
