18
## STRUCTURE-ID: 645672180a9c3c061c230d7e ; CHARGE = -1; SPIN = 1
I -1.4015303257239413 0.7388545633148913 2.367869925242177
C -0.9694213946807557 -0.9505356664802075 3.3348768812402896
H -1.3565319007628407 -1.8799176153098074 2.9477136806025226
H -1.2489679188892784 0.8388688206503921 -4.5851259301244305
H -0.27615284506609283 -0.921526706952198 4.160248635778129
O -0.1525737805201598 1.7523064115941174 0.7438010866477702
C 0.5382504196262412 -2.419298971136514 0.7385261074830993
H 0.6355786254292393 -1.820119661479123 1.6421752337807556
H 1.5063583321403073 -2.5520902321044643 0.2649176856352341
H 0.046934013572917176 -3.3691392003194993 0.9261007155567244
H 0.46255511041752045 2.3244419320933747 1.2188980223529298
Rh 0.42915180544087256 1.1717200354375263 -1.3840681046156271
I -0.7560429424409733 -1.301209743603527 -0.6850250451843743
I 2.760036063809517 0.4082019837058042 -0.5787015802609504
O 1.700521516117855 1.7201670219547456 -4.021244235932782
C 1.1579601122005496 1.469480629620768 -3.034165397448693
O -2.0000008601085066 2.721145338554244 -2.1399204857611123
C -1.0761240305624544 2.0686510604594672 -1.9168771949916625
