12
## STRUCTURE-ID: 64568efbddbcb248762726b0 ; CHARGE = 0; SPIN = 1
C -1.4002877362384507 0.3838608400203449 0.7204310322968178
H -1.4352639364921718 0.10517534978458853 1.7723792794101907
H -1.9724164088596003 -0.3498665874159633 0.12639630947549865
H -1.8504042870723043 1.3653034654221223 0.5702601179017276
O 1.1470144495164067 -1.3369229085653258 -1.5948732356762008
Rh 0.45816800351437675 -0.017492197801753626 -0.3298755829577987
I 0.002536413365251129 1.7099997142397974 -2.1892915724858666
I 1.5001106558523234 -1.452437287427593 -3.5332066636956267
O 1.5200982183827692 -2.430141844147717 1.1049140078398039
C 1.0475279159056825 -1.4685414609325682 0.7450445803019387
O 0.5500621947976998 2.1766993600416766 1.6713334384819067
C 0.4328545173280065 1.3143635567823928 0.936488289107611
