12
## STRUCTURE-ID: 6456699f672c0d6fa0623190 ; CHARGE = 0; SPIN = 1
O -0.6107335703767884 -0.6780492387365615 0.15371963028482888
C -1.6814485378137605 0.01633541854020803 -0.3455875248331219
H -1.6998426601841345 1.0667087028647633 -0.010095684543588165
H -2.615506521726696 -0.45695143793469545 -0.007918253787116983
H -1.6912284462564573 0.0055318277393378535 -1.448264696069529
H 0.18670279929244277 -0.13831219693576458 1.2055054817395456
O 1.1128412746224805 0.25694009242636306 1.4583374029792435
C 1.2358561875387697 0.0778661511434807 -0.5224095898651422
H 0.5809980532359561 0.6552129556496613 -1.152482290780224
H 1.3664943742681586 -0.9479574484560842 -0.8170035891653742
H 2.1535922364141924 0.6062101937257586 -0.30162923704664124
H 1.6622748109858299 -0.46353502002647057 1.7878283510871407
