18
## STRUCTURE-ID: 64568a662b1d8f1f734975a4 ; CHARGE = -1; SPIN = 1
I -1.4301451299022359 -1.1775747224495101 0.20809621236990924
C -2.8765256449211645 -0.2823714503523837 -1.1591674809894499
H -3.0657651317978987 -0.9933976140381183 -1.9529101853678126
H -2.4434239713327157 0.6377159913005367 -1.5372755678327676
H -3.772895605353025 -0.06777083017171281 -0.589024848561399
O 1.9249802381990382 -1.421096483283899 0.7840743454823875
C 1.3916878670956176 0.43506121622649724 -2.0134019483424055
H 1.6492503394036846 -0.289782145369687 -1.250363528202323
H 2.2573430752797425 0.736381587385267 -2.5892798101298613
H 0.5991924466022192 0.06329881317981416 -2.651485732502121
H 2.2070232146219437 -2.357360977452564 0.7777866521661408
Rh -0.44187982780944074 1.0910293237974158 1.323663971315586
I -2.727522805837382 2.464166450405821 1.6218198343695132
I 0.6435396020101106 2.2103779512930677 -0.9901758720120862
O 1.7829652831670122 -1.7018842501073534 3.0002001970946024
C 1.6633323416984565 -0.9881261394558569 2.0183594361275854
O 1.5112896073414266 1.2410222752248214 2.9162632694562625
C 1.1275541015346053 0.40031100386785884 2.0828210555582314
