12
## STRUCTURE-ID: 6456688bd8d2b66b46610ab0 ; CHARGE = 0; SPIN = 1
O -0.20499980801025225 0.26579954591704175 -0.8642470325790022
C -1.5504865121565645 0.37907938915867734 -0.6295074504154929
H -1.9487692559541983 -0.4577879592300519 -0.03198136730103657
H -2.0906991261859087 0.38992463850018266 -1.587868821628398
H -1.7918600759832162 1.3208503066432105 -0.10909846306271444
H 0.479212251877127 -0.9556575458849325 -0.5987406724685288
O 1.1663237508925985 -1.4353420482863724 0.014980754794077133
C 0.9367044023435381 0.3327512498897137 0.9049648453228681
H 1.5521089985723442 -0.18741852940080075 1.6266163582006048
H -0.020542278036031442 0.6055856423632586 1.3153213998825182
H 1.4401649478336953 1.112647009095575 0.362320177473218
H 2.0328427048068605 -1.3704316987656273 -0.4027597282182081
