15
## STRUCTURE-ID: 6456b661fb15926e9a3dae5e ; CHARGE = 0; SPIN = 1
C -2.609332160570799 0.6447587102100186 0.4542156622946569
O -2.155550822000428 1.5451324501702717 0.9801368753242813
Rh 1.0040210786132813 1.2013877751829196 0.6747493084894591
I 2.1769912541889256 0.9986154997897183 -1.674611862329238
I 2.2168447778013363 -0.8831095296467562 1.733885135176879
O -0.12165291077893964 1.577711632491207 3.417002644251018
C 0.27718650790835997 1.4304847970295935 2.3523657391633344
O -0.21040900823565467 3.703225944629766 -0.41792266562484304
C 0.22816193886636593 2.730718563788291 0.0015790511089422985
H -2.1277322906706297 -1.725563496550863 -1.008171745075618
I -0.825223803995791 -0.8968325163872736 -0.46870158930754585
C 0.39393042404507295 -2.412966600334369 -1.4090731146959132
H 0.008872634193296331 -3.3770036321518293 -1.0884331520971802
H 0.33055446764970203 -2.2631402741699413 -2.483333447785434
H 1.4133379129859167 -2.2734193240507685 -1.0636868388928058
