12
## STRUCTURE-ID: 64566b9c1ecc37164a1a562b ; CHARGE = 0; SPIN = 1
O -0.742501388792894 -1.0353126267439614 2.568245802807668
C -0.5849216979631238 1.154273001827788 -0.7723987500838386
H 0.1290902525501995 1.9525076084076007 -1.0026333367389177
H -1.4079788816899064 1.5593475739263603 -0.18835182084277785
H -1.3446922651304296 -1.7000718355503501 2.224292307641142
H -0.9675436187300537 0.7375843724876663 -1.7107739310987065
O 0.017706838533762207 0.15061098691792868 0.014364483843630397
C 1.1239338527653902 -0.4541301839409237 -0.6192303515849625
H 1.8973490914499398 0.2869268369921635 -0.8482070484694697
H 0.8200349113129399 -0.9498932759738671 -1.5478355695182338
H 1.5199540456345335 -1.189976768101293 0.07667894983352005
H -0.4604311399403553 -0.5118656902490889 1.8058492642109403
