18
## STRUCTURE-ID: 6456702a1e1d7754f61688fb ; CHARGE = -1; SPIN = 1
I -1.4341653019056988 -1.2059036825832734 1.6029245062805524
C -2.522777930083487 0.4364718542822653 2.557322803951732
H -3.57693322858165 0.18950695424438552 2.5310704095684593
H -2.3228766681351822 1.3366038722461924 1.9849823915090126
H -2.157381232805751 0.518683787453102 3.5736768518198834
O -0.2368031225343845 -0.5012482142386387 -3.586121393771536
C 1.9824639580913415 0.8598507440622838 0.9175139394489721
H 1.474528107063345 1.617091751064787 1.5022413057637
H 1.2695441722082816 0.3138046663239231 0.2553118113350179
H 2.767657903006852 1.2977058744231735 0.31454264836963663
H 0.2365271161955435 -0.26842439463885576 -4.408989074842982
Rh -0.35297210583889943 -0.5744918459791366 -0.7739754640437918
I -1.3951723602706236 1.814913493893878 -0.8994823670315066
I 2.8555232641995896 -0.5499982773947663 2.2552837415899236
O 1.628165276547569 0.2793508077446484 -2.64602694044596
C 0.5038086856745613 -0.1931664799733929 -2.4864353719696566
O 0.9004604071446943 -3.165873744837784 -1.5495597668894983
C 0.38040306002389573 -2.2048771660928073 -1.1442800306419463
