12
## STRUCTURE-ID: 645669ce361eba51904609f1 ; CHARGE = 0; SPIN = 1
O 0.3868434632186394 -0.16352947646017896 -3.0944030706417682
C -1.8995275289268445 -0.1689565356630007 1.5315010843623091
H -1.743466017440949 0.3724288363931641 2.4554421999680947
H -2.2625948666800726 -1.163866746474083 1.7536481974839302
H -2.62889564337774 0.3542951915669667 0.9270838583976213
H -0.4748748884001381 -0.5870354494241857 -3.1122083772140834
O 1.2358189009282445 -0.038441793253341135 -0.27125794825407407
C 2.241309554307895 0.4350873878645056 0.1813687862960781
H -0.9654925477402031 -0.23801258102476636 0.9894673432465582
H 2.9911523759448095 0.9288055603779544 -0.45135078522636146
H 2.468516391253781 0.4017711786827813 1.2553974220393112
H 0.651210806912578 -0.1325455725858155 -2.164688710457615
