13
## STRUCTURE-ID: 64567108fc1db521b56dc15d ; CHARGE = -1; SPIN = 1
I -1.2555773133635475 2.5039283410502833 -1.044035137327402
C -1.38111716636337 -0.3742138720541966 0.8799337971697189
H -1.0948255707689194 -1.3111209995563915 1.371593439328329
H -2.2799787650584293 -0.5713890310852168 0.28501919376365686
H -1.676707070875742 0.32649264363311786 1.668407808273319
O 1.3626230865461266 -1.2828243112821278 0.22274429237691337
H 0.9627212223230389 -2.111877271493834 -0.0620036305950385
Rh 0.17033844654862512 0.31641536533318043 -0.3918014294512479
I -0.7522386087117338 -1.1504593537838763 -2.4466331266261174
O 0.9550565359382183 1.6779797683345423 2.1289849085116517
C 0.6828596162813787 1.185129956467968 1.1365540833971817
O 2.6236122046316854 0.24708568180193916 -2.1597431770483455
C 1.6832333828726564 0.5448530826345992 -1.5890210217726106
