12
## STRUCTURE-ID: 645668bb4587245d397c7c4b ; CHARGE = 0; SPIN = 1
O -1.143742781211413 -0.5521017146879763 -0.2158609430503109
C -1.9366839321327713 0.1895196134367725 0.7331475504133595
H -2.1597365033708233 1.1970302596129803 0.38259575882161073
H -1.3925590767207454 0.2327232958383762 1.6763550868450905
H -2.8503825095718276 -0.3920788466592379 0.8650322685743476
H -1.5942893552968351 -0.5718434812009986 -1.1051346007872882
O 0.12851416617093414 0.14601215981330815 -0.5359540209966976
C 1.211474651088513 -0.4495222573949829 0.11095109279959385
H 2.0537006490513323 0.1336744417841663 -0.26766708698099106
H 1.34241160373315 -1.4924717566229873 -0.1837453181690865
H 1.159938583471732 -0.34300952189516887 1.1965315079158825
H 5.181354504788766 1.9020678079757385 -2.6562512953855104
