19
## STRUCTURE-ID: 64567ae38556a2223c7ffa74 ; CHARGE = 0; SPIN = 1
H -2.0041060643294215 2.010271216256411 -0.7468191358304272
I -1.5971138663735835 0.4822679400829092 -0.745165134877145
C -3.346157803955125 0.027871426496943588 -1.9784646518908662
H -3.251758714359173 0.5349799303360564 -2.931664415239452
H -3.373098752292935 -1.04483078558755 -2.1319829118445965
H -4.239636116905275 0.34453065531745075 -1.4529108234759638
O 0.09253387723246849 1.5082855017677583 0.5679185348476563
C 1.423488735837046 -1.5339208437602605 -1.6339219340624445
H 2.265625887002912 -2.1383347977284815 -1.9480794946562165
H 1.702651142788493 -0.4871950174993381 -1.5953098841321836
H 0.558961368332903 -1.6970631399407248 -2.2663467523153717
H 0.5604557533258174 2.132066416572924 -0.0018460055107674777
Rh 1.4505671013201007 0.5604578200233954 1.9385523239334075
I 3.4614868022365286 1.2183432117684394 0.3933959397114512
I 0.8951920250055978 -2.1533860169360204 0.37755613678546085
O -0.7799438705635368 0.2798178848597479 3.9127061671483316
C 0.06553106025047349 0.38207854714610884 3.14169247363792
O 3.4561392938779814 -0.378374578212423 3.930991124813664
C 2.6591821415687615 -0.04786537096332671 3.1696984429575625
