11
## STRUCTURE-ID: 64568854f0cabf2df1248add ; CHARGE = 0; SPIN = 1
Rh -0.5205331145704418 -0.6247502130366253 -0.13827612456560323
I -0.05158572036453094 -2.2304066555332107 -2.1256582935936295
I -1.046311341730148 -2.3501900711365598 1.7296920626618275
O -0.7194303929778777 2.0835430529722716 1.2294463750282987
C -0.8154763340250464 1.0877597780897952 0.6428089311546848
O -2.3597354664931234 1.364986375401904 -1.4048060130464421
C -1.4562954011995377 0.8615495023963082 -0.8735994666879684
C 1.494186627133466 -0.08577536029845233 0.20268639772953723
H 1.6283982783141273 0.4543721968326863 1.140403307010955
H 1.848510097025929 0.4968984488939874 -0.650379381195382
H 1.9982727688871689 -1.0579870545821108 0.2476822055037304
