18
## STRUCTURE-ID: 64566f071581f527342c50d1 ; CHARGE = -1; SPIN = 1
I -0.06621200384829067 3.5977575221749745 -0.2001697676554396
C -1.1576814037627168 -1.3194559650522406 1.953129316163642
H -1.756380663555256 -1.8646119833873165 1.227835274773586
H -1.7952266002943522 -1.0374402542523857 2.7880199063455966
H -0.35581377131514985 -1.958559674768459 2.313273027242457
O 1.861780827827621 -2.6034578702609643 2.2962699173748513
C -0.5970760070373685 -0.057080959658856206 1.3523414624662076
H 0.004316944436209096 0.5099111720886751 2.0575601512484765
H 2.064267098575074 -3.216285241905474 1.5851075869468596
H -1.373437094127468 0.5802484627245702 0.9351252852287881
H 2.633110583790839 -2.0422741547449044 2.4058797876466262
Rh -0.23429646808711085 1.8695210837410994 -2.213424237287639
I -2.7840969827963367 1.257612022877873 -1.7713598414911482
I 0.7581134317790312 -0.4726842498837967 -0.32691566584859383
O 2.4029907018654804 2.946838362568206 -3.106766364422928
C 1.3985534467135494 2.5072403553928524 -2.748224948791093
O -0.5782544831916242 0.3735582920070037 -4.773444574937763
C -0.4246575569720747 0.9291630803391847 -3.7742363150024847
