16
## STRUCTURE-ID: 64568e0a17a9857eed670ff4 ; CHARGE = -1; SPIN = 1
H -3.0625004546376124 0.562964592271077 -0.784848655111563
I -1.3975321768053173 0.3294370601961552 -0.47916519225287174
O 0.05764104540867533 2.693673951823503 0.9462948593098971
C -1.906168873471233 -1.6168346382533332 -1.289854352671223
H -1.1209162729256268 -2.304732456369986 -0.9936388420783574
H -1.93388277450442 -1.5110778674315468 -2.3710303420026673
H -2.861463626106427 -1.9068219689481456 -0.8647686186690893
H -0.5521925142189945 2.5828312833173244 1.7009203460959996
O 2.0809899127727265 -2.5645365649992704 2.5784750225703035
Rh 1.223368542733441 -0.06127666255442625 0.16446634705058
I 1.474486254039468 -0.8236441230808561 -2.304361988006811
I 0.7000466407416776 -2.407829403879928 1.301074846250371
O 1.2964082497061449 1.1482704910648642 2.078776570503621
C 1.1297667428071687 1.8801646570982666 1.0582426044184947
O 2.884298549994275 2.3091643285620065 -0.6376829838529057
C 1.9876507544660373 1.6902473211842903 -0.10289962155375987
