19
## STRUCTURE-ID: 64567afa176e32583b4085fd ; CHARGE = 0; SPIN = 1
H -2.040740948851884 0.11630799364826594 -0.31805760258974136
I -1.4285077588535513 1.4390273949092878 -1.6434696690390342
C 0.11478777476073035 0.0007234518777496495 -2.207488500933907
H 0.9557596924931344 0.22690489990742954 -1.5580590199160622
H -0.2937920168518051 -1.7413834923727438 3.3102069106378873
H -0.3024070474932721 -0.9710347117561258 -1.9513030466579184
O 0.06996818990223581 0.9883579627076291 0.8817221876806416
C 0.46727820181785373 0.09402369334525176 -3.6696336681237787
H 1.2328481410176684 -0.6520406887755159 -3.8763734099870155
H 0.8627453575614176 1.0745409093075844 -3.9240947724531954
H -0.39591696835113155 -0.11240683037034489 -4.297413964700492
H 0.5112130569859562 1.807268979731456 1.1183361859596237
Rh -0.09447562849681201 -0.5650287411712601 2.343368444531187
I 1.5374605351382187 -2.0586720198712336 0.8446136205287376
I -2.3231275687997464 -1.2505325884633833 0.9187034355109417
O -1.8201851826619018 1.2243684638004724 3.994015604832315
C -1.1587879233770537 0.5293650722599479 3.3879687781769663
O 2.5649228487989904 0.039224274763938534 3.5427929394118016
C 1.5409572452609877 -0.18901402347841137 3.1041655471310228
