12
## STRUCTURE-ID: 64566581f7fa446224374198 ; CHARGE = 0; SPIN = 1
O -1.797148936229273 0.002823819529402436 -0.5551536076610433
C -1.8747886960971196 -0.3377313049778134 0.8087630285155423
H -1.2728970736184082 0.3390390998393806 1.4248917325237096
H -1.5464710372584087 -1.3672469583390057 0.984125423537421
H -2.91986883450038 -0.24463239498000952 1.1023499355552147
H -0.8716901081361583 -0.10380589607699588 -0.8405005003583575
O 1.0054882909841458 -0.23058292884810586 -1.1267498251779635
C 1.8330693538419922 0.3708614636329593 -0.15081547333362982
H 1.7679723016717603 1.4617641924316838 -0.1926536857598181
H 2.875002415175895 0.06430824017985068 -0.270321261041513
H 1.4745745672331665 0.029730468585280594 0.8185934718667074
H 1.3267577569328044 0.015472199023375292 -2.002529238666277
