16
## STRUCTURE-ID: 64568e3028b63e588b0b5350 ; CHARGE = -1; SPIN = 1
H -3.0712151532627794 1.8318087813992407 0.8929794026234374
I -2.1497031062082996 0.41573893462289524 0.9172510019043373
O -0.844138539286556 -1.5147838995082652 1.0504492555921294
C -0.34425188098783754 1.3902549459790425 0.4006072396594662
H 0.8205543316408542 -2.5866836031588747 -0.7680369869418495
H -0.11044204072011296 2.059845459072208 1.2255789421965197
H -0.565717009832722 2.0078000282823996 -0.468192265393453
H -1.3672454132578855 -2.2434192948736875 0.7023297456459819
O -0.8500510792662469 -0.35324493831756104 -1.6051039712091282
H -1.0390789117077088 0.01975766392953786 -2.490260092025109
Rh 1.07238383986873 -1.3137594889216033 0.1643252808397547
I 3.6780355093664836 -1.4966045622973643 -0.19349124845198407
O 1.8564958537062008 0.9852771685661689 1.952884785979318
C 1.3757767821839086 0.21430229357414476 1.2278213883196643
O 1.1597397961994556 0.6214087076757296 -1.8349741956942525
C 0.37885702156452705 -0.03769819602399482 -1.174168283044816
