19
## STRUCTURE-ID: 64567a1caf03ff4dc4242a39 ; CHARGE = 0; SPIN = 1
H -4.080440828958066 3.609738041196214 -0.2170383169242604
I -3.3063632178429305 4.263683295038917 0.9904471711053157
C -1.5163132664825016 2.195644250223167 0.8873447147220428
H -0.7667290355794643 2.829999318278183 1.3264515832585249
H -2.167689564974404 1.6333984406409614 1.5331631628726625
H -1.6698623689970997 2.196114231440061 -0.18452382793648878
O -1.19672841812188 1.0913516268573311 -1.7744529668514517
C 0.17717925256328285 0.1333758292001418 0.5828342970760401
H -0.5611748412447002 0.9981833056369755 0.5846972726853
H 1.1632337465777907 0.5112682760316543 0.8357128584851888
H -0.15304991113861316 -0.6155164244428803 1.2963109457416035
H -1.3986714101396716 1.0538264078555937 -2.706949330239213
Rh 1.9513962624172683 -2.6797302685196844 -0.7591140989229317
I 1.5461382327185236 -3.474464035489283 -3.1930988580291313
I 0.2700092969477084 -0.7756819493514795 -1.345044303913922
O 2.4667755650275294 -1.824887891533467 2.053320610283858
C 2.226779267667007 -2.109690673188518 0.9648144551455669
O 3.8708266350350957 -4.954409581496012 -0.36445959822428
C 3.1446846045251378 -4.082202198377894 -0.5104157703343623
