12
## STRUCTURE-ID: 64566dc7c8e2e4064a09291d ; CHARGE = -1; SPIN = 1
Rh -0.5882193962351905 -0.3716820059504434 0.02922645096220796
I -0.30339059103905236 -2.19981392326392 -1.9106319295801506
I -2.8797978836561637 -1.718529474272985 1.4377192381486599
O -1.195838712063538 1.7124025347822398 2.0790439329061536
C -0.9140791346736824 0.9432539291098003 1.2760635892940198
O -2.3132211858191356 0.9182607805101584 -2.0596662489033903
C -1.597173355658122 0.49701398931770474 -1.2684360625212303
I 1.3108351809780796 -1.483670489353213 1.5804489552692425
C 1.9758462093713605 0.2884536797146054 -0.17775615479523046
H 1.8921206790567922 1.2325336510229261 0.34363776633919213
H 1.6425763532601754 0.3066452791711759 -1.2120600134623172
H 2.9703418364784104 -0.12486795078803012 -0.1175895236572004
