12
## STRUCTURE-ID: 645664e4985a457d3d6b0e10 ; CHARGE = 0; SPIN = 1
O -0.793915624135846 1.1246991147117236 -0.5597637320789564
C -1.240397604279891 -0.05970798336772933 -0.44841771973371786
H -3.0797241109107754 0.05514695873717047 -1.1399423402058275
H -1.6807513219249406 -0.452814820299032 0.4526537277845107
H -1.0225398845242095 -0.7300982843075409 -1.263612407131704
H -1.0009343150940075 1.7192264173037313 0.18811595530520048
O 0.5913263185009578 -0.9123465194972405 0.5295187994677759
C 1.6450048834109796 0.0372733426092773 0.5545634419378106
H 1.6641465953685572 0.6222285128598543 -0.368887680448908
H 2.608238324612686 -0.4526844016333886 0.6967661177816932
H 1.4595049752932268 0.6970447279105693 1.3991548949307007
H 0.8500417636832674 -1.6479670650273979 -0.04014905760857764
