16
## STRUCTURE-ID: 6456b7c433a78f234d248aee ; CHARGE = 0; SPIN = 3
C -2.6139487115426894 -0.589083811211321 -0.7983220819612037
O -2.580505622375123 0.39120898198548626 -0.18637442903395868
H -0.29105153065227085 0.7638423843554396 3.722442299032198
I -0.8848188174641223 0.7250866077938053 2.255181108176655
O 0.17692301617160788 1.4740693882375835 -1.0754818527958692
C -2.614177593335246 -1.6977196613023389 -1.471372598980836
H -2.9845684737751967 -2.609087080167513 -1.0346444358943068
H -2.313398675391279 -1.7384377513639908 -2.5025790594252006
H 0.06975031170786508 1.9595368158005568 -1.9220431254099555
Rh 1.5050874305459505 -0.11797360295644371 0.7797949218735991
I 2.742267126288069 -1.6780030984294807 2.6212672734782427
I 0.4507383190376999 -2.194023113539131 -0.41237796898322804
O 2.2280933146772495 0.8722736535666105 -1.7652956799685038
C 1.3393946734827733 0.8712074482104574 -0.9445218669845605
O 3.2293496553166126 2.2256491946374277 1.4807866185295335
C 2.5408655773080526 1.3414536443828275 1.253540878347388
