8
## STRUCTURE-ID: 645663cf08cae852826a6027 ; CHARGE = 0; SPIN = 1
H -1.073115756413376 0.7737850580131127 -3.2189818537408263
I -0.635161970646066 0.4875857401909405 -1.6252097678244077
O 0.42074282899623133 -0.4308559390756068 0.10436231799580277
C 0.2624006199208491 -0.11939709360958553 1.431973645175574
H 0.03863092058307582 -1.024431927982461 2.0194118194224324
H -0.5605449566136246 0.5937372008134775 1.596517095988626
H 1.179070111631782 0.33352695805216165 1.845209798303631
H 0.36797820254112645 -0.6139499964020237 -2.15328305532087
