12
## STRUCTURE-ID: 64568ed82e08ea55c4159870 ; CHARGE = 0; SPIN = 1
C -0.9973195839516289 0.7761163002194464 -0.3405615944311634
H -1.0263942712633478 1.7771544402085644 0.08728059535043738
H -1.9026038793574662 0.221346520020251 -0.03481953657359793
H -0.9681095838394448 0.8184101805334799 -1.4316012366865432
O 0.46223475276609044 -0.6063548815206984 -3.0878353930118823
Rh 0.33975491837777766 -0.6965517642845889 0.5161735829910736
I 0.26240570925370066 -3.0261843022615205 1.6148598489017365
I 0.5129061854743419 -1.9151396144262889 -1.7777860400658314
O 1.6348018273807572 1.5932817082860962 -0.8688322209156817
C 1.0470024942169993 0.780482870660817 -0.3365470481392757
O 0.32754926147236263 0.2911495933338403 3.373168508291275
C 0.30777216946986186 -0.013711050769402417 2.2865005342894507
