13
## STRUCTURE-ID: 64568c3d662fdf0226111dea ; CHARGE = -1; SPIN = 1
I -1.4031001591761105 -2.647134847482372 -0.15354890689250678
C -1.682877142996813 0.7179296193767333 0.08085213376198129
H -2.4914337873803225 0.5477381170324839 -0.6356661277162653
H -1.381461823372198 1.769307966785034 0.06019386724371702
H -2.018687343265583 0.4531162094155786 1.0848042396014388
O 0.740973201550033 1.211084124335848 -1.4336690904266658
Rh -0.06156812306844758 -0.44512365485710703 -0.48747899070946554
I 2.5189497637672758 -1.78359037985567 -0.7451723639734777
I -0.024028900793169022 0.517435533282506 -3.0696905024594643
O 0.3103570882907239 -0.49847263261087826 2.4241453146949876
C 0.6981547720641182 -0.4301596131953074 1.287411257775583
O 2.760459770661908 0.7676365637708825 0.8242118051208839
C 2.03426268371858 -0.17976700599772014 0.7636073639792578
