12
## STRUCTURE-ID: 645668bceb95ad40ef6b0e1b ; CHARGE = 0; SPIN = 1
O -1.1577104042999309 -0.6154796351639313 -0.10002822311955856
C -1.951380207384347 0.35685067763852896 0.6095156114245959
H -2.8718665884449397 -0.16202461205522525 0.8816927899621898
H -2.1623455671067364 1.2368555094803197 0.0023379342789317677
H -1.4144994803469155 0.645666756712487 1.5127868483449032
H -1.6009498250493353 -0.8678394329884476 -0.9570917862141421
O 0.12474212342736732 -0.03630110571405523 -0.5791595469629967
C 1.1993050560004714 -0.46660569646874545 0.19909514643689996
H 1.1457297621877627 -0.09964842230027234 1.226112937507934
H 2.0483079203888255 0.0016950383477727761 -0.30375916583965984
H 1.321271159742856 -1.5509718538254096 0.16744630504021962
H 5.31939605088494 1.5578027763369688 -2.6589488508593204
