19
## STRUCTURE-ID: 64568eadd45eba01da22413a ; CHARGE = 0; SPIN = 1
H -3.678936275185007 0.19327961991106576 -1.6124718686831048
I -2.8861602960949106 0.6027122108101594 -0.2967659694716152
C -1.3453851209775944 -1.5937794321771428 2.2578185693877395
H -2.101266312668726 -1.0291674557088502 2.806684982419123
H -1.8456438058087428 -2.2740725898365723 1.5536056367691817
H -0.7674083566335473 -2.1768858142261296 2.9751201881382983
O 1.7853844115315678 2.5560929860149963 -2.6705142685367083
C 1.7923070333028477 1.8181146629154694 -0.06557421300900917
H 2.837519575595061 1.5601920915195038 -0.17630822758362247
H 1.376119883118573 1.4142932312921443 0.8493586774869114
H 1.6494468243115463 2.888015476804968 -0.14070757704602724
H 1.6430993083592496 2.532754377314671 -3.6190797790645193
Rh -0.6537760386427852 -0.9030643589457074 -0.3808002997976406
I -1.2692329852752553 -1.8472873076997398 -2.84326356874741
I 0.7655731171513347 0.9889508352014678 -1.719127974871368
O 0.29596192955934597 0.1628987426402484 2.1514972605335796
C -0.42111647826370496 -0.6127087284959359 1.573385093191287
O 1.9025377437315252 -2.43386445224804 -0.32523307657330375
C 0.9209758428893909 -1.8464740950867855 -0.3176235845420614
