12
## STRUCTURE-ID: 64566a7e55e36f7be946227e ; CHARGE = 0; SPIN = 1
O -3.3469807536818634 0.824135148435483 1.6120636054803539
C -2.1542945137588454 0.8850615791680748 1.4919824375672948
H -1.671964371022709 1.5044789786398898 0.720986741255221
H -1.1625602793307466 -1.386723087808209 -0.38029006533308457
H -1.4667838072416288 0.3420504822926284 2.1570789217450335
H -1.657446974505745 -0.8995853847269991 -0.017187973071720142
O 1.5259942589464326 -1.088256381613115 -0.42351530059372633
C 1.8568240392658022 0.07031409646278187 -1.156775913638944
H 2.6520507798759936 -0.1274243164933088 -1.881970520067351
H 2.164572721254465 0.887557268470303 -0.49755674555465196
H 0.9569727287985196 0.36760647576672745 -1.692647247057793
H 2.3036161714004733 -1.3792148585941646 0.06783205926932448
