12
## STRUCTURE-ID: 64568e0b149b8700a84ed2ad ; CHARGE = 1; SPIN = 1
C -1.3050421938493755 0.6143476965112222 -0.3019170362268605
H -1.4554588748213628 1.6612391458743618 -0.036755259556322646
H -1.8775602397802298 -0.02713324379118288 0.3934456266080771
H -1.6544817578532711 0.4209006626246586 -1.3176471697472731
H 0.5522095480226167 -3.6088331147573323 -0.7086709267116418
Rh 0.5827165981242532 -0.27887974953975636 0.2689675219416498
I 0.30418236948980565 -2.289188103233908 -1.5500040113196145
I 1.4585584172136137 -1.8557912265983887 2.1215271004119907
O 1.1633278148788602 1.6668346976353776 2.4823584194636803
C 0.9303617425989241 0.9520126828749857 1.6441621327006155
O 0.7354075066560566 1.7506266932512689 -1.9091858547248481
C 0.5657790693201131 0.9938638591486902 -1.0862805428394506
