12
## STRUCTURE-ID: 645668b2e2b89f3ee56231a1 ; CHARGE = 0; SPIN = 1
O -1.4030863951509394 0.5852207958811738 -0.1320230992301062
C -2.2920135189861743 -0.36746703726032065 0.4112190251478126
H -1.9885944042906694 -0.5319828309749337 1.443489641144842
H -2.2431808356154535 -1.314869070301953 -0.13310709048445726
H -3.3219640304726537 -0.002273222141347906 0.40107243950512106
H -1.6773086847666105 0.7874187594502232 -1.0353150118060381
O 0.7720517118498272 -0.24285508974000555 -0.47601553145329034
C 1.4909269918656018 0.040028979075146874 0.3548196040177019
H 2.042419601851645 1.3338535425893934 0.26011153523291214
H 1.939705822651375 -0.3087907265383033 1.2819904449690822
H 2.2989588538763286 2.1821906289614237 0.11821955842239255
H 4.382084887187734 -2.1604747290005193 -2.49446151546597
