18
## STRUCTURE-ID: 64568beb46942771f86c2b34 ; CHARGE = -1; SPIN = 1
I 0.32307134350935246 -3.444402174740811 -1.5215202186393342
C -2.4440506785292206 0.23724187091441354 -0.08040699164323005
H -2.540832827095817 0.8054958616835821 0.8491945960923278
H -3.0108970829025172 -0.6917803321909627 0.01967928369476079
H -2.883728028489779 0.8247512626665761 -0.8900994154972555
O -0.04413918561931782 0.08780646055475175 1.6121221960162484
C 3.101744169169546 1.1695747600431656 0.8660615478845867
H 2.307811036311225 1.273546382969638 1.5984388171965893
H 3.204486609381338 2.0718464001183765 0.2738145334571969
H 4.037383166463834 0.8754147917036998 1.3255931599464585
H -0.5548665385836866 -0.46816322731341886 2.2050099449296616
Rh -0.39614066255025177 -0.07628719860772136 -0.39052780424693295
I 2.4855422946447097 -0.42470071157945166 -0.4531355319189894
I -0.02465733420570897 2.58668540745514 -0.7237683568503712
O -0.9069477821778092 -0.17578013747670865 -3.3333890822531806
C -0.687490778041799 -0.16661820986028542 -2.208658155253821
O -1.2618342698952505 -2.5310992270969774 0.8545598626273468
C -0.7044534513888512 -1.9535319792430188 -0.0029683855420552896
