13
## STRUCTURE-ID: 64568c9531fb8906fe4d3033 ; CHARGE = -1; SPIN = 1
I -1.7356191313183942 1.275986162035693 -1.5101396347230356
C -1.3034208497750477 -0.7749846660455704 1.090592298299455
H -0.8786030628557266 -1.045327114046508 2.060906582424786
H -1.7406098305052808 -1.6744301858102564 0.6240263669239245
H -2.095808905667533 -0.042604441179501615 1.2644926941427634
O 0.5676110188839365 1.285531055594248 1.337635892272609
Rh 0.12201396310637294 -0.16899827740759513 -0.285677453849375
I 1.8008789799292677 -1.9728777166817966 0.7228229809823855
I -0.5825038054139705 2.5645705698207144 2.239338741842805
O 2.388770920376197 1.4556695052645043 -1.364155969763004
C 1.5314451268764495 0.7016450011449582 -1.183291726352099
O 1.1550526143079232 -0.962993889634356 -3.0296269252472374
C 0.7707929620558138 -0.6411860030545741 -1.966923846953961
