12
## STRUCTURE-ID: 645666ce215c8b72423eadd8 ; CHARGE = 0; SPIN = 1
O -1.5705289090792136 -0.7562094810327336 -0.2582389890724265
C -1.8273101595024848 0.05807677852894805 0.8663161374006046
H -1.4682880266614946 1.0558814321661443 0.6193030310096758
H -1.2906203843810926 -0.30158250586016927 1.7497176850636051
H -2.897101180788912 0.11055417461789024 1.0877044936653752
H -1.9152606806719012 -1.641212814904602 -0.08752654178361426
O 2.4484024878909922 -0.04599423792649732 0.1789766601013931
C 1.6689879208486706 0.5084140046676968 -0.861452681105773
H 2.1049767255474596 0.29321626962304265 -1.842347059898798
H 1.6663485574928942 1.5861223889455154 -0.7068991500238389
H 0.6405284705980184 0.13893291738674132 -0.8347029012937677
H 2.4398651787070755 -1.0061989262119655 0.08914931593754312
