13
## STRUCTURE-ID: 64568d4de096987ebb5fdabd ; CHARGE = -1; SPIN = 1
I -2.8354304443527734 3.4514226088165123 1.6575181461003525
C -1.021904083528375 -1.242712451860656 -0.12687728033189719
H -0.7845503419545417 -1.9611543416492196 -0.9115576345655659
H -1.6723083126417317 -0.48724773527178683 -0.5903993663834616
H -1.5940824412164052 -1.7425960555114883 0.6572074513085905
O 0.9505695092675701 1.6974175817011927 -1.6147131474064567
Rh 0.44386446145618486 0.26371971516028153 0.5516077691223134
I 2.441801782257306 1.4030011427916527 1.8198261440733534
I -0.7665828196643623 2.6238717843484602 0.08113392455754337
O 1.788474419977064 -0.39497369197580895 -1.7925800620460994
C 1.2131307816901564 0.5413112838599565 -1.2999845133111783
O 1.0890740651340542 -2.6216998724290534 0.8790508641807779
C 0.7479434235758609 -1.5303599679800572 0.6897677047017151
