16
## STRUCTURE-ID: 64568d61462cec7002111df0 ; CHARGE = -1; SPIN = 1
H -0.6932250932315213 -2.336391077961083 0.5136046199826716
I -1.335844378800326 -1.0613906035169816 -0.34417725140136435
O -1.371561901790987 -0.6781520367810895 1.7527016157684125
C -2.673894361357596 0.6851328098340557 -0.3468457456954718
H -3.6084562284453416 0.3941658937892138 0.11723386158390135
H -2.818301108683664 0.9205685928381829 -1.3963678282351621
H -2.195916379432615 1.5039172973778072 0.17636070425760098
H -2.1545094558731845 -0.2709778680998895 2.128715592830743
O 2.581025085111147 1.7402629572247712 1.9723103650638452
Rh 1.0973205004741398 -0.05322244106324527 -0.7484487842060822
I 0.15931418559921065 1.94830613472818 -2.185173128788113
I 0.9042490938211808 0.9045914131838672 1.805878863486755
O 2.8337202015207588 -2.5310866097899396 -0.6352574192019469
C 2.2575268341017067 -1.5094673587879202 -0.7154575701999388
O 4.08467806054869 0.29005480864592315 -1.0731780533793926
C 2.933874946438408 0.05368808837809654 -1.0218998418664649
