12
## STRUCTURE-ID: 645666406d4e7361c54b6607 ; CHARGE = 0; SPIN = 1
O -2.5728953751308037 0.69155129157602 0.4287419247626433
C 0.013198637538493667 -0.45829650324007254 0.7574659803972859
H -1.006144775079632 0.024798483327587065 0.6248591137065176
H -0.14932756288197283 -1.5317478304169523 0.8180570903013443
H -2.905574697187065 1.163531195199033 1.1983910519722107
H -3.2478971769740186 0.06244235216334325 0.1550871288452042
O 0.8599052010684565 -0.8491829345042167 -1.385721695909827
C 0.7485460210828875 -0.06915893173569473 -0.3942559100765174
H 1.3277431950291405 -0.5195095445686156 -2.177215130669312
H 1.1736577374444395 0.9339038482818944 -0.4340483635938502
H 0.3926432659951903 -0.014138990371607619 1.6738681548822325
H 5.366145529094886 0.5658075642892807 -1.2652293446179275
