12
## STRUCTURE-ID: 645668ab305de204220b39d6 ; CHARGE = 0; SPIN = 1
O -0.20525669257948534 -0.6826117616787266 0.5094523711316463
C -1.2974275701808946 -0.007318494989137476 1.0758146285461094
H -1.6180819162615698 0.8330559991213891 0.4533854242987198
H -1.068154876553022 0.3439793425735891 2.0854281714950473
H -2.087934239523893 -0.755076299131178 1.1013818652563852
H -3.2897109858074995 -0.812644852684606 -3.1416384797125767
O 0.9045935781588252 0.19265192460489133 0.35534928885102796
C 1.3175783073977514 0.2712168453599431 -0.9888250067469713
H 1.6959582940349773 -0.6898709942914814 -1.346450740124818
H 2.102349134016689 1.0253351148225298 -0.9871832337097025
H 0.49890702326152114 0.5853737326169701 -1.642161070132392
H 3.0471799440366 -0.3040905563241836 2.525446780847565
