16
## STRUCTURE-ID: 64568def1998c945bd2648aa ; CHARGE = -1; SPIN = 1
H -2.3589528765872068 -1.7547976493902449 1.346690652350241
I -1.353863604597905 -0.4199064195787263 1.0113939103577434
O -0.4343813373241608 1.546121780875982 0.24632295457372086
C -2.8567152584675397 -0.0433919747129786 -0.4832440829827515
H -3.8110384705859577 0.03011876150333742 0.026844971386984044
H -2.826934936910859 -0.8617469583978478 -1.1954437235928903
H -2.5830621246341057 0.8873477886101347 -0.9642125089793067
H -0.1449581725799027 2.0540248842465876 1.017330912899723
O 1.135687698755283 2.340862490847988 2.4460159945393283
Rh 1.2800934416648475 0.13932426159185654 -0.31755941380198527
I 0.18468984368143218 -0.24300617919955889 -2.6341577162941228
I 2.1708681598118957 0.7929756891107307 2.104495562298749
O 2.1579769481843467 -2.630502553196218 -0.021688987202553626
C 2.353789501733135 -1.4860506612561375 -0.35513596829178573
O 4.028365433109945 0.09389193308559776 -1.3559770912553635
C 3.058435754746756 -0.4452651941405054 -0.871675466005721
