12
## STRUCTURE-ID: 645667db0059a03e710b5358 ; CHARGE = 0; SPIN = 1
O -2.893434430397509 0.4930009513683166 0.33642829358526316
C -2.028407521428882 -0.32618478460884204 -0.42445948945306244
H -1.998347560470976 -0.0033348196020664836 -1.4703448621174628
H -2.4353290017740443 -1.3348942888789395 -0.3790447296734758
H -1.0151320639646526 -0.32871958014219754 -0.015153011558970373
H -2.5169056636722766 1.3799605083376394 0.3756457232714091
O 1.2073534418012295 -0.08446002507580201 0.7899117435026283
C 2.3304224492726107 0.0875813606528514 -0.0468032515994728
H 1.947610226131838 0.3077786710553173 -1.0418424752187905
H 2.937909879088901 -0.8209712170398228 -0.0937684108306437
H 2.9534025233808348 0.9224518640811341 0.2877134797527701
H 1.510857722032925 -0.29220864014761017 1.6817169903398306
