12
## STRUCTURE-ID: 64566795734e0537ed56ede8 ; CHARGE = 0; SPIN = 1
O -1.1982489295585075 -0.09845276555795396 -0.9473761112678662
C -1.8480071640454878 0.04631918904378741 0.2999433820016116
H -2.845961824242277 -0.39885532137008917 0.2828404512503517
H -1.9244735482625943 1.0986511504718606 0.5879746195011806
H -1.2400663275596684 -0.48037616213406925 1.0331785094562076
H -1.7353651659576126 0.32203516455302184 -1.6297867092332765
O 1.6100736657745491 0.48597844538060464 -0.8427913769341608
C 2.0324758484248897 -0.1873943255767497 0.31912772295660985
H 1.8816293783601528 -1.2681240581233701 0.2332684479026847
H 1.5055147684250183 0.17761437284097076 1.2072532843074595
H 3.096957561594117 0.012738782205137059 0.4345312748392634
H 0.6654717370474296 0.28986552826683953 -0.9781634947800723
