13
## STRUCTURE-ID: 64568c81964f2d05b04ed2a4 ; CHARGE = -1; SPIN = 1
I -3.223380595083355 0.5440491782955968 3.5559224440775887
C -0.9659721023687956 0.3953974381558791 -1.110102261911637
H -1.1140730234259733 1.465099336540525 -0.9031459609075996
H -0.7220469847193295 0.2936295703059088 -2.171056337619865
H -1.9182347025417625 -0.11844438387954616 -0.9368506896649252
O 2.3683451358550562 0.9784649289737367 -1.7507760434286759
Rh 0.5223456733548871 -0.25967823953856284 0.19889906503375124
I 2.3062618598894593 -0.938430098185692 2.1279340212854954
I -0.6282009982262128 -0.10733884179125826 2.6843153504940345
O 1.3468932814261718 1.730049111547691 0.16527953869517528
C 1.7016234796168013 1.0422906974288055 -0.7692864060282641
O 0.08841667173139924 -3.0619875225284248 -0.705610998548642
C 0.2380223044916336 -1.9631011753246708 -0.3855217214764423
