21
## STRUCTURE-ID: 645675a7b7416910af4b65f3 ; CHARGE = -1; SPIN = 1
H -1.1235968601483075 -0.8854847560214895 2.6679411663595816
I -0.5100401722398799 0.5888588753974542 2.574512878562314
O -1.9482215412816866 -0.7511404160507793 0.8510349896508438
C -0.966078974915245 1.816008141268121 0.8864022189131718
H -2.039501213086233 1.9883013945223675 0.9405941464788596
H -3.381194731767236 0.938674435200527 -2.420699377558776
H -0.4230925410400419 2.746879408566008 1.064024931351023
H -2.763009003602691 -1.2643142071040057 0.9029918754199879
O 2.981796249910587 -1.996548508607429 1.2437046347891407
C 2.347478770083645 0.29023918540356974 0.052288365384482824
H 3.3522288912430955 -0.05289428202933616 -0.16625506070592008
H 2.324674488154198 0.801908435174947 1.0095693357773285
H 1.9422094906363563 0.8942069778413941 -0.7507990311332716
H 2.872056915272915 -2.779122682952765 1.7945922849580855
Rh -0.9865662182531408 -0.613718970795664 -0.9915742035698609
I -1.7788470545003159 -3.0397348383939815 -1.691854611760848
I 1.1546634219224365 -1.4709768537832566 0.21515260819781007
O -0.22205773615570415 2.0947800980310096 -1.2895954148406825
C -0.6181456954333095 1.2504550250219018 -0.4948420907600307
O 0.03465368662654799 -0.18531099711200832 -3.7485440990798935
C -0.24941017142598992 -0.37106546357658293 -2.648645546433402
