8
## STRUCTURE-ID: 645663d828a1dd6593670ffa ; CHARGE = 0; SPIN = 1
H -1.8073942069928923 -0.11847010147473935 3.2472804869180756
I -1.4911202558969137 -0.4740199705928216 1.7024806581257315
O 0.05139186182870271 0.006826188580075167 -0.08894272206424936
C 0.7050852709897099 0.03533569668910426 -1.29387638664938
H 0.7759974082111771 1.0640112521111686 -1.6914122309620823
H 0.1778319771129091 -0.5726298237807778 -2.0475287938432305
H 1.732880835462917 -0.36274667936977945 -1.208992872674002
H -0.14467289071561046 0.421693437837766 1.3809918611491316
