16
## STRUCTURE-ID: 64568d6008d9ee4ce43ae5d4 ; CHARGE = -1; SPIN = 1
H -0.973541943107278 -0.5563266911249978 -2.3917255596354035
I -2.1704553465917993 -0.5442104958386974 -1.3139460523454858
O -0.34353953620713923 1.0242712256694828 -0.8135020499649431
C -2.431997820094302 -0.3560897683131182 0.8321390280888276
H -1.4840985651871803 -0.044794317432785155 1.2628611564372032
H -2.726749022328624 -1.328254489035284 1.2085999179103941
H -3.204539389116255 0.3871788221026392 0.9875634033914994
H -0.5588803213173738 1.9057290902375696 -0.4965049634567197
O -0.13234437908958227 -1.6177790958192735 -0.44952937165300905
Rh 1.2809269501767606 -0.018425606145645722 0.05930978711673907
I 2.8046047554753124 -1.6374797867555881 1.362535025718607
I -0.48041902118561935 -3.460178095595285 0.12142147301919134
O 3.31292046930909 1.0286656875075932 -1.6716499312157684
C 2.681504967304186 1.1465591047204182 -0.6461481129796238
O 2.22029442960658 2.4620561167935144 1.4107484446122918
C 2.2063137723532247 1.6090782990294699 0.5378278049561855
