18
## STRUCTURE-ID: 64566ecb48b49d175b4ed2aa ; CHARGE = -1; SPIN = 3
I -0.28945551013205384 2.8261087619276197 1.9641286082845828
C -2.078553909595288 0.8133871881061868 -0.40747331300253925
H -2.370786495821157 0.6022143489121228 -1.4396197274899143
H -2.591643572206569 1.7347030233912366 -0.11402746642978984
H -2.4428552349811525 -0.0019883528658640125 0.22462326345770545
O -0.06752100120004553 -1.471300415667529 -1.1571578038689894
C 1.8578455819996842 -2.0425513236269315 2.2231524819212245
H 1.8086368103861215 -2.8774683705471324 2.9107039458956434
H 2.51991948292742 -1.2643651065185821 2.584793112477259
H 2.148252038262056 -2.3572845207423665 1.2280575656896644
H -0.0613643282988477 -2.1117154798252917 -1.8983035879184522
Rh 0.027958135170252186 1.1209265722855497 -0.09255759824792384
I 2.676190071088627 0.6962842738764543 -0.21130481756748512
I -0.13310259418934686 -1.2000386005912669 2.0866434327258916
O -0.04519108630271901 0.07305686391236661 -2.7592456071636406
C -0.05720770384822808 -0.1998073095948835 -1.573787904443017
O -0.8563728889098516 3.0288000214580704 -2.1488883758867665
C -0.04474779434891276 2.6310384261102473 -1.419736208433437
