12
## STRUCTURE-ID: 645664bc6da7af12e27b9250 ; CHARGE = 0; SPIN = 1
O -0.894271354803048 0.1840704450664873 -0.6551058667058114
C -1.7634416382264784 -0.012027755608558758 0.4761821103956196
H -1.5383889072420662 0.7685391334227467 1.1996862894688731
H -1.6076883574265002 -0.9873344103234716 0.9366266656277528
H -2.7910695586334344 0.09307294681124233 0.13324261547052127
H -1.0960779851524383 -0.49192428462405907 -1.3363157706238324
O 2.9030031690207387 -0.24208904276734322 0.2097970828610423
C 0.6388148651092428 0.03752647252313978 -0.29722821453668474
H 0.7939589715847641 -0.9452896429717518 0.11572835426109629
H 1.154940177687542 0.19092837133039625 -1.2293485887047395
H 0.8348098606409495 0.8192755072943061 0.4170210311519029
H 3.3654107574407335 0.5852522598468698 0.02971429133426436
