13
## STRUCTURE-ID: 64568c14e60c3243a92648b3 ; CHARGE = -1; SPIN = 1
I -1.0788097158834167 -1.9111792394093134 -1.903998971927111
C -1.6326124616972686 0.6512492404494601 0.3102096271965289
H -2.4074547547102894 -0.10660754413130105 0.4190437337709037
H -1.9219169779283853 1.3487273736328784 -0.4814864462738166
H -1.5223538152519394 1.1819773752729843 1.2564966730503877
O 1.076306651442374 -3.382472251762149 1.1014647931903345
Rh 0.20011804600203606 -0.22235521001272449 -0.30851952020823903
I 2.8229471451559065 -0.8790236160587721 -1.1728713080401305
I -0.03143937477664034 -1.9984030295753537 1.6041479380989807
O 1.794287698908273 1.561266424597199 1.51396514970682
C 1.1776177907586571 0.9683666082321117 0.7523078797668833
O 0.35693374366936825 1.2898853983502112 -1.9510361275420176
C 1.1663760243113122 1.4985684704147144 -1.1397234207895404
