9
## STRUCTURE-ID: 64568b17b9e2a706846c2b40 ; CHARGE = -1; SPIN = 2
I -3.4215240528036808 -1.295607583590604 0.0963434329522312
O 1.3515848045920607 0.7883102979534777 -0.7791715272203837
H 2.3320873811897753 0.7913961230085051 -0.7392572862180462
Rh -0.9269865094778695 -0.7623498493983543 -0.19172155154654003
I 0.19679924994200126 -2.7368838143815717 -1.3651463535109227
O 1.3978673535858508 -0.06294185448588174 1.2995881521263142
C 0.784401724629343 0.2851744931911835 0.30918838826952544
O -0.9034067994694248 2.050581320574794 0.8795194409576986
C -0.8108231521880596 0.942320867128453 0.490657304190122
