12
## STRUCTURE-ID: 64566623c0d04073de15987e ; CHARGE = 0; SPIN = 1
O -0.9122002823159376 1.0407796559065798 -0.6548959634406413
C -1.9312665808693685 0.16075869081847097 -0.21992051647625666
H -1.9585624898613472 -0.745511773592943 -0.8311548187625158
H -2.909950662918859 0.6452598759368191 -0.241172141224114
H -1.6943540076818757 -0.1107514307702375 0.8073148679304203
H -1.1291251184517712 1.3575507005357017 -1.5404209166172185
O 1.508498840994731 -0.4471847643942132 -0.6074488362251921
C 1.9741541823992852 -0.4898940512892899 0.7199649013814928
H 1.2222173915342691 -0.9111111909180422 1.395431215416496
H 2.2563840889876934 0.5052692592240341 1.0787977791082617
H 2.854294110211264 -1.1320991837982781 0.7279794900096915
H 0.7199105279719212 0.12693421234139118 -0.6344750611004255
