9
## STRUCTURE-ID: 645672e8cefb0626f6092917 ; CHARGE = 1; SPIN = 1
I -0.08913268338089086 1.2289855212331806 0.7333862040527376
C -1.1949610670994426 -0.6136120434636115 0.8418006260328335
H -0.5229024388841819 -1.3762222644411293 1.2262263700366012
H -1.5445314985010956 -0.8307509300772504 -0.16439897165908143
H -2.0266934878491085 -0.44279273962746263 1.5191720664457151
C 1.1997581253783751 0.5760640597060538 -0.8609209178745374
H 1.7669236296035888 -0.2743386324259392 -0.49170643510500645
H 0.5600250330463347 0.32147153582682964 -1.7020272048137874
H 1.8515143876877194 1.4111954932693833 -1.1015317371157338
