13
## STRUCTURE-ID: 64568b225f2c03686d67f9ba ; CHARGE = -1; SPIN = 1
I -2.611166345534223 -1.8168471865924305 1.7448400347521442
C -1.1462510114791253 1.1202040708846104 -1.2064856727046507
H -0.27607525685142764 1.092522530115624 -1.8630343471899096
H -1.5514357898727893 2.1300491500687713 -1.1667936562021721
H -1.8877678713309731 0.4272374297341502 -1.6047032391920344
O 2.210294955264223 0.13356066779460904 0.25421416434066463
H 3.128797097352349 0.259048079141965 0.5700383302688499
Rh -0.33209291761971776 -1.1124752260831887 0.673378520425398
I 0.2727360509627401 -2.2289506713556047 -1.5780875587783068
O 1.977109864459152 -1.3704001064488092 1.916947823299562
C 1.5354230547327292 -0.7586609726360837 0.9549744830708774
O -0.599542282716401 1.4138005954202084 1.1399366153580481
C -0.7200295473665513 0.7109116399561078 0.16477450255148682
