13
## STRUCTURE-ID: 645689eaab3fbb3a1539081a ; CHARGE = -1; SPIN = 1
I -2.7096583316832072 0.2523836770126733 -0.04369009186573298
O -0.19815498619839256 -1.3850094493673928 1.748090953841883
C 0.8286088024265615 2.983510449872485 0.31757518860203804
H 0.19150029419865977 3.825327155875513 0.5089633515534824
H 1.2577570169604206 2.441162824312522 1.1398400820903178
H 0.2902685310861608 -1.4040629250553451 2.597616990262587
Rh -0.31516771587415243 -0.616246760662399 -1.01454042104081
I -0.38947822639961177 -0.7647443533035072 -3.730660466051104
I 0.4154859730712447 1.881823335583182 -1.3549894559464353
O 1.6330280865475175 -0.4099438396558225 0.9182734413740589
C 0.4899609632258446 -0.8096249326554193 0.7692822546430083
O -0.8822842789368356 -3.556021853386456 -0.9225351936432352
C -0.6118661284242167 -2.438553328570036 -0.9332266338200577
