13
## STRUCTURE-ID: 64568afc7a13ed621375cc14 ; CHARGE = -1; SPIN = 1
I 3.0894739989745825 -1.59906804350777 0.10657590923970447
C -1.4927605097895713 0.150870339275657 0.4640492520364655
H -1.0884635934469566 -0.8710805367460862 0.7968495132203938
H -2.1332703792514964 -0.03923737831967345 -0.39464260288464553
H -2.046520071668994 0.5836159636104314 1.2945209781519391
O 0.08288060891339852 -0.5802033480458607 -1.6262629125702615
H 0.6347419350383245 -0.7890929052674917 -2.4070248113372905
Rh 0.6957799764569574 -0.8118221908937666 0.6023275861039503
I 0.8795797336629304 -1.1367282407175474 3.1479258076078276
O 1.297453609421618 1.3243602354571513 -1.669124756932988
C 0.44333234069131194 0.6457220920634679 -1.12185039863076
O -0.04010855361998757 2.088055289705712 0.6994686174573529
C -0.3221190953820912 1.034608723385722 0.1071878185383155
