12
## STRUCTURE-ID: 645668f56f1fbb3b094ed2b8 ; CHARGE = 0; SPIN = 1
O -0.9066734360413526 -0.4197966624943586 -1.5871253720348433
C -1.9082850157977342 0.1521521679486833 -0.779773524361828
H -1.7907949691681848 1.2380360429972261 -0.7039351114187722
H -1.9054708331593415 -0.27899571642956283 0.22724211770630115
H -2.864415950561726 -0.0679635791715444 -1.2533662039877644
H -0.04215200474642307 -0.2071998919163544 -1.1910422442253288
O 1.5103256861896075 0.1868769966839881 -0.17070681920056996
C 1.4216233628623756 -0.06549483519988156 1.217676847499685
H 1.37906215383121 -1.1387978737698081 1.4234705503976273
H 0.5007698256209923 0.40083739521182976 1.5634903824658166
H 2.2645461232930377 0.37462411408766844 1.7559878401643636
H 2.341465057677553 -0.17427815794788906 -0.5019184630046902
