16
## STRUCTURE-ID: 64568de52a89460e8b1a5614 ; CHARGE = -1; SPIN = 1
H -1.1908867858802437 1.1696659269475613 1.883787834360179
I -0.9832692475280995 -0.29187858076775836 1.0145896869891384
O -0.8298453821584133 -1.8529411360581582 -0.5277916458402535
C -2.2344874839043705 0.7068629604150696 -0.4073339680025716
H -1.7039966559616364 1.5626967108268528 -0.8109084119249325
H -3.1371473652278388 1.0053426242297054 0.11044214484965635
H -2.443785391991825 -0.017326628222024094 -1.1846740356340597
H -0.8780966041307037 -2.7419541952407998 -0.17946199041316765
O 0.33937934851720963 -2.0276191808154183 2.4022190785336055
Rh 1.300140326446555 -0.42420408914555463 -0.35589343691519565
I 2.548144529973232 -1.2418772474331117 -2.4744873468803674
I 2.0512505124415386 -2.3063017130518437 1.595324579672612
O 3.302794774435922 1.4709299883212261 0.6565559090421093
C 2.2901255110124787 1.184761978482715 0.07474698427598903
O 0.4004397724948117 2.311923897567273 -1.1156086909898233
C 1.1692401414613849 1.4919186839442349 -0.6815066911229202
