12
## STRUCTURE-ID: 64568ef8b4aa1b47562fdd7d ; CHARGE = 0; SPIN = 5
C -1.5039228319416993 0.26511042731755613 1.6723630708503363
H -0.9593605889037778 0.1754312137678052 2.61259391113123
H -2.229664695294589 -0.5472311648624959 1.644515681989351
H -2.000828805382527 1.228911778460606 1.6112609514190703
O -0.3421528077373566 0.9806650987803738 -0.28903374009004085
Rh 1.3147351539202865 0.46997932176181356 -1.820226120274748
I 0.2970097730363843 0.05542846633990719 -4.118665031006717
I 3.295194262944436 2.0138465296665546 -1.3899262001591712
O 0.06286785295391924 -1.0695803962386763 0.5141526763969432
C -0.5526324068894102 0.11214635201101802 0.5469282728787457
O 1.5358289962391631 -2.395968344646888 -0.5216293536409157
C 1.0829260970551529 -1.2887392823576673 -0.4623341194940327
