12
## STRUCTURE-ID: 645665c5483f9b1d4a7ffa80 ; CHARGE = 0; SPIN = 1
O -1.8730018211251058 -0.07684506557973729 0.8333762038138347
C -0.6269127271126649 0.06161878573311032 -0.7073842361328355
H -0.7085752805387402 0.8058868457819792 -1.4944854359726594
H -0.5049865209131038 -0.9440081971607485 -1.0990214082983403
H -2.6277712146134107 0.2750323158548446 0.36118559064851596
H -2.531807960382282 -0.2611393350131873 2.0588304364817462
O 0.4810333393323571 0.4330995461193461 0.16448388561797062
C 1.802227493128482 -0.019824290624628416 -0.2136961383391598
H 1.8360106586462102 -1.105916208901444 -0.305106306887981
H 2.5062201513801066 0.32459431069827005 0.5408117711299076
H 2.0352905454798895 0.4367876980486815 -1.1742849051096151
H 0.21227333671825158 0.07071359504349885 1.0352905430486263
