12
## STRUCTURE-ID: 64566602a5711a3c7f0b535b ; CHARGE = 0; SPIN = 1
O -0.8960176456132336 -0.9702000835199592 -0.5641415730500573
C -0.21891892077113909 -0.4660920684570714 0.6367347744806527
H -1.6622383189949959 -1.5391920434394661 -0.314577677274203
H 0.05058692296153163 -1.3419297441972626 1.2283789484409529
H -0.874358728588208 0.20203671940818008 1.1954251947890842
H -2.4794795498790014 3.840405004697856 -0.6883818543974365
O 2.0840856264473744 -0.5958118388056046 -0.15827055188612318
C 1.0563665292756808 0.2742664664487596 0.23283840859315041
H 1.430695428731146 0.8069825856700314 1.1094774422680864
H -1.194139622164271 -0.22273696442872626 -1.1314883191946243
H 0.8368758388456582 1.0207881373419139 -0.5411818497707704
H 1.866542439749466 -1.0085161707186494 -1.0048129429987116
