12
## STRUCTURE-ID: 645668b06e62d014b76aac60 ; CHARGE = 0; SPIN = 1
O -0.7685802633948666 -0.1070492295013749 -0.5306111036058256
C -1.4894740542506428 0.6423411323490478 0.3882886309625476
H -1.6998182670637632 0.07786567999214257 1.300876749744457
H -2.4172463141574663 0.9871881766102398 -0.07164855538494261
H -0.9084844627381683 1.5406796765886783 0.6227764420159001
H -2.006780330504623 -1.2534071940575278 -1.340849699916808
O 0.8630083728647704 0.4627974695131617 -0.35343795281420937
C 1.6831142416034663 -0.5490675290815167 0.20939736161777733
H 2.7139839821760217 -0.18885734072640314 0.16919118283118112
H 1.5935131787923948 -1.491624197411738 -0.3297970698688688
H 1.3782658693885816 -0.6860143117287529 1.245145867097181
H 1.0584980472843086 0.565147667454083 -1.3093318526784052
