12
## STRUCTURE-ID: 6456697a834ae847715b5c23 ; CHARGE = 0; SPIN = 1
O -1.3047912173433114 -0.09366701990501916 -0.048309356263175667
C -1.4991205431582382 0.5616614477472034 1.1931614170020775
H -2.520595314473968 0.4236053479965835 1.5523063021043704
H -1.2803018310773306 1.6294359990794278 1.1156898525561056
H -0.810834931096323 0.10566548431200816 1.9018008198568004
H -1.9225759266789562 0.2698546609173975 -0.6962282153136211
O 2.603648476550375 -1.3631400554093622 -1.0570514504698165
C 1.7003851197095976 -0.3270400887208006 -0.8815208442546977
H 1.9932357025665268 0.34911171417276793 -0.05919867519379748
H 0.3931191896774988 -0.4842907056833607 -0.544210360674097
H 1.5473212592592265 0.2542435905697688 -1.8075768207543756
H 1.1005100160648815 -1.3254403750765964 -0.6688626685957293
