13
## STRUCTURE-ID: 64568a0eafb4564e7009291d ; CHARGE = -1; SPIN = 1
I -2.4676920072062294 2.936734436990255 0.9143534316168105
O -0.6223742218417692 -1.8124182289094848 -0.6548903309369457
C 1.8238488379138287 -0.8692792770981729 1.8295673897902562
H 1.8281409424254125 -1.8647511404474697 1.4292062537906491
H 2.7278474413859284 -0.35816490211372587 2.09988333948945
H -1.326163323663616 -2.242475979691367 -0.13114687802844088
Rh -0.720996757021897 1.3865638010987509 -0.3430367647944123
I 1.3171549104246798 3.0265525483422984 -0.34942442389272355
I 0.08570191205104745 0.15749325906294176 1.8754190578367873
O -2.2038521016988204 -0.2207294563444845 -0.986109433636714
C -1.036696091067331 -0.6470084329897408 -1.1718020270367229
O 0.6340454120744448 0.2601436811682653 -2.75733033171135
C -0.038964953775673786 0.24733969093193736 -1.7546892824866513
