12
## STRUCTURE-ID: 645668614896a12ace41e586 ; CHARGE = 0; SPIN = 1
O -1.1091379667869392 -0.6667723748610999 -0.3052683112451648
C -0.9881726538614044 -0.8610110402009377 1.0392308141914732
H -1.803433873933942 -0.3944690317845898 1.5992138032874088
H -0.026643630032795063 -0.3453378701431195 1.322050969118612
H -0.8692526151667881 -1.9198829508200377 1.2868176826403284
H -0.27436106777691754 -0.01108580867164273 -0.6280061903183383
O 1.3988436143640826 0.3393621874737987 0.697556807504742
C 0.39697653932180893 0.9439505742074764 -1.24354431878058
H 1.3492248119141848 0.5903323650391519 -1.6000021987525255
H 0.4520757087107232 1.8491294678320793 -0.6634360207514556
H -0.3769660516790076 0.9592445879642865 -2.0081483416042016
H 1.850847184926995 -0.48346010603536227 0.5035353047097075
