17
## STRUCTURE-ID: 64568e82080ae3759c7b924a ; CHARGE = 0; SPIN = 1
C -0.5336235670704125 -0.6152640149434339 2.824496066873882
H 0.4871618572537264 -0.8629592561591746 3.1090682540501313
H -1.1540022664592915 -1.484341232816831 3.040450793859382
H -0.8920064341750328 0.24258949869037358 3.393247933428061
O 2.064421639032695 2.178358991996259 -1.0909906111600893
C -0.3908132279571635 1.8012362606074768 -2.2969550097726716
H 0.08129745037798868 2.7754865071898718 -2.3232556433443428
H -1.174585548407487 1.7592222118835832 -1.5466784733697798
H -0.7455695918449161 1.4892655874258742 -3.273130819467835
H 2.928483926131433 2.010030314596741 -0.7104530037044562
Rh -0.04949994868273228 -1.3107217123188566 -0.2144481466067932
I -0.5029547474337156 -1.7013273609663297 -2.8732100459543113
I 1.1672986683093969 0.48240746005035406 -1.6810113226663665
O -1.1130036242297603 0.6475808129453481 0.8505615269554584
C -0.6004333245693819 -0.3322366264873738 1.3637789025116442
O 0.3053259949847483 -4.083884359725451 0.8779474293098402
C 0.12250274473992728 -2.995443081968483 0.550582169058197
