12
## STRUCTURE-ID: 6456694eb3ff027e85493a70 ; CHARGE = 0; SPIN = 1
O -1.0005838133612412 -0.031980932747554404 -0.6064607939200457
C -1.6309853297485568 0.11985978815802673 0.654077153775335
H -1.0989196773351486 0.9103059413779517 1.179446673215825
H -1.5910354713554271 -0.8002903078486685 1.2398354433117038
H -2.6724033054433862 0.4203840375054676 0.5215593397543139
H -1.3807929334990439 -0.798014459573305 -1.0576611729429006
O 1.3351031130327236 0.2884822081790526 0.7128372471890932
C 1.220973469272447 0.11309178941447807 -0.5371622544523358
H 1.1865415525382834 -0.8588940259474948 -1.000781131550797
H 3.1025581478240056 0.1669668131330188 -1.211662877538006
H 1.014827086178436 0.9869360630866473 -1.1335185192359365
H 1.5147171618969106 -0.5168469147376068 1.2394908923937311
