12
## STRUCTURE-ID: 64566a87dd79564f804d91eb ; CHARGE = 0; SPIN = 1
O -2.7052789538513267 0.8789510823126687 0.2982848234894428
C 0.3626327623269687 -1.3693007760818852 0.11646603526738784
H -0.5688793705495112 -1.9131406501264467 0.2550670135176111
H 0.9432873306914313 -1.835099415441616 -0.6871545146014704
H 0.9484987218463543 -1.397977073058782 1.0419969493508177
H -2.5458394258993735 1.339997413714301 1.125793365309684
O 0.013614691993715466 -0.04374984512654225 -0.2173333342781915
C 1.1366412980461174 0.7810054905023619 -0.4395756187837436
H 1.7537724996358453 0.39026836976781193 -1.2558071268957618
H 1.7505042162775597 0.85843976436943 0.46494355539705434
H 0.7555982471895965 1.762962591073725 -0.7099543809836136
H -1.8445520177073877 0.5476430480949827 0.007273233210812254
