13
## STRUCTURE-ID: 64568c0cd9dff575895eb020 ; CHARGE = -1; SPIN = 1
I -0.7494586934937869 -1.7587292525172324 -2.282919121313174
C -1.4685780673189728 0.23777136512987282 0.5638438899975995
H -1.8569609351510072 0.5926668556866603 -0.39379630253660697
H -1.7871214730471436 0.906402559171692 1.3713300628821659
H -1.8314952985376094 -0.7752041019237697 0.7441551114407946
O 0.5364931106813796 1.1694624307114285 -2.6403987124086963
Rh 0.6202596837652933 0.36625754777532665 0.49326971247643003
I 1.3933591577903728 1.8354332732951961 2.544130433488413
I 0.6765795211460951 2.371679628804366 -1.1866659256511312
O 1.9296299715615186 -0.9107604622974023 -1.4674694828071582
C 0.7916068811811119 -0.6686720048556931 -1.1957319272957292
O 0.967501961973244 -2.1752306849820036 1.9988129723574142
C 0.7781841794495077 -1.1910771539984464 1.4514392893696961
