12
## STRUCTURE-ID: 64566a1a8fd7c76405399e43 ; CHARGE = 0; SPIN = 1
O -1.9521501001280817 0.049047540027009326 0.7324531605594045
C -1.3982340476770359 -0.5543795736109444 -0.2425430132853137
H -1.3522482287029556 -0.05620350450121871 -1.2219256493620556
H -1.4716393366026335 -1.648590650130299 -0.31077680288880344
H -0.14385199425712983 -0.36865697991572244 0.29053826478294625
H -3.6155820680486777 0.19156527998992495 0.770055242051107
O 1.0464521227985062 -0.20608918915344832 0.6696678683445108
C 1.8151463722664516 0.45470919548344735 -0.34944156222581985
H 1.385451365337356 1.4207949929147097 -0.610089139671734
H 1.8166047032085997 -0.19672302718837545 -1.2195789183301986
H 2.8346915911190687 0.5802309488674245 0.0097450794959874
H 1.0353596206865463 0.3342949672175296 1.4818954705299732
