19
## STRUCTURE-ID: 64567ab228c49e3d6f750ef0 ; CHARGE = 0; SPIN = 1
H -3.6189774687960194 -0.2681530283391951 1.9959934593919437
I -2.0023564569727763 -0.16637930901318368 2.145071932694563
C -2.4849875305394646 -1.1334488675843064 -0.21650577001469876
H -1.7764283928550648 -1.5282260952527968 -0.947206409503623
H -3.1184359679628573 -1.9334105043200593 0.13839535567977296
H -3.04125649633992 -0.30052761341743617 -0.6242936084579473
O 2.3324829535022893 0.9924611228175277 0.747481895778053
C 1.0093529242850916 2.2337089025992594 -2.1568051077946353
H 0.7555361470193637 1.5683839160549462 -2.9746068776449897
H 1.9954950571405075 2.009071598848417 -1.7671553385342842
H 0.9177252559930121 3.2744774729986705 -2.444246304574842
H 3.153958551471117 1.2941111957000553 1.186135907300285
Rh 0.03347139084592559 -0.5910686605396092 0.49687357932259735
I 1.2730880969515355 -1.5670228437515188 -1.8395507217014488
I -0.386444055354071 1.87559181541765 -0.5621092209333002
O 2.100694185354188 -0.32778078433221464 2.5275097535375717
C 1.6841054047721087 0.06043349057568282 1.4542343619251845
O 0.7397289011225179 -3.2607093522903177 1.6154864377882756
C 0.43324750036250564 -2.231512456171576 1.2252966757415304
