12
## STRUCTURE-ID: 6456675e2a1e886e887c7c48 ; CHARGE = 0; SPIN = 1
O -1.8052430806647672 -0.059454302095172634 -0.4468159209993978
C -1.8074191432256295 -0.34864859308554885 0.9308045145040839
H -1.446311904646149 -1.363162687293806 1.1280287023337636
H -2.8384812532748094 -0.26696740001605085 1.2727456535444865
H -1.1912606544843467 0.3638122779267528 1.4893983670957138
H -0.8900942742155526 -0.1500739077029166 -0.7710273726135446
O 0.9356916551739275 -0.2558251777482003 -1.1775881847075205
C 1.8029684495742 0.4015817677753951 -0.2747379607391922
H 1.690734457419332 1.4875950018377295 -0.33510542019558553
H 2.8456743280910954 0.13365443040870897 -0.46072148653001527
H 1.5260388988316287 0.0697747213209579 0.7243924425964462
H 1.1777025214210801 -0.012286131327846866 -2.0793733342892344
