21
## STRUCTURE-ID: 6456789c6ef509382a2726b6 ; CHARGE = -1; SPIN = 1
H -4.585635909137336 0.7092538977557769 -1.4018635735004428
I -4.440354212412441 0.49277118912604706 0.25835486739836927
O -3.781199134794086 0.21014532804092442 2.507484821072315
C -1.8488732268066717 0.6002618234391843 0.1489640339059557
H -1.9131174263039272 1.532885898752392 -0.37037157133197546
H -1.8515165990723348 -0.31483497166499114 -0.4054588158917493
H -1.9328636129170926 0.572741027440005 1.2139033392250211
H -4.550204541716215 0.1415681535889758 3.070304164269793
O 1.6607634491064038 1.5743899555220684 2.2908996742830015
C 0.22512041728585638 0.6543791004354753 0.21474675180670239
H 0.13148389677792885 1.5766119944100256 0.747076391944882
H 0.16550115184034392 -0.2636528968131364 0.7629076090639401
H 0.24707739284264713 0.6449355995059768 -0.8576624202769212
H 2.3476238804283667 1.8193674960390434 2.9108734796791267
Rh 3.058571322949901 -1.1146970980524387 -1.3866610125801948
I 5.405418861201513 -0.06402964529988538 -1.3178682742370493
I 2.640637468756171 0.6864929322849165 0.44666968296167864
O 0.31209973028636473 -2.2841684703232064 -1.2508982046030486
C 1.3565411749205734 -1.806428661481944 -1.3076963037676386
O 3.811673498726312 -3.0361226129359813 -3.565755278068198
C 3.541252418037752 -2.331870039769265 -2.707949361353534
