13
## STRUCTURE-ID: 6456887d7fa734091d4609da ; CHARGE = 0; SPIN = 1
I 0.5390723524106126 2.03178554614341 0.3080857797334685
C -2.5321807276502697 1.1346932939583396 0.4749991777662055
H -2.5475544483810704 1.8223779816434358 1.3218310290271185
H -3.3145418798456463 0.3791339804439609 0.5660495349636894
H -2.697784684538614 1.7446945313432336 -0.4167739889557433
H 1.6858176226657822 -3.2483798284476397 -2.166454662736905
Rh 1.798114731433236 -0.2977538227319157 -0.43746855037346233
I 2.2815461813353903 -2.914550888931552 -0.7306300082848683
I 0.8940326512182598 -0.07614743687645188 -2.871669116832403
O -0.8417677331752237 -0.6098439934602734 0.2995297650781566
C -1.2512684683916613 0.48393691148000156 0.3745752849494893
O 3.302957235853341 -0.18085505416948885 2.1233538833146715
C 2.683557167065856 -0.2690912203950532 1.154571872350583
