12
## STRUCTURE-ID: 645664e17d0ce05e5b6cd4b0 ; CHARGE = 0; SPIN = 1
O -0.7938784088381533 -1.1245239177466801 -0.5601655689041501
C -1.2404866239005425 0.059793849105528714 -0.44829463179447954
H -1.68036180882072 0.45264076124214203 0.45312363004473355
H -3.080234101083277 -0.05519966338013842 -1.138626294318054
H -1.0232374893864498 0.7303844688108153 -1.2634848026515497
H -1.0003728602240083 -1.7192651140426154 0.18768870799961998
O 0.5916193992534267 0.9126959616069809 0.5286164202597673
C 1.6449269150301584 -0.037294214216153664 0.554694189450197
H 2.608279246331274 0.45243001323855137 0.6969305016416052
H 1.6642106783667214 -0.6228825873224338 -0.36835920622116
H 1.4588625254738623 -0.6964055002014821 1.3996787560148982
H 0.8506725277977188 1.64762594290548 -0.041801701521433365
