18
## STRUCTURE-ID: 64568b38e131bb1843351d70 ; CHARGE = -1; SPIN = 1
I -0.9906796266761627 -3.1050428941879202 -0.021371071571648186
C -1.5722048830004955 0.20552125414075245 2.346797323925862
H -1.0086928028115778 -0.65704463037996 2.7138569387679548
H -2.4720353378539364 -0.05467067359664391 1.7920151942942832
H -1.8259929895314029 0.8432187902263196 3.180536078306906
O -1.2154017430852113 -0.9330340483373463 -3.055782061558671
C 3.139637157173589 0.7212824415323645 0.14631834768225982
H 3.0766526881956264 1.606881080869334 0.7684206762794257
H 2.551138328110574 0.8450748955677092 -0.7574287489477337
H 4.164712653619989 0.45773454406423986 -0.08097104035432044
H -0.5326813955629894 -1.1093506476584185 -3.731193671646208
Rh -0.3496158889286902 -0.5095030173043422 0.3085101152514452
I -0.3164657815489116 1.9527416328459946 1.247995789169048
I 2.2760280609539163 -0.9183899957046546 1.2572200772159021
O 0.365324183579536 0.3898405455131568 -2.1664745384162516
C -0.7593012420548613 -0.11617168191558533 -2.0970459555253265
O -2.851538191870236 0.3527395422494172 -0.9135120826427812
C -1.6788831887086768 0.028172862075501702 -0.9378913702297506
