16
## STRUCTURE-ID: 64568e0327627b042361a6da ; CHARGE = -1; SPIN = 1
H -1.941049871828101 -1.0150578127232686 2.176274095087867
I -1.4124701145017489 -0.05480653288317738 0.9520400793037908
O -1.1464454472580237 1.389914758773925 -1.0965020129201841
C -3.510153206941411 -0.19541646703358617 0.26947572364547395
H -4.1187390228827265 0.3201528135039116 1.0060678891519708
H -3.7539037733432172 -1.2492964906398416 0.18333287038785662
H -3.5254167332704878 0.3006065476449167 -0.6934180135294965
H -1.5526529422947424 2.2127903629992334 -1.3986986434649498
O 3.0363434847022357 0.5682740068250971 -1.9590842302035913
Rh 1.0701078234911638 -0.5448706431761444 0.4550756274206823
I 1.2405654568714088 -2.55823426304307 2.103909896044916
I 1.02627441092961 1.054458812939206 -1.5367118998236073
O 4.638860206104212 -0.7076188942037964 -1.1300674151386452
C 3.5834744534500635 -0.08331746598749362 -0.981906208104264
O 3.4610321006672775 0.5829858844817654 1.290668272883059
C 2.904173176104488 -0.020564617477697517 0.3595439692590919
