12
## STRUCTURE-ID: 6456699c4985d35c4c6b0e18 ; CHARGE = 0; SPIN = 1
O -3.7879874406976968 1.353022288097864 -0.9923214969654819
C -2.791667479778108 0.3594317254119915 -1.0984598671588288
H -3.223380537452469 -0.6456264597571827 -1.0582971125344083
H -2.0381040192542366 0.4610339707985696 -0.31153271720416836
H -2.313437161563464 0.5001270409892249 -2.066350249493231
H -4.221775039776813 1.2683355125620275 -0.134798032186872
O 2.79880130217127 -0.6923948073825568 1.98480501164389
C 3.0119766223149447 -0.37548723860922895 0.6263267976547228
H 2.8131238022155176 -1.2342410267578072 -0.022084796858050478
H 4.032071076363559 -0.01987690598384827 0.4525221042107097
H 2.3136609200937817 0.42232342523782374 0.3797742270359744
H 3.4067179553639115 -1.396647524606912 2.2404161318556475
