18
## STRUCTURE-ID: 64568b1470196c3a0c6b0e0d ; CHARGE = -1; SPIN = 1
I -2.0779366398417705 -0.31601177062282937 -2.4556203232018405
C -1.907515213867404 1.7102284311520428 0.5363514146181997
H -2.8086284277093765 1.084284712339439 0.5347404465731952
H -2.23442760869382 2.707416593410664 0.21917323797003208
H -1.5717475572455328 1.813636319491603 1.5746529734444756
O 1.4212709622685535 -1.6498302102539764 -1.2449524749015424
C 0.9934251153345346 -2.1791859282156483 2.073262233651384
H 1.2997672913873126 -1.3254808202069235 2.6692240367795765
H 1.74772785332287 -2.4282454165121283 1.3355658641120942
H 0.7375404869952092 -3.032251400281691 2.6913108385932727
H 2.0993332374623654 -2.055515403166692 -1.8233107292045305
Rh -0.34747675896532476 0.6100433450067968 -0.606482772249668
I 1.6817298200209105 1.4317691553350265 0.9274646766598716
I -0.8043847995698546 -1.6170726584025312 0.9823534298548571
O 1.6366670469789404 0.07908289526370989 -2.6251492654845623
C 1.0799726717186573 -0.41132398189199254 -1.6516630924514009
O -0.5060440245085679 3.317726541277345 -1.7970572844422472
C -0.43927345508772636 2.2607295962778133 -1.3398632103211323
