12
## STRUCTURE-ID: 64566850343d035041662c6e ; CHARGE = 0; SPIN = 1
O -1.499883131468298 -0.22553568064229687 -0.7504411011347942
C -2.060994075627849 -0.21866038355970127 0.5403120575328246
H -2.2333111726295933 0.8018172911635268 0.8968047980676455
H -1.4217058291467084 -0.742517021869623 1.2587312560087258
H -3.0166755702975077 -0.7375385934129772 0.474703268426968
H -0.6441240238884686 0.24131561143105615 -0.7109129242851288
O 1.1033508584149154 0.9088990987182451 -0.5883830619146226
C 1.9293203144901117 -0.09844753723090587 -0.03624594002502508
H 2.97041095584306 0.22751502368997228 0.018572058683575907
H 1.8650802280241727 -1.0226749567003708 -0.6170283725878198
H 1.5634715152606602 -0.2850210154504044 0.9718733293611982
H 1.4450599310255126 1.150848163863478 -1.4579853681335506
