13
## STRUCTURE-ID: 64568c1acb820420a51fea6d ; CHARGE = -1; SPIN = 1
I 1.2808690610199236 -0.8037114691746791 -2.55325643996869
C -1.3328178933110157 -0.0632218739790265 0.014869697383763888
H -1.657610916692391 0.21077211526160144 -0.9910275172436824
H -1.6315979484712357 0.7717638155645421 0.6731525368286126
H -1.8695301348909272 -0.9473022656014833 0.35318265838222684
O -1.244668421229814 2.4492935093017114 -1.802134724327916
Rh 0.7673963320871996 0.3148312270774435 0.43116909005710014
I 3.05353520855157 1.4296187003204566 1.0760766909539663
I 0.38527353364158673 2.56424611401032 -0.8948580597035817
O -0.08812292054977454 -2.3718097724469267 -0.4145932076338885
C 0.20488226199622034 -1.2384836570212865 -0.549314007439816
O 1.1322359844235945 -1.4762609749617213 2.796989899108848
C 1.00015585342506 -0.8397354683509475 1.8597433836030592
