12
## STRUCTURE-ID: 64566b6d4748603f2e2726be ; CHARGE = 0; SPIN = 1
O -0.2368680004286509 1.7738381654579256 1.2325953201027824
C -0.700506439895333 0.7701106432250661 2.1061327557484995
H 0.12949174886259854 0.23423781336594607 2.5768357422786137
H -1.337723353431928 0.0495329057844316 1.5828564150110889
H -1.2861196206287149 1.268039443574363 2.877377368637475
H -1.4318983589212901 -1.879092223758559 -2.2315712823202056
O 1.1743423368151629 -0.11277080192405727 -0.5249169485544358
C 1.3125069868467296 -0.5073433650777898 -1.6512457310656103
H -0.7251175398310274 -1.5553275836424725 -2.1304513190979324
H 1.7210896059534782 -1.5033899047208827 -1.8741396516187598
H 1.065124342851702 0.1150466170546792 -2.523578484018198
H 0.3156782918072671 1.3471182906613375 0.5601058148966775
