16
## STRUCTURE-ID: 64568dacafc5bc66e3493a73 ; CHARGE = -1; SPIN = 1
O -1.6258617171187137 -0.5823706339238701 3.135888776551617
C -1.157324386030434 0.9349231246702812 -0.8762745286513868
H -1.7398123998007615 1.0262480732121435 0.045816379373507236
H -1.7000249979378297 1.3626399377256122 -1.7143322703823645
H -1.0174135807030336 -0.1344329757121957 -1.0501762647288355
H -1.0348288202383014 -0.9847995759678374 3.8079285860795764
C 0.16052807325129573 1.6181673287905556 -0.6441933788299414
H 0.09179308718161172 2.6996637881116254 -0.702199706607951
H 0.6042539181916643 1.305270811798992 0.29880030089590226
Rh 1.9390742574460125 -1.537952451382554 -1.6994899815822608
I 3.49581191229705 -2.8754111576474983 -3.188846422151687
I 1.6525218092756446 1.0451408111816862 -2.1641707375649255
O 0.23694363326575654 0.26956328538430685 2.225151468664894
C -0.9957088742677289 0.13831275846309846 2.2007712711232483
O 0.2365213109224376 -2.3760824493421513 0.5976127597405522
C 0.8535267742653355 -1.9088806753622003 -0.272286251929944
