12
## STRUCTURE-ID: 64566728c188a429a81f8bd8 ; CHARGE = 0; SPIN = 1
O -1.6167662073104372 -0.6298058052692999 -0.14463052095348677
C -1.5096457168831707 0.0842851584672414 1.0690070899943438
H -2.002691715037902 1.058711848805521 1.0029347577063026
H -0.4474592405966361 0.23887262583773597 1.251980619660502
H -1.9359131788542427 -0.4806147906663804 1.903343179647823
H -2.5502054369443665 -0.7811069512847459 -0.33564832846426124
O 2.0981559392859235 -0.1376599314979951 0.1840775413139868
C 1.5725110025566262 0.3312772893832746 -1.0415440985950282
H 1.6027138836387285 1.4187147338695814 -0.9963112758019715
H 0.538468602585086 0.0047836347287890015 -1.1806239946379542
H 2.1777796042865805 -0.0056094259091096785 -1.8888347908703949
H 2.0730524632741587 -1.1018483864646609 0.1762498209995903
