12
## STRUCTURE-ID: 64566b170c14b716b2224143 ; CHARGE = 0; SPIN = 1
O -0.9705560788053749 0.518763344068977 -1.2084463441303408
C -0.9876324060804559 0.4474294968852461 0.87157351050292
H -0.5535365948074831 0.24012202124878307 1.8500854745030526
H -1.8943149215439616 -0.11194848679988402 0.7162945081689555
H -1.0933102095308243 1.505949652389399 0.7042135093822004
H -1.2785960629040232 -0.34682189089707033 -1.4828888101653808
O 1.4535423800730385 0.1340538418980341 -1.1419853432889573
C 1.3109427636421769 -0.5713595118511055 0.015212132653603608
H 1.2084626145372799 -1.654749645295508 -0.13297054316319862
H 0.2687746413453143 -0.21318832196925083 0.4424172123046257
H 2.090111388623241 -0.33648947201982077 0.743555463463072
H 0.44611248545108223 0.3882389723421984 -1.3770607702305606
