15
## STRUCTURE-ID: 6456b6bafc2ddb20816231a1 ; CHARGE = -1; SPIN = 1
C -1.3220405095280034 1.1252298934361278 -0.5664757462983835
O -2.3640091564826298 1.05983748996805 -0.0987904297408917
I -0.17461019704730374 4.0719542511244615 -1.322686693484414
O -0.8132363276019994 -1.4438855285789702 -0.3845457582971788
C -0.3438022915499658 -2.0433707111713333 3.2350414386474746
H -0.10222038432481548 -3.0757144284691655 3.405181715580165
H 0.24571891361996298 -1.2623085645902266 3.6803463018653475
H -0.9460329655073278 -2.3079926069583663 -0.7803689945741901
Rh 0.41633520469188146 1.3619178812679005 -1.178661649682263
I 1.2187495356180411 1.1849278634485896 1.4490708397837682
I -1.5316450971040532 -1.5756053323664658 1.7190206488311222
O 0.07116022810364576 -0.864381405062486 -3.1945520770681806
C 0.22283217141388945 -0.013305045466960883 -2.43587076348281
O 3.253207656780582 2.0450608491898756 -1.8705451944288753
C 2.1695932189180396 1.737635394228996 -1.6561636376508961
