18
## STRUCTURE-ID: 645672e7dc9aa5000428a818 ; CHARGE = -1; SPIN = 1
I -3.9835112110180257 1.8841747724320794 -0.6758515988072767
C -2.5164117850688417 0.36967527700194813 -0.3540388057911894
H -1.5726321698635322 0.8582071002755365 -0.13878177615418089
H -2.4409480498917184 -0.22285139244194194 -1.2569212793085223
H -2.8402985928942077 -0.23993470952257656 0.4788333412159523
O 0.5249590471831621 1.5022356770231888 0.26418595114873844
C 0.041332299821115 -0.9509971692531177 2.3584613046137655
H 0.039537684638584085 0.07838011573852235 2.012970775124404
H 0.9336478596459977 -1.1622654535503476 2.9351266063564334
H -0.8594407494485681 -1.191556375552649 2.9073398185666175
H 1.061227481862422 2.065863197650601 0.8305259614009887
Rh 1.6484816206147204 0.20347425401452715 -0.8842900702220596
I 0.09705211142391736 -2.1828594658392455 0.5911822610984405
I 3.538752670054751 0.19213002971365517 0.9422631579158681
O 3.3519996044508455 -1.5354952370120354 -2.612887592134943
C 2.6748650867484254 -0.8888692730143505 -1.9346359379188658
O -0.1880008627330475 0.7139975541905573 -3.187544858508253
C 0.4893879544739918 0.5066910981456547 -2.2759372585959534
