12
## STRUCTURE-ID: 6456671eb3b93849cf07102b ; CHARGE = 0; SPIN = 1
O -1.4956058052322638 -0.9000905940623715 0.023293114868155426
C -1.7105974114542781 -0.7681908428507274 1.4091166106146207
H -2.5025942149544034 -1.4676021947327782 1.6745393334935819
H -2.030072791364288 0.24578736576851154 1.670478743315334
H -0.8099546432460719 -1.0167315240235981 1.9795277803697142
H -0.7814628419271126 -0.291502568097062 -0.23002988142814484
O 0.6865167421342062 0.902452351486346 -0.4722617594330232
C 1.740353852601272 0.4731446287589621 -1.3098543525855095
H 2.675701311107589 0.3768483655284026 -0.75058422378539
H 1.8863583537474853 1.1598741665270789 -2.1479306738926036
H 1.4565634401949532 -0.5036553720427371 -1.6975001474885325
H 0.884794008392919 1.78966621773997 -0.14879454404820308
