12
## STRUCTURE-ID: 64566844a37c7301815eb02b ; CHARGE = 0; SPIN = 1
O -2.2871926669163725 0.6831416125246351 -0.6141963149010516
C -1.6831641442551812 0.1759368347959828 0.44793963558575867
H -1.9108190492727433 -0.8573571333788707 0.7193170161238268
H -1.697916793842773 0.879847585820469 1.2826354539672045
H -0.43656908363189445 0.09990108775738112 0.2085608706866837
H -2.5218752505272213 0.034088231041515656 -1.2997860446122438
O 1.4332670153965714 0.5982786000638541 1.0315315010901507
C 0.8197381208071632 0.09948943599486304 -0.0275773606043945
H 0.9982649044885568 -0.9475305330015964 -0.27825847516978386
H 4.74739301455827 -1.484540163567664 -2.301559168068717
H 0.8760499229857077 0.7753658115344559 -0.8821952344409318
H 1.6628240102099017 -0.05662136958503557 1.713588120343464
