12
## STRUCTURE-ID: 64566a3a1ec48c5da112b09e ; CHARGE = 0; SPIN = 1
O -1.3877823669969258 0.6646173488448507 -0.7125608657190126
C -2.1278484477865414 0.03670344935072129 0.3066794822602961
H -1.614456871193236 0.09907043047239204 1.2720748254603087
H -2.319004681210537 -1.0155700867160276 0.07310396803048178
H -3.079005760574913 0.5628847276745411 0.37809657874026786
H -0.5348394183922177 0.19860324720279524 -0.7999183393379615
O 1.1833275018835605 -0.5395514940125831 -0.8207211666091582
C 1.924961518598526 -0.016211202408358185 0.2646426772100213
H 1.940365942794113 1.0768229914746834 0.24175749958678647
H 2.9492032712586878 -0.3957128184505595 0.266638201441212
H 1.4249309205304608 -0.3454548045582731 1.1738154604702622
H 1.6401483910890278 -0.32620178887417217 -1.6436083215335027
