21
## STRUCTURE-ID: 6456785d7f78c04d3f3288c1 ; CHARGE = -1; SPIN = 1
H -1.7968554853662164 -2.3091248331281764 2.206640794649136
I -1.5737175767064413 -0.8077213676879169 1.336073002812457
O -1.9158500235672293 0.8883278411773858 0.005707974605056654
C -3.4962922981595295 -1.3469216168311873 0.5776140401694286
H -4.214038268622202 -1.2764260825202933 1.383561999630793
H -3.438875685705293 -2.3545078075464017 0.18972576252331053
H -3.720959450478026 -0.6350124414576078 -0.2034094837752262
H -1.2775478583715234 1.5462145803444496 0.2679457388563081
O 0.5761839190466308 0.8337806103600898 1.3732286390577593
C 1.1761853586671729 -1.8017929232447556 -1.1491066418382876
H 0.41695274847628516 -1.1035624791438516 -0.8173107928853356
H 0.9453667911888073 -2.810002142199176 -0.8303600541917335
H 1.3218372877265294 -1.742839847402973 -2.220539533099553
H 0.8568183182642469 0.8506589832263686 2.2945628454737563
Rh 1.9251830974541735 1.732361524810395 0.08310740537960626
I 3.0188211270148377 -1.2226087898897227 -0.2039052895920747
I 3.442809044175677 2.4313170233966246 2.1148397620620756
O 3.7855479501084788 3.1883467668993384 -1.7348799293082326
C 3.0818286780450785 2.5995213586691697 -1.032978885540958
O 0.13730233890009366 1.701859021815836 -2.309280898383833
C 0.7492999879085047 1.6381326203523614 -1.331236456604432
