12
## STRUCTURE-ID: 645666420167940d14351d78 ; CHARGE = 0; SPIN = 1
O -1.406033983949333 -0.05212681586460296 -1.2058613900992288
C -0.8630187775537026 -0.18125664010704007 0.21862256301030153
H -0.5712462051822251 0.8386966224772896 0.49277917591981796
H -2.19518514301686 0.53711704566526 -1.252011108990618
H -1.6673898101665279 -0.5690928044317141 0.8483540718875501
H -1.6008793556548493 -0.9540126658724112 -1.5636068179531575
O 0.1404816681511315 -1.072198513490004 0.20058693568389577
C 1.4174740031722137 -0.5751942991509832 -0.19739799189345295
H 2.102754496607141 -1.4144724215217555 -0.12241357221749448
H 1.746108068298556 0.22283803385366058 0.47228395164724196
H 1.3922237643009758 -0.206415171731829 -1.2236196591085307
H 1.5047112749934908 3.4261176301741396 3.3322838421136973
