21
## STRUCTURE-ID: 645679c584831e3d6028a824 ; CHARGE = -1; SPIN = 1
H 2.97755332332934 -0.33566745345864685 2.5392181886721574
I 2.366486512654265 0.7930585814891791 3.441737446612436
O -2.0733698480134395 -1.2086363049981668 -1.1086403447486217
C -0.83043678878468 1.6351899849947409 -1.0259408994517505
H -0.66908712494004 2.7048266401053467 -1.065178144058586
H -1.8499719627572646 1.3950617606994522 -0.752949905938431
H -0.5774269216622032 1.1723637655233488 -1.9700223533428993
H -1.9899152566457063 -1.284461901739438 -0.1447039451981937
O 1.5239682696601544 0.1506580190484931 -1.5737848713122797
C -0.7293042896940154 1.9991149099255476 1.8709931206568184
H -1.770401588969252 1.7859221441151472 1.6586972838955962
H -0.5148024024683826 3.0515229486406077 1.728153064450467
H -0.4898196900376642 1.7087317404816817 2.8854497337456175
H 2.4777171171942705 0.2607096665939346 -1.5147280170943584
Rh 0.776961357942744 -1.7788500411775143 -0.7264983996792793
I 0.48811418342475316 0.8344547004844206 0.4184375276740099
I 3.115645853228345 -2.1393830647696785 0.4486711937289696
O -0.47421730014683494 -4.403953015029564 -0.09220199031563214
C 0.029507457933465184 -3.366084404428773 -0.27731516293508435
O -0.9269838093930981 -1.4827227021304308 -2.981871754665622
C -0.8602170918547606 -1.4918559743696707 -1.7575217706953283
