21
## STRUCTURE-ID: 6456770bd177f62e4a248aee ; CHARGE = -1; SPIN = 1
H -3.1917395804371256 0.25806673149852377 2.3981559081810735
I -2.458489914093661 0.3815148907984335 -2.7816801376485447
O -2.716982489414155 0.684554328950071 1.6778778641762864
C -1.543185340117103 -0.5931747862218625 -1.118173239355438
H -2.0419106087148924 -0.2618057182070544 -0.214078571435888
H -0.46543532822569905 -0.30434878824342265 -1.105258611815949
H -1.6432706925222107 -1.6626585591526675 -1.254736496248273
H -2.992761725508369 1.6056869949056107 1.6779626247326247
O 1.431032318473359 -1.2016387722434154 -2.9041879949934226
C 0.17262077771039294 0.2692595127375619 3.28335946110778
H -0.20597860281056263 0.8823641013724892 4.091269872758647
H 1.1302785655710008 -0.17463730614807768 3.5286834482172362
H -0.5340910543891294 -0.4959009645235241 2.985970160949877
H 1.8732274578908163 -1.6565010276705898 -3.6467948335308407
Rh 1.5050813573553068 0.22538822720973972 -0.5089165854179221
I 1.6161034526414848 -2.0528215903952596 0.7600012534409785
I 0.4702079953511285 1.5711774180608862 1.5596388406221993
O 3.535188876680966 -0.8244903434704579 -2.2714789440921535
C 2.3394776034286733 -0.6842086981329206 -2.023650628969676
O 1.9893276817467294 2.404979927357625 -2.482898814914159
C 1.7312992493830248 1.6291944215182994 -1.6510645757644913
