13
## STRUCTURE-ID: 64568888414f8f11a02cdf80 ; CHARGE = 0; SPIN = 1
I -1.0186935010935088 2.015340056244634 -2.1262278890303197
C -1.064110070909224 -0.9619671284578588 1.080778179878682
H -1.2214097501174608 -0.33907177328029986 1.9562803872019843
H -1.1886063022323474 -2.011514593970947 1.3152689345315813
H -1.7423358492881331 -0.6938657649239188 0.2390253954253825
H 0.7951324333689652 -3.0907342347995805 -1.8886784924315534
Rh 0.13052022631294233 0.21009713654027515 -0.49297498498173997
I 0.18650530979501062 -1.7987766233230584 -2.583044257584012
I 1.457007281743824 -1.2831513994502608 1.1901335487971205
O -0.33801225551921976 2.3250668319366414 1.539494339880539
C 0.25346271926273123 1.805732810355585 0.6426633862991736
O 2.4032013566904147 2.0476548141532653 -0.6665175475742877
C 1.3473384019860148 1.7751898689755203 -0.20620100041255005
