12
## STRUCTURE-ID: 64566b80035cf1389d3dae58 ; CHARGE = 0; SPIN = 1
O -1.4391893602793544 -0.8106807659280801 1.008177604649885
C -1.2837709811235096 0.5003361639314343 1.4993024564583706
H -1.2108350965166568 1.2286342277321736 0.6852545875885343
H -0.3982508001920341 0.5869535225103689 2.137703609415057
H -2.1687457742395155 0.7233823611526005 2.094267169292502
H -0.6769111387977971 -1.0148361217830877 0.4386944601582924
O 0.9419700575453025 -0.9867849392921723 -0.6068258898803697
C 1.0915939186790697 0.04528220266119179 -1.5605852123827904
H 1.7668467666199033 -0.25146932294961577 -2.3669213056031424
H 1.462649326649278 0.9634440323251794 -1.0958552169971567
H 0.1043749190649118 0.23181896392853588 -1.9792063962213884
H 1.8102681625904142 -1.216080324288514 -0.2540058664777988
