12
## STRUCTURE-ID: 645669ae482e24630573b9ee ; CHARGE = 0; SPIN = 1
O -1.1024605490904662 0.18132983987889806 -1.0296330672554903
C -1.8840807696825959 -0.18277134072149 0.09090447557148709
H -1.9371058038909137 -1.2694114891946011 0.20190055909494006
H -2.895282201180253 0.22501376974888196 0.018282436563861096
H -1.3951212701788271 0.24131107512901673 0.9660582485057344
H -1.5286224915820368 -0.14963836703872543 -1.8296040477318218
O 1.700458909797956 -0.2861904172704341 -0.7213802276187743
C 1.999059478063327 0.2400556608171326 0.5497892773728639
H 1.441377572799967 -0.27744770392971163 1.3379856119015292
H 1.7798066066435387 1.3112831481268725 0.6021459993065436
H 3.0651707856033767 0.08852342307248091 0.7156019067075841
H 0.756799732696939 -0.12205759861832345 -0.9020511724184562
