18
## STRUCTURE-ID: 6456715c030a370735763461 ; CHARGE = -1; SPIN = 1
I -0.4119781037711579 2.353242223260778 2.7927341929698524
C -1.6501410318881469 -0.26438661661717405 -1.8826040041131804
H -1.2415725724501518 0.3211224020866992 -2.7018461831241356
H -2.7067590747010244 -0.44633237438159756 -2.0693118300529316
H -1.5603804681613835 0.3173476372107928 -0.965296659179802
O 0.7019449665371074 1.8258027947932358 -0.49247022560543785
C -0.9409096328156844 -1.5903107951493578 -1.757255874191827
H -0.941293322494482 -2.150029028117845 -2.689044676210949
H 1.456124675384896 2.315055010253564 -0.8416846813883735
H -1.3443161309398892 -2.1967060549140585 -0.9486819687558489
H 0.16878488470751363 2.4618123662500735 0.00250135441522539
Rh 1.3605624963011342 -0.218168308839193 1.2002944144986736
I 3.8536661674334733 0.516036304173618 0.7765158457871786
I 1.1844133470816829 -1.3160304984929332 -1.255664304397631
O -1.289075099087383 -1.3014253881726556 2.050191651212632
C -0.2796923802500804 -0.8778351525612287 1.6855989010286807
O 1.966353782729429 0.16022592112749515 4.10425365387912
C 1.6742674963841246 0.09057955808977747 2.9917703932287703
