12
## STRUCTURE-ID: 64566595f6964b52d94b6a66 ; CHARGE = 0; SPIN = 1
O -0.9267372567328108 -1.5210215248821275 -1.5431275686139831
C -1.5396793844460088 -0.6485041171923351 -1.0930033904187233
H -2.3218647313770453 -0.5589261487738154 -0.34744854750784326
H -1.46575163590096 0.5188124378136871 -1.711585414574251
H -0.7986362583375353 1.1188555068845478 -1.364030525467569
H 1.3626252497215294 0.6556785954133921 4.9725223290164
O -0.045015393612558886 0.5067458746643536 0.0842627576067989
C 1.2337948237631513 -0.11192134939860382 0.027056507185968432
H 1.2406266532162364 -0.7652457900812608 -0.845019198577477
H 1.4254592683144742 -0.705919525128692 0.9199299932373038
H 2.0157691201848773 0.6418207515615453 -0.07197753210943147
H -0.18059045479339586 0.8696252891193131 0.9724205902228945
