12
## STRUCTURE-ID: 64566a56b623844f666cdb40 ; CHARGE = 0; SPIN = 1
O -1.9636917710229955 0.1294629725013587 0.587594246699259
C -0.5367517862393536 -0.1788059555669074 -0.7593540220819577
H -0.3895871496682426 0.7660803966592752 -1.2740872707585376
H -0.5070782063786257 -1.0280109957651258 -1.4361967955774897
H -2.6340678815220295 -0.3587149431824238 0.10909773888522067
H -2.7735584532653896 0.4690301897235105 1.6824051941957494
O 0.4647274628742166 -0.38275821422827067 0.28035413872262466
C 1.8144945851609162 0.05487769382178669 -0.004739393867142101
H 2.430573113699369 -0.16325634867710892 0.8649456951412662
H 1.8431278217340945 1.119146114389796 -0.24024626132576324
H 2.16432230397479 -0.5198906026952477 -0.8607280114325352
H 0.08748996065324595 0.0928396930193532 1.0509547413993117
