20
## STRUCTURE-ID: 645679729eb8e93ba7068a0d ; CHARGE = 0; SPIN = 1
H -2.164279059353238 -3.3218338070995177 -0.8197712809136319
I -1.5397620057391863 -0.10332445104917022 -0.9992667948365787
O -2.9119851952042004 -2.9078800740220476 -0.3241639991606692
C -3.321789812557665 -1.6932419443410374 -0.9360798537422487
H -3.571479747860299 -1.879446952011116 -1.984800901499316
H -4.166927978049513 -1.2729931957819314 -0.3858064853489482
H -2.6751533934188982 -2.7813785286475707 0.6266189830464531
O 2.645984758227139 2.2257349035589815 1.7554914373307826
C -2.034638557955184 0.24642775254621865 1.060250975893476
H -1.4511062937193708 -0.4508511636966653 1.6522525521046267
H -1.6987469266073785 1.2589714484949472 1.2436372475250919
H -3.109818982102476 0.15931886490745034 1.1730487429132785
H 3.389331777675883 2.5551646887999233 2.2617667370123655
Rh 2.9770644553004777 1.2666640397704445 -0.1261170974178471
I 0.5470009592439011 2.17235146488447 -0.8853140884728375
I 1.6985152312559046 -0.9663094967473421 0.704224333631016
O 5.581601410305661 2.660293366878102 0.4179031860141207
C 4.625808910019632 2.0738527780718656 0.08194566590942125
O 3.779308354322989 0.19352213848900238 -2.777597094374067
C 3.401072096215658 0.5649581669948873 -1.738222265614273
