12
## STRUCTURE-ID: 64566716c7bdb37b611688f3 ; CHARGE = 0; SPIN = 1
O -0.49373185986780055 -0.7187884722073372 -1.6577625455802076
C -0.6694841814952808 0.11946837551177605 0.8622781684441161
H -1.5849266043547552 -0.5069946577992072 0.7973389441099921
H -0.9732655456058943 1.1611777334328857 0.7916908705862375
H -0.37374681032213297 -0.10299982433695044 1.8853188061611714
H -1.0811241453297964 -0.15009222282726564 -2.164111143302374
O 1.3499138803284614 0.5854729914420128 -0.823911473137799
C 1.1039619806203027 0.17465837801147477 0.3866294172363782
H 1.4215802212971087 -0.8579774187487502 0.6138426502693303
H -0.5921546314002114 -0.39499459863124514 -0.30410569029445184
H 1.452603588427152 0.8660395344355106 1.1645795323445276
H 0.44037410770285407 -0.17496981828290434 -1.5517875368369294
