13
## STRUCTURE-ID: 645673ae8ce6c93ee5662c60 ; CHARGE = -1; SPIN = 1
I -1.3353875010639833 2.4340349768772764 0.6976119302634168
C -1.7587228011356768 -0.1882262744234162 -0.207744434003654
H -2.5167345290081378 -0.02994277443114097 0.5404961385210291
H -1.4289135845018766 -1.2315837163981154 -0.1459761733273099
H -2.076229496731806 0.13069087524959386 -1.1927443751510294
O 1.6300706392475979 -1.920675750877791 2.7938345344589526
Rh 0.7073506446337914 -0.22193332782506778 -0.3938432910658256
I 0.5801283296820815 -1.8404852177258715 -2.4629300396010425
I 1.2684959168517085 -2.372563649315782 1.01493713433273
O 1.764849415132549 1.1675820337231944 2.0441583677289055
C 1.3107976726439763 0.7122748931315362 1.1007357548366103
O 1.0092610525842087 2.118082987987875 -2.249715987155555
C 0.8450342416655452 1.2427449440276572 -1.5388195598372272
