13
## STRUCTURE-ID: 645673f2f94a8c10d019eb5a ; CHARGE = -1; SPIN = 1
I -1.583759142758735 -0.6073963624109524 2.310146885246747
C -1.144726092836634 -0.09241945156580654 -1.1513680799829524
H -0.9480215593956893 0.9855486119927896 -1.1219576007225733
H -2.1896581259866883 -0.29600947446646614 -0.9148649668475859
H -0.8838717774284333 -0.5026329178720818 -2.127706868508272
O 1.0907609657498913 0.8867878784105515 1.020184403850227
Rh 0.11308185894211206 -0.8585457814225346 0.3311005280059984
I 2.1562024684002923 -1.3074128437781958 -1.2458238624015627
I 0.6993923954113731 3.569065091964696 -0.11292979191692035
O 2.4609754448198897 2.3818381217745235 1.952880589465395
C 1.6113866353506596 1.9613527883196382 1.2292131411403084
O -0.8648156255890588 -3.597417184671305 -0.1630665889464852
C -0.5169474446790072 -2.5227584762748614 -0.0058077883823398485
