34
## STRUCTURE-ID: 6456d0fcaa577213264dd53b ; CHARGE = -2; SPIN = 1
I -1.6166707966478373 -1.2130103316552192 -1.7529488909338113
C -3.1920996631460596 -2.6476366933430633 -2.290853028481164
H -4.120386409582781 -2.295988321331294 -1.8568351319289875
H -2.9119442545077097 -3.607268762851563 -1.8716323617564463
H -3.2408456035272013 -2.681958515579964 -3.3722447694190802
H -4.8048731326122915 -5.389670320811693 0.37825944510093756
Rh -1.731117733923856 -1.013611395778738 1.2707265063473407
I -5.768130436114535 -6.19830436676261 -0.5475840978724684
I -2.949489170128908 -3.319872226999932 1.4646310842945756
O -4.315356866182557 0.4712403377181039 1.6082914215693977
C -3.356200499213965 -0.12211524417448502 1.3763440745811861
O -1.3359323211643492 1.9381634054589645 1.20446757950356
C -1.050983726917359 0.8115921751172894 1.4166183145661677
O 3.5895553950480528 1.9850886663398146 -2.8966081816103513
C 0.5903063774250508 4.2659040472151295 0.31828806041890784
H 1.2197151850126664 5.085964976700971 -0.005638893893784832
H -0.30621306962522665 4.615085806985735 0.8176701856629667
H 0.3411471230162065 3.6012961303422495 -0.501933284365193
H 3.9709551253735214 2.76779856053792 -2.4673192529550687
Rh 0.6325909436847929 0.018930436839970054 2.0550071760018143
I -0.035927185906664806 0.2987496714924141 4.649402466399691
I 1.7255048705109668 3.1055933584544024 1.7509691669662406
O 0.856818253137931 0.9943272138127398 -0.5809082921804505
C 1.1130114897141123 0.01677427014423303 0.14930328659327138
O 0.5931145307311005 -2.8590414005417317 1.81460254394168
C -0.054463592501692255 -1.89009283489463 1.6489761656550432
O 1.4689385005571847 -1.1671725003416031 -0.4377760790282176
H 1.7505563556465702 -0.9684908521025603 -1.3723665399175005
Rh 3.134833129606984 0.9992093593863499 -0.09438305918107599
I 3.318869079775576 -0.4555739236205677 2.340393752442631
O 2.6395985715924484 0.03310877180433363 -2.5719828662227826
C 3.1552223629302136 1.025039988114515 -2.059394091081539
O 5.861117273855134 2.1085920050434095 0.3506175285890341
C 4.828779894084438 1.6873485092811262 0.06584006219349404
