21
## STRUCTURE-ID: 645677f74fe88400287cab7d ; CHARGE = -1; SPIN = 1
H -2.1473675984231613 3.194419476214919 -0.27998181096715796
I -2.2061804796347815 1.8978887004792009 0.7840741120383291
O -2.4298743102751996 -0.04573979215641091 1.890919433712586
C -2.186772379833619 0.42094606796825207 -1.1689032178511016
H -1.3715470462836155 -0.044046311338089277 -1.7181494812260565
H -2.7358780039754933 1.1019321487879061 -1.8020286782089487
H -2.8167853124966857 -0.32818755968796925 -0.7113832354454602
H -2.9471008966726058 -0.01816764359185703 2.697424460755886
O 2.761433483439079 -0.13422138048906987 -0.7077859403738674
C 1.4777237862650086 -2.5909654505801583 1.1324277335763973
H 2.360937565319397 -2.0164099421195636 1.3892626393298404
H 1.5052866559547289 -2.8669103900938793 0.0838324976518765
H 1.412645057502662 -3.476252286006151 1.7525943307128105
H 3.3303066813425444 -0.6816177429418792 -1.2864934400164454
Rh 0.16847107549081655 0.869460886341277 0.04912819151627626
I 1.468103498626862 2.180252525525188 2.2957814646714834
I -0.2550198679813377 -1.364003525857547 1.476393649129279
O 1.1435550868605395 -0.9834022084430579 -1.971402953716639
C 1.4529823456911153 -0.23376817335283953 -1.0459771922188654
O 1.2389541314472405 2.957832953944357 -1.7802518141275125
C 0.7761265276365299 2.1609596473974255 -1.07948074894269
