18
## STRUCTURE-ID: 64567202ccf34a00fa6aac60 ; CHARGE = -1; SPIN = 1
I -3.195801832048969 1.7190671087097633 0.26950236836832875
C -2.712950481466474 2.0496770948824277 -1.801994085879174
H -2.0752421102842487 1.228415784940656 -2.11540589314403
H -2.2023817828525423 3.003222970245883 -1.8639883217186164
H -3.6462916906625633 2.0582435844175286 -2.3516362893763647
O 0.056875160878074184 -1.9612401444316474 1.363846743700016
C -0.7723225030140987 1.4328483590695396 0.8820040055702457
H -0.8523555306211068 0.36962172718064806 1.0058350096336053
H -0.46578345403755594 1.831446466645889 -0.06412536432374671
H -0.800484867565911 2.063529285281731 1.7478862687332097
H 0.08810400001792029 -2.552169375325645 2.1180646235655027
Rh 1.794218441297162 -1.6725160195526152 0.2093332219171979
I 1.8812615848303171 1.0778615490250807 1.3265921064798543
I 0.25018690752236267 -0.9207263940841285 -1.8240926820999912
O 4.2137322399015344 -1.467254069403143 -1.5227745400405672
C 3.271097817368838 -1.5229308690359216 -0.8463121678514046
O 2.6892006094360106 -3.786286276475392 2.1237015640591763
C 2.478937491301231 -2.9508107820906533 1.343563432406775
