12
## STRUCTURE-ID: 6456694b391e8a26e7248ae3 ; CHARGE = 0; SPIN = 1
O -1.8900314797047628 0.9119231214002647 -0.4559919765190228
C -1.162982590076269 0.3064275846569615 0.42888601565193113
H -1.5071361277428186 0.48448913201994576 1.4505021973651515
H -1.207606642074344 -1.755933921427496 -0.21010293565877394
H -1.487398480215371 -1.0827969252707808 0.3297753536820929
H -1.5111314498090298 0.9123108960357713 -1.3587618082173472
O 0.4622862655894863 -0.6641361446502986 -0.9385868069803075
C 0.3180629351983577 0.13442118628600433 0.21335449622329836
H 0.7581206684783229 1.131607133459439 0.06386776649166873
H 5.033678669991771 0.7443060925299269 0.542101627320614
H 0.8024458030423117 -0.31803449710531784 1.0848281794226526
H 1.391692427322354 -0.8045836579344038 -1.1498721087819659
