19
## STRUCTURE-ID: 64568f2ff1803c77802eaaaa ; CHARGE = 0; SPIN = 1
H 0.3824383156198305 -3.3013642952816173 1.1265644114783164
I -1.7966124291822223 0.3060278035412431 0.5202991467908573
C -2.8058613007688766 0.4747557810340321 -1.3475949652381218
H -2.8485139573165084 -0.5163889011096507 -1.7821718763187175
H -3.793243401517475 0.8727682757671172 -1.1556221670772908
H -2.218369138333136 1.1413770288174043 -1.968648209807864
O 2.1933380998972583 0.7666057777778085 -2.0340334993481948
C 0.8338238327110912 0.1609488306894181 3.636766214367243
H 1.3190909716299382 -0.8058287241395852 3.713949736845739
H -0.20520809697995582 0.06361510643752465 3.3338058922438494
H 0.9300803575043284 0.7289531561741297 4.553563453941106
H 2.478845842379512 1.672315253298596 -2.25889188218634
Rh 0.8406170794621287 -0.08382609593650577 -0.07649481603892834
I 1.8507684462681349 1.2690882241869754 2.074229074384447
I 1.7653404505015182 -2.61193950231253 0.7828830913389404
O -0.2789923347838109 -1.5677116669574864 -2.3768118328973604
C 0.3334714072193619 -0.7039399966901912 -1.8001986094534494
O 0.16062203901177474 1.5209603845669286 -2.6950889168565397
C 0.8583638166770305 0.6135835601363643 -2.2465042461676874
