13
## STRUCTURE-ID: 645673e83eaf9f042528a80f ; CHARGE = -1; SPIN = 1
I -2.924523791492689 -0.8371382085596792 1.6584631212838166
C -3.8541379891654803 -0.7590723066950321 -0.2885493302237762
H -4.595602187018326 -1.5466513467739134 -0.3296350881772699
H -3.044429349105321 -0.9149209863275007 -0.9918829766683392
H -4.294821331872654 0.22341435066810367 -0.39639594926257055
O 1.3674404316998883 -0.8573973962990469 -1.1812714795768688
Rh 2.277519045431356 0.6390924335009007 -0.14358870391441395
I 1.1111609148296209 2.3860256008336784 -1.7219255184924354
I -0.10158816281484712 -0.6320678737979173 0.09899955615909546
O 3.811213538881847 -1.734456063808986 0.8193086301965696
C 3.2763590191693863 -0.7536007418578222 0.5249484663777823
O 3.80251909358719 2.8127458639034035 1.2190100802228268
C 3.168890767870056 1.97402667521383 0.7325191920755559
