12
## STRUCTURE-ID: 645667b3064be63ef37b925e ; CHARGE = 0; SPIN = 1
O -1.5546552981025352 0.3320483545063808 -0.04004265594692069
C -0.5246534449713786 -0.15615297644310358 0.782956437501851
H -0.6929963453027718 0.10738331931851121 1.8350885739165097
H -0.5498907349295724 -1.2446672230840983 0.6954002716719299
H -1.6171477342684972 1.2901588347224806 0.06361151511466036
H -1.3322313508929506 -0.8393893909047924 -2.486886117964528
O 1.8126787912101265 -0.21625044962340736 1.229162854793872
C 0.8578526003164364 0.3485352202754851 0.3577748479377078
H 0.8831753131214461 1.4470726739976238 0.4180594501988785
H -1.0208575023939235 -1.171181216471383 -3.1188880609189007
H 1.0437508164881786 0.04969217484408313 -0.6825239862547391
H 2.6949748897254526 0.05275067886220719 0.9462868699496815
