12
## STRUCTURE-ID: 64566bb931d07d69034d303b ; CHARGE = 0; SPIN = 1
O -0.17163268066718018 0.26652023779734646 -0.11614726351208655
C -1.249525837070367 -0.2753170511738294 0.6166254161837301
H -1.2586323840144982 0.22899163622055005 1.5800370195888733
H -1.1198911820898398 -1.352670152660093 0.766616428248001
H -2.198750099974734 -0.0980919998594374 0.09999049885017527
H 1.4381935544517865 0.5014865305391014 0.8996975018327996
O 2.2431041762144313 0.7085459171942073 1.3982704429558506
C -0.03812570875028957 -0.3057157044478686 -1.3996375780456947
H 0.7955913214572164 0.1987951076175657 -1.8824560820145253
H -0.949193584360748 -0.15684102652093543 -1.9887924339556395
H 0.17088981488370852 -1.3789776406404124 -1.3308813493033393
H 2.3379726099205262 1.6632741459337952 1.3566773991718373
