12
## STRUCTURE-ID: 64566964bbfcb44d41168901 ; CHARGE = 0; SPIN = 1
O -1.0759880915140905 1.490229435025743 -2.057932599156092
C -0.5208387600620169 -0.7566242195942113 2.269488120084049
H -0.5443987587556802 0.3227740486172052 2.342735046612757
H -0.1693816616712201 -1.1729770469415015 3.204464911942026
H -1.5159096109045203 -1.1274421470922127 2.0619312155315055
H -1.9189418876216628 1.052282122945972 -1.9140945803043776
O 1.658218627657598 -1.170615366688201 -0.5429374634502572
C 1.7039798746024852 -0.2920776202597539 -1.3600136607066025
H 2.640212260650858 -0.02958595318257955 -1.876247699016089
H -1.229354588599564 2.4332495396858853 -1.9560706227903217
H 0.8237933132484997 0.301214726399336 -1.6422850016100892
H 0.14860928296933346 -1.0504275189157033 1.4709623328634547
