9
## STRUCTURE-ID: 64568844ad02a46e85390820 ; CHARGE = -2; SPIN = 1
Rh -0.27074640780396764 1.0101977495307124 0.6302335238770209
I 0.5360277460476862 2.9685568263041855 -0.9055878091531854
I -1.8431700268295117 2.2254380032612815 2.364641079298462
O 0.4855226738934659 -1.7297935988920619 1.6414072137656965
C 0.06722235076745474 -0.7087259265639039 1.1547472251695299
O -1.088620809882256 -1.021914631033405 -1.1506136561452671
C -0.06733322354835736 -0.621656418941993 -0.5671440291047057
O 1.1461217411235955 -0.8552307841587331 -1.1442810054328916
H 1.0349759562318932 -1.2668712195060639 -2.0234025422746527
