13
## STRUCTURE-ID: 64566c6c6c2efb645c46227e ; CHARGE = -1; SPIN = 1
O -1.8423722788711723 -0.13300533613658017 -0.019637877252197827
C -2.7914706828437548 -0.7243428154148804 0.8121425257746111
H -3.4119967037839936 0.02159656599263354 1.3183641626429212
H -2.327391520767944 -1.3744186921697596 1.5621426953124748
H -3.425271879800374 -1.3288937630457969 0.1590966817093603
H -1.2389125175356825 0.7468652216679541 -4.067586105636452
Rh 1.9443519261037954 0.631259793470191 0.19192235712276418
I 1.9142315705101707 2.56932042849923 1.8951711481052915
I -0.5048569914114011 1.0357393353971316 0.8215774121171818
O 1.3519482181943352 -1.754353179547324 -1.499665011128477
C 1.6378850861944625 -0.832980046368614 -0.8917954110737867
O 4.907867940660371 0.5651907138390526 -0.21671999903718575
C 3.785987833351175 0.578021773816754 -0.0650125786564919
