8
## STRUCTURE-ID: 645664403cbd2472cb230d70 ; CHARGE = 0; SPIN = 1
H -0.7479978530244941 0.00010243323050538793 -0.2755055685511356
I -2.4703969286537077 0.000205523271654288 0.958978303502503
O 0.10847564369648896 -7.872459180057731e-05 1.1929368142728762
C 0.3714667889179055 4.7378783918478834e-06 -0.7458243927619849
H 0.2557369676630496 0.9266473173937417 -1.306328600527529
H 0.2557333880109632 -0.9267062931090573 -1.306204962854713
H 1.3855459569561501 5.092756157897525e-05 -0.35007358334111943
H 0.8414360364336534 -0.0002259216350033383 1.8320219902611041
