12
## STRUCTURE-ID: 6456656eaf52fe092e6cd4bb ; CHARGE = 0; SPIN = 1
O -1.195480099469369 -1.0100992195116645 -0.5647399252588281
C -2.2091376671367793 0.005225707915714315 -0.7824740948177337
H -1.847377500875695 0.7965073401790242 -1.435684694674074
H -2.468150355022958 0.4213907818585211 0.18763727019896886
H -3.0842625564700357 -0.47506348347706406 -1.2129636222593034
H -0.9574022115599067 -1.4326275492071097 -1.4178690460925658
O 0.7920397114756367 0.4741283643770957 0.2886769046884592
C 1.5433728763934873 0.6681499553613779 1.207527072077149
H 2.191690599671274 1.5484749921884124 1.2529129982488916
H 1.6236791786538773 -0.02205922223042037 2.0558506889919355
H -0.3742290401746171 -0.5646551771837656 -0.15870792113852752
H 5.985257064515094 -0.4093724902700956 0.5798343700355931
