21
## STRUCTURE-ID: 6456760ab9fb5846176aac71 ; CHARGE = -1; SPIN = 1
H -0.7304530803284437 -1.15296473186153 0.7792758078154775
I -1.6381007827361607 -0.05441344213945617 -0.025708831903671948
O -2.242277042308217 -0.4867451167869358 2.027432455993255
C -3.3216371293794196 1.4023967186026578 0.2651315928926499
H -4.238462750758675 0.8713818121372167 0.4822515996875919
H -3.3990512845939866 1.9266549252374796 -0.6796295742957847
H -3.074448655278684 2.0901537031245514 1.0623521726074205
H -2.9875476977286017 -0.01889740590202654 2.4042014668797576
O 0.25258112662429194 -1.3019981819993842 -1.2449162611400968
C 1.2062870213171906 2.0218609398635574 -1.5846488572732547
H 0.3128937848021633 1.4463761791157272 -1.8074753473745702
H 2.0339199774107453 1.7383258223002107 -2.2253671388070835
H 1.0174017505350366 3.0870495610606903 -1.6225718957836224
H 0.31817457497348983 -1.2221900729751562 -2.2028045461004546
Rh 1.9618444175021885 -1.571813278712472 -0.09010928818338884
I 1.7590044926856272 1.5304558436186608 0.4479982789133797
I 3.485974741746946 -1.2204632942548987 -2.1764384916843262
O 4.321214857304978 -2.2760065938730567 1.5828653689169043
C 3.419911451777763 -1.963565125735675 0.9291577447076413
O 0.5976804428098927 -2.682202426031109 2.3285879348869143
C 0.9450897836219122 -2.1633958347891102 1.35041580924528
