17
## STRUCTURE-ID: 64568d002a5d603d0a068a10 ; CHARGE = 0; SPIN = 1
C -1.6562851168774237 1.0130548853146473 -0.41224778628769854
H -1.9828257504808602 0.5888595079531871 0.532102948695796
H -2.0417314149817516 2.0249909513849946 -0.5247768700292694
H -2.0388136805737895 0.38569506052893865 -1.2313680289326963
O 2.1656558961300143 -2.7945569006799222 1.1455541563713965
C -0.2071923667839342 -1.5366029944701345 1.7285280408996464
H 0.1501182843611587 -2.3990705176092146 2.275416058751379
H -1.2632804345973956 -1.6209795903298458 1.5019478061280118
H 0.023287935012339948 -0.6189982352819795 2.2557216698247844
H 2.8519205477389016 -3.2089386323233686 0.6221354250370063
Rh 0.4436423783372874 0.7932542898857633 -1.1453458761859359
I 0.5820750271966719 -0.46204753391986925 -3.471778012345158
I 0.8642724878341048 -1.5514483990014178 -0.12167266389784871
O 0.04375517575204861 2.175318048216719 1.4636472773037126
C 0.10409853765730401 1.6369563267367142 0.4514910924926747
O 1.0648589914423785 3.2029621114692675 -2.913371568160997
C 0.8964435028330315 2.3715516221262742 -2.155983669664662
