18
## STRUCTURE-ID: 6456b754d743ee5e9e408608 ; CHARGE = 0; SPIN = 1
C -2.6365890464518476 -0.7013969885952814 0.858067276660834
O -3.142982857251803 -1.3658143947287866 1.6479188386981405
H 1.2121562470501768 2.311109357007405 -2.4506074884416744
I 1.0746521290205298 1.1739083553937089 -1.2324432817280842
O -0.3690080311792044 -1.4857736721087946 -0.989696129746394
C -1.0337186972443526 1.497734945329961 -1.5275038749223084
H -1.224070608647555 1.376415815721028 -2.588730526324687
H -1.2527258783609974 2.4988194981608456 -1.169910505683182
H -1.5635980484518026 0.7560329599203855 -0.9417911757499933
H -0.9000293537788573 -2.193030576893295 -1.4040665296949268
H 2.3091663530864714 2.7179851070886274 2.3394124211500613
Rh 1.061036081710042 -0.3604136230239604 1.127160634954836
I 2.9895374045101506 1.279353081548831 2.3056290698404247
I -0.9522460449973126 1.016460357165881 2.1090913672877165
O -0.5739667126265113 -2.685909384993314 0.8832771706260351
C -0.1375687423920804 -1.6882955974310063 0.3236410174515418
O 2.8756410884921437 -2.5321984202338434 0.1850373300761172
C 2.2643147175127334 -1.614986819328386 0.5255143855455913
