18
## STRUCTURE-ID: 6456897a23a2d5799133a73a ; CHARGE = -1; SPIN = 1
I -2.1725220822328017 -0.21380323077877414 -1.3444557630791099
C 0.08778917812608586 0.4521738189590359 1.5435353747502991
H -0.9576267657358469 0.5704541794025566 1.8019582195255417
H 0.24683464225382007 -0.49343752359055887 1.032750693365446
H 0.7356404675191776 0.5377364677678869 2.4067914406207693
O 1.1762977947704456 0.24004007801758462 -1.200302357996293
C 0.012901459080025256 3.459414864822948 1.7249972467531232
H 0.2050649449720375 4.450571103252171 1.3306047576326947
H 0.6035553421533846 3.2922309973736645 2.6179355819343173
H -1.045254634793948 3.3429059159934185 1.928829506786303
H 2.0722206719806993 0.36095262923115556 -1.5246179781849254
Rh -0.024530505296127523 -1.6068765914842107 -1.7990811926487242
I 2.1554743243288796 -2.5974239581926404 -2.8589638191295945
I 0.58537471380639 2.0008622342016382 0.19090012526235883
O -0.4049917520685948 -3.5653784348041553 0.26148985482691967
C -0.5995244380190761 -3.2163486108066683 -0.8803813495429168
O -1.6443904922386363 -3.807993341071352 -3.048702661404707
C -1.032312868605892 -3.2060805982937 -2.1832876794714906
