12
## STRUCTURE-ID: 645667a5429c11314919eb6b ; CHARGE = 0; SPIN = 1
O -2.638032425003948 0.27770659353664173 -1.08830147118343
C -1.623545369966497 -0.04064735725214886 -0.5194102026978458
H -0.9100280269624428 0.6988273566177063 -0.1324621009377162
H 0.5252309498959388 0.2599218210437123 2.5043248183944016
H -1.4051665905503352 -1.0819308523524065 -0.24660560057290765
H -0.5675542930014649 -0.9320759804130644 -2.871726303079362
O -0.13895131561040008 -0.35995064003342536 -2.226631784697455
C 1.4519669573255733 0.19072832986181085 1.949442684151924
H 1.8029924798510402 1.1855521589711824 1.70815022723173
H 1.2864764758913125 -0.36486779594928304 1.0355274933581267
H 2.1947979182759503 -0.3164228452609132 2.5514608363842624
H 0.021813239855281743 0.4831592112301891 -2.6637685963517375
