12
## STRUCTURE-ID: 64566718b79bf0420862319b ; CHARGE = 0; SPIN = 1
O -1.4796151433437805 -0.8397087644282191 -0.7833730475191933
C -1.9890016418513574 -0.4689204464023793 0.23759236901403666
H 1.1782774956044602 0.574307093780138 0.3131983699491042
H -2.492975786524478 -1.1632321797303915 0.9235995015652146
H -1.9810167338258435 0.5854958336909857 0.5456624366388578
H -0.27779660891945834 0.2500538531574992 -1.9108844866145467
O 0.39146055039441746 0.8522555686812976 -2.265677881515359
C 1.4022016273280007 0.07969224699043989 1.2494776647986436
H 1.2167485428449953 -0.9822148675227553 1.1499017866640338
H 0.7776464749900565 0.48439103123585125 2.0351507802839266
H 2.442734207624284 0.24073580368963426 1.4986564371694586
H 0.811337015678709 0.38714482685790247 -2.9933039304341813
