21
## STRUCTURE-ID: 6456788d4696f2305b1688f6 ; CHARGE = -1; SPIN = 1
H -0.9124531554239943 0.8962743300731487 -2.706387192400502
I -1.6714711643095854 0.2455374297721295 -0.176272026768223
O -2.5850256884660903 -0.06658731866974008 1.8604927722377733
C -0.2355552985831204 -0.9556178882221311 0.8458603356898357
H 0.3540026183334641 -0.3078494613694027 1.4837235594543947
H 0.39763621418396405 -1.4436349204517143 0.09897736508144479
H -0.7922074307408726 -1.6767089373089483 1.4287416625774079
H -3.4793495475654885 0.2761230182717528 1.8950423580074816
O 2.2489731023716164 -1.8721711308792124 -1.6103863946800523
C -0.3144420443699984 2.3914292251604574 2.7470440077374625
H -1.102032975403982 1.693019680891982 2.4911669426070193
H 0.3194306723753066 2.5979912501467552 1.893586821934424
H -0.7228781894755332 3.305549439069395 3.154733656413218
H 3.116230287149062 -2.2920681483548067 -1.7830058876431327
Rh 0.1348083217848607 -0.08883399645362322 -2.1499948843530268
I 1.582685300909726 1.7537543081612816 -1.0270518996867033
I 0.8944939779460386 1.4838665627038405 4.2610483157325225
O 2.6129342001176097 -0.9383309814471108 -3.598292626582561
C 1.880194898327123 -1.027590147471154 -2.620399136027575
O -1.0899123509453281 -2.4515685179889415 -3.5027011279165623
C -0.6360617482147948 -1.5225837956339674 -2.9859266214146607
