12
## STRUCTURE-ID: 6456672ecdafb14ec62fdd8b ; CHARGE = 0; SPIN = 1
O -0.8077359170148045 2.6961261606482796 0.1523021492478652
C -0.48824981737203205 -1.011076819831502 0.8440198253545683
H -1.0445160687845298 -0.5378982982189221 1.6498750620765126
H 0.15885037353832696 -1.7933459625723485 1.2549206684916805
H -1.1848867112792971 -1.4645198418250804 0.1297842204321896
H -1.5590322463565898 2.5044690576982775 -0.41486777438114164
O 0.27652239606651985 0.003072058684783508 0.22912587496448777
C 1.085378461905197 -0.47879154695563875 -0.8216604185716261
H 1.6384831004869247 0.3743913143329832 -1.2074790436653045
H 0.47364989336588426 -0.914267541901342 -1.6198601457090243
H 1.7872722415447744 -1.2365292455941757 -0.45730226093821325
H -0.33573570610040065 1.858370665534713 0.2611418426980664
