12
## STRUCTURE-ID: 645667a6ff4eaa26cd2c50c8 ; CHARGE = 0; SPIN = 1
O -1.0050269995701981 -0.8636665183824018 -0.7635270725519414
C -1.8650069441590973 0.0812399185089081 -0.15795706896578465
H -2.8688968167577857 -0.3274435704080263 -0.019782653845306693
H -1.924145919243844 0.9998589900466662 -0.7483076084539749
H -1.4408615181857356 0.3114498452526995 0.8176897585874836
H -1.3735300793670158 -1.1198948018478074 -1.617685787057783
O 1.7547115292829292 -0.12262697606659004 -0.6341888276096872
C 1.9243313468976577 0.2851709642218848 0.702544950361994
H 1.2676135379243447 1.1259997534508683 0.9508974913843601
H 2.960379521412754 0.6044617160070297 0.8098940585905214
H 1.731852732614933 -0.5363728663697276 1.3999809871511366
H 0.8385796091510592 -0.4381764544135077 -0.7395582275910193
