21
## STRUCTURE-ID: 64567663bd505123b23d7d94 ; CHARGE = -1; SPIN = 1
H -4.127744318362874 2.0369034532788453 4.444128654371147
I -1.672745363003707 1.1823838549951375 2.749960644444997
O -4.067414554943587 1.2165934363108701 4.979924940196575
C -0.03510350133105516 2.0251995860689513 1.7771645625303862
H 0.1462875684481233 2.9964146225264154 2.211375531840499
H -0.27158917172663727 2.0930444911856774 0.7245352569410068
H 0.7986278217571073 1.3543153366900835 1.9232893599314496
H -4.134108998238676 0.4357228925597382 4.3909842977119125
O 2.4669283655328984 -1.8043467018411954 -0.3876493461799935
C 2.496121871742764 0.5405325946206948 -3.8246456587563267
H 3.22836381856758 -0.1719432078956331 -3.3336500201093093
H -3.2076309280765356 1.1978212375404529 5.452640708769905
H 1.7738995938065596 -0.1670461602396419 -4.339216996364881
H 3.29124966202227 -2.1260140977630746 -0.7582777635012586
Rh 0.7561212872844696 -1.7367082881225975 -1.6293189322805997
I 1.321971448411063 1.2444069009802579 -2.1183940804258676
I -0.6170594992311638 -1.023951923795183 0.3599903780480427
O -1.652989286571595 -1.8660924171155944 -3.369503981703896
C -0.7450528494299267 -1.804839449973252 -2.64018161727216
O 2.4749352878454056 -3.0897255984880356 -3.681406986433748
C 1.7769317454957272 -2.532670561516317 -2.9317489517532875
