12
## STRUCTURE-ID: 6456653418b4d2769561a6e3 ; CHARGE = 0; SPIN = 1
O -2.395424474338961 0.18800540251291967 -0.5175392633118135
C -1.7024299163929664 -0.17488208795526514 0.5569380809377636
H -1.7022467417236273 0.4865945291777368 1.4201027564311293
H -0.35536178260733775 -0.10540784515992234 0.24379183675053473
H -1.818589938021997 -1.2319554728738773 0.7730388604930215
H -2.456344978870799 1.1504128000010412 -0.6350478742146436
O 2.979178283141734 0.9066151446013345 -0.5649379828692586
C 0.7779536227430969 -0.2820508829426542 -0.03204870179590699
H 1.209075127705874 -0.8308541758804256 0.7966421090867313
H 0.7904426574531641 -0.8861003791281863 -0.9318812704270344
H 1.2971253463084784 0.665848353825395 -0.184121007444026
H 3.3766227946033434 0.11377461382190375 -0.9249375436364986
