13
## STRUCTURE-ID: 64568d10963b565184159870 ; CHARGE = -1; SPIN = 1
I -0.5494199928444842 -3.3560676038787394 -2.6510252762628466
C -0.5838890246531308 2.440615750995878 1.9363658432865531
H -0.6182847945783826 2.6751808473621854 2.9819731312221758
H -0.9564206739133917 3.17048980383712 1.2447976643339764
H -1.2526362456932745 -0.5033040319686028 -1.6761335224462108
O 0.7354104600479626 0.6688004803713662 -1.7315232181404887
H 1.6721835089067287 0.8170156501847065 -1.5490773995897036
Rh 0.11585190534886726 -1.1193691310044562 -1.3664116791987166
I 2.6461104068630843 -1.8798924697446397 -0.9652584334801073
O 0.32578910698250857 0.2978960498514724 1.1543565908072473
C -0.11183173186335174 1.3211258720058585 1.523563719931818
O -0.9024181597795671 -2.49969826195698 1.0397493977444097
C -0.520444764823567 -2.0327929560551645 0.058623181791905725
