21
## STRUCTURE-ID: 64568d6b187eeb29cf6aac60 ; CHARGE = -1; SPIN = 1
H -3.0358626012268566 -0.276876772446741 0.39777151277316686
I -1.3414829589891153 -1.2324923843918365 -2.3391231998181508
O -2.190729738848678 -0.24630610866584135 0.8669264875544357
C -1.6435796573967703 2.3328721690008924 -1.061988213664564
H -1.927205207508731 2.005186943241678 -2.0651204701948593
H -2.5215426910863243 2.3147664142416864 -0.41354056381805154
H -1.2749559504419397 3.3566280711626946 -1.1115201160947086
H -2.3951645492816773 0.021589310103025512 1.7739219003444018
O 2.706136986459036 -1.8115590448052779 2.861606423132057
C 1.4094286799500981 -2.3845333535638735 0.5455161346211188
H 0.4420771751655091 -2.64412060677011 0.12928151938578325
H 1.7086849590685274 -3.0844202880014464 1.3101301188654213
H 2.1632323553918584 -2.335318742387694 -0.2315810899750111
H 2.97219856158249 -1.3167816666521803 3.6359976433474808
Rh -0.2507916816788241 0.9814552312061366 -0.18205090689485454
I -0.2790301538873573 2.412175597740709 2.015023296903417
I 1.2643214934885632 -0.5035010946725428 1.4916170906747628
O 1.5594169704433574 -0.8093052509182056 -1.9005960569654885
C 0.5574904450977594 -0.22802810263996745 -1.563750814290603
O 1.3606960772551377 1.9922860481951739 -2.4892872148000698
C 0.7166614864439736 1.456283631023771 -1.6692334810857283
