12
## STRUCTURE-ID: 64566702fdd9cc11bd12b09b ; CHARGE = 0; SPIN = 1
O -0.07360714932152938 -0.28802858164857725 0.049563316835745
C -1.3327832770962897 0.24381371514516537 0.40125034552945044
H -1.2354172592649206 1.2709712505601765 0.7693503010102437
H -1.8115157690359116 -0.3678815335009812 1.173289317448281
H -1.9399164259782768 0.2355081935476747 -0.5007406998435947
H 0.6246463603334821 0.2642929801780091 -1.6640427433605762
O 0.9376886497806584 0.4461656593476744 -2.5625363348671497
C 0.8208681034505889 -0.342953343791064 1.1398102207236906
H 1.7474142573865683 -0.7704525664215164 0.7641597816055953
H 0.4212661532665699 -0.9756615694487486 1.9395003248642377
H 1.0130574672953225 0.6586287308438155 1.5397974946782076
H 0.8282988891837542 -0.3744029348116274 -3.049401324624134
