17
## STRUCTURE-ID: 64568cf199a22b2626351d70 ; CHARGE = 0; SPIN = 1
C -1.7471174467558002 1.0907334000078226 -1.7528509794467135
H -2.406842435100337 1.7800584946188216 -1.2334044587656545
H -1.6619624535966544 1.3624871815050719 -2.801689460754019
H -2.1116064718200045 0.05963195668928546 -1.6652502695971638
O 0.43121641727316684 -3.423728857676198 0.9326711577963201
C 1.2321327932170236 -1.2341735056428196 2.28876999107287
H 1.8274972742605597 -2.064851851712695 2.6429298520584767
H 0.22277021070899358 -1.3230936707249425 2.6699090851437135
H 1.6852933721046581 -0.28220252925791095 2.538698336585515
H 0.38051218106877405 -4.0704112690668435 0.2304702891255415
Rh 0.20113349651925996 0.7729465108860221 -0.753238554291537
I 1.3856514155109414 0.007820059343500012 -2.979309168159836
I 1.1467062084097601 -1.4146824481996263 0.16692480998818898
O -0.6508104042831904 1.47474643764786 2.0389062668881732
C -0.3104161662113951 1.2433532594357162 0.9770495400100841
O 0.19521881324148896 3.534528546787521 -1.8704176826449077
C 0.1806231954524116 2.486838285360763 -1.4301687550084408
