12
## STRUCTURE-ID: 6456685f55aca01da80b535e ; CHARGE = 0; SPIN = 1
O -2.0016979555378214 -0.5787420719559612 1.8802234933938715
C -1.6039816272771725 0.7571713522854993 2.1003698850927934
H -1.049484657091375 0.8589727048219982 3.0383334109894293
H -2.516434352532603 1.3476951744374326 2.1628337116696232
H -0.9906263426332637 1.134275423516106 1.2765156921814158
H -1.2118144275947134 -1.1274384781323907 1.8069743670036358
O 1.99245325197604 -0.08735744916822068 -1.0990711923422245
C 1.3977410334237481 -0.3130171236638455 -2.3585940187821994
H 2.08519787630757 -0.8185538430871029 -3.0429056958622205
H 1.1496877115106436 0.6650844477977821 -2.766810991524884
H 0.48039664249347336 -0.9028139941085779 -2.2670906313626262
H 2.268562846955456 -0.9352761427427396 -0.7307780304565534
