12
## STRUCTURE-ID: 64566861d758564ed27cab94 ; CHARGE = 0; SPIN = 1
O -1.4058262725092814 -0.21756308612592054 -1.0830371548335302
C -0.8214847798087097 -1.4313329585670371 -0.9399745786015006
H -2.2598507199997355 2.434344192893594 1.5961714822398203
H -1.4116883991622886 -2.070945835737302 -0.29886289085968964
H -2.3936780599500245 1.8323115224907456 1.122914146860674
H -0.8678040134798756 0.33523733932689165 -1.6681377176756012
O 2.55331648999738 1.7278473587853853 1.7258839737752458
C 0.31541289403766554 -1.8182722716651145 -1.4919018874165682
H 0.7041205945175998 -2.8030970965490907 -1.32025356889342
H 0.8928335508570118 -1.1673785811520396 -2.126800284699672
H 1.751919951124819 1.2303505817149258 1.9079135642106653
H 2.942728764375436 1.948498834584981 2.57608491589356
