12
## STRUCTURE-ID: 645666ce215c8b72423eadd0 ; CHARGE = 0; SPIN = 1
O -1.3644292684484565 -0.6791369760712149 -0.3508216819319498
C -1.0514716175751055 -0.018260088223820505 0.6902793451590191
H -0.9279087595749197 1.0454270915805268 0.5720245214761355
H -0.7778973289353313 -0.4678913670311661 1.6302091444363669
H -2.7914913011736595 0.34583545720342607 1.5395082731320362
H -1.4859830203718711 -1.6403929258024492 -0.21577881812551217
O 1.131474477002 -0.054962686439411566 0.36843650282307866
C 1.398989929378075 0.4891502126857212 -0.9135387501658576
H 2.4545815585412245 0.3832831617754801 -1.1657856632471413
H 1.1493740229729619 1.5468855462862334 -0.8686097965732034
H 0.7846878199970451 0.008378882181641251 -1.6789615774827062
H 1.4800734881881628 -0.9583163081448987 0.3930385004995782
