15
## STRUCTURE-ID: 6456b77f03100c1b1a3ae5d4 ; CHARGE = 0; SPIN = 1
C -2.7871558144003568 0.12223032254933704 0.7235086678608187
O -3.6178414783882626 -0.21895438447565813 1.4136333262908238
I -1.1240049302903925 -2.351663323348446 -0.11225025028080392
C 2.085825266427684 -0.9502392214666084 -0.15502173431633615
H 3.1419798126376417 -0.6847728678387923 -0.2102676724646398
H 1.796463331752057 -1.4862706236706082 -1.060838092410309
H 1.912945534123272 -1.619994916936797 0.6871300137265359
H -1.329697406091841 -0.764866745894484 -3.1220072560703316
Rh -0.7741615215813973 0.2716389832590699 0.2406944671814852
I -0.9174938294404048 0.6755022233702079 -2.5802207019246666
I -0.11324683999862434 -0.002772309533513664 2.855639653541609
O 1.7454720465374989 1.4113911231493015 -0.10818179269044167
C 1.2990216497530473 0.30337698222478343 -0.020952223081586677
O -0.6331116215967643 3.197750167596519 0.8600242790125677
C -0.6849941994431678 2.0976445910156856 0.589109315625299
