13
## STRUCTURE-ID: 64568c3aae910d54bd2c50b4 ; CHARGE = -1; SPIN = 1
I -1.3812242596337192 -2.6636860099998256 -0.01926380266357705
C -1.687276697827022 0.7063439355953856 0.08022620090702756
H -2.505357880291944 0.5013310538265313 -0.6160615044417567
H -1.394802285499989 1.7583037130865484 0.012668412091114887
H -2.005104242386873 0.47959462361026933 1.099207446836394
O 0.7049680060570168 1.154807260196948 -1.49674378662705
Rh -0.06565176062726824 -0.46632652477866987 -0.46701104628649615
I 2.522765867434941 -1.7925285885818103 -0.7121520461363907
I -0.0830541149595837 0.38542059792481886 -3.08727267786725
O 0.35620872751427346 -0.39033597891081506 2.437468390675274
C 0.7237280307488115 -0.3687588266772186 1.2921628120149986
O 2.766509416084853 0.8256175390329603 0.7420583784675772
C 2.048291193386505 -0.12978279432512171 0.734713223030131
