12
## STRUCTURE-ID: 64566a65ba4b3c72af6aac60 ; CHARGE = 0; SPIN = 1
O -1.0878631350572936 0.44370687303757744 -1.4268079191187537
C -1.2481072712429726 -0.2539790863380782 0.43367036245040935
H -0.7210337495887337 0.23275654846242805 1.236447960083274
H -1.2171436000409992 -1.3286358783657772 0.45174576447964837
H -2.2320937138180326 0.16864638066745416 0.2814621074600121
H -1.4999401025067325 -0.24158795229826682 -1.965417929918697
O 0.7214556003000191 -0.5175763864487682 -0.2655815802947165
C 1.6416075701352497 0.19260600009409898 0.4606655466728513
H 1.6213057602859489 -0.09138437604243754 1.526003507988555
H 1.4879279482325436 1.2822555869884096 0.390314531524769
H 2.652573184909849 -0.02568617906835336 0.08559311926068104
H -0.11868849160883889 0.1388784693117144 -1.2080954705880367
