19
## STRUCTURE-ID: 64567b1c15d2d319303dae5b ; CHARGE = 0; SPIN = 1
H 1.3123280145663254 -2.544452172123578 -2.346013095311814
I -2.5351704354468545 -0.840103411314948 0.9057334173705215
C -0.8623974049986033 2.757201076221345 1.3561494168714632
H -1.7905932872654218 3.2492601735666726 1.0975834383531264
H -0.5179376486656064 2.1822915793259585 0.5054572064288865
H -0.12054360999643965 3.500181887232314 1.6160886875464127
O -0.7620996843277502 -0.8063522024418024 -2.890296384175697
C 1.4766033121891449 0.2971295415823482 2.0736555787713993
H 1.9326556326234792 0.8876652912456022 1.2985072822683235
H 1.3928676160061062 0.6593037944795049 3.082391309978594
H -1.0338669531109097 2.101557036031337 2.2006775120736894
H -1.217741729263137 -0.03652130679907358 -3.30137156131639
Rh 0.9348032467758631 -2.020320534103908 -0.9898397564902852
I 0.33540420680490607 -1.242878663241387 1.5508594052330265
I 3.359946615499804 -1.167648240785176 -0.7841076123053771
O -1.3942722109699637 -3.8705600010351695 -1.1398096323412297
C -0.5455213698055131 -3.112459274852251 -1.0985996780070542
O 0.09532417034590898 0.5330193042690705 -1.2975377233006005
C -0.05978848096136002 -0.5263138772568869 -1.8395278116470541
