21
## STRUCTURE-ID: 645674c69cc27f49a4662c77 ; CHARGE = -1; SPIN = 1
H -3.158280133420998 0.05474192679323901 3.6642498791524587
I -4.193087933090492 0.41460142842143555 -1.3146564163254195
O -2.4752751367521904 0.7217445621039272 3.5496984434069154
C 1.1924879811762807 -1.1118082459537442 -3.3434248902776518
H 0.976528152508917 -0.803843842832182 -4.364283292840454
H 1.1768202266840868 -2.1983733332189184 -3.2988958670646076
H 0.3894747561209823 -0.738891915367619 -2.7076259953339004
H -2.496565085424328 1.283045832448907 4.336574806048393
O -1.1080855888000145 1.7705550210462093 -1.054006273480587
C 2.5389266039601908 -0.5696666197416554 -2.887599010044272
H 3.333833810584361 -0.9358409406119182 -3.5320148761836974
H 2.74825881940355 -0.881707879043858 -1.8663776727592551
H 2.539839024355201 0.5180671424761725 -2.9194339304713726
H -2.028542178830968 1.4611059250754153 -1.1052534232957116
Rh -0.09870352480233563 0.4585483174959886 2.4670238210974804
I 0.2967960393776666 2.7647951320191058 3.633081253880568
I -0.6997445592003524 2.305021835219452 0.765808054922712
O -0.2273845543381069 -1.6244302284616277 0.3372153272632464
C -0.1872648297207394 -0.8918515607149622 1.2160166479565095
O 0.9375396427675994 -1.3431599122799291 4.618309133926194
C 0.5424284674417048 -0.6526526448734377 3.8055942804224414
