12
## STRUCTURE-ID: 6456677290f2db7fe5399e40 ; CHARGE = 0; SPIN = 1
O -1.6605692323174734 -0.8903403142275108 0.04797904933569292
C -0.40168220365432494 -0.032221331798948184 1.3319536786704416
H 0.3679506014060308 -0.6552164059961016 1.7509601627902365
H -1.3147315293305495 -0.04704627769958007 1.9113687004507516
H -0.08840269851330128 0.9533213932517479 1.0336464290696934
H -2.1544611820567603 -0.15684202871976116 -0.337493343717528
O 0.6514742283171227 -0.6567248263953073 -0.3908714599834321
C 1.2063072921980338 0.3932365927839608 -1.074098523092295
H 1.8138353900568378 1.031153181397978 -0.4103488357523476
H 0.45387903656601125 1.0313032928687187 -1.5695139623524736
H 1.8791821056872138 0.009452579899095924 -1.85581661258107
H -0.7527818083588358 -0.9800758553642904 -0.43776528283765015
