12
## STRUCTURE-ID: 64566a0e7bbc37262e23363b ; CHARGE = 0; SPIN = 1
O -2.1902116999210697 -1.7670696718045644 -0.26637142325256646
C 0.1512376194837534 1.2764713573772903 0.8588052731267874
H 0.7731790487955318 0.9701524540254884 1.7073105582338106
H 0.6365730772738629 2.1141440249580783 0.34578184312775334
H -0.8284345730250497 1.584935361076061 1.2160863367041672
H -2.472158414342841 -1.5767110457277091 -1.1645408065657332
O -0.05701776824654564 0.19823122541985147 -0.02641706669720628
C 1.1480739741796733 -0.31800229288631066 -0.5494597959452944
H 1.8051727071853196 -0.6675161794870549 0.2543752209563149
H 1.6755415288927986 0.44190867916419835 -1.1360455991093197
H 0.8806433445121634 -1.1555175378080516 -1.1892207211268153
H -1.5225988447876015 -1.101026374307306 -0.050303819451885015
