12
## STRUCTURE-ID: 64566969ee238f5eae37419b ; CHARGE = 0; SPIN = 1
O -2.1164267219590807 -1.4671096423187755 -1.0147334921430324
C 0.0522446611513712 0.5403771411672368 1.327429157404122
H -0.6461299336767906 -0.028841562529567533 1.9363223566791004
H -0.35179177239968173 1.5418563803152698 1.1433761347552691
H 1.0087171695609471 0.6327290116640067 1.8530326275862543
H -1.8885382682721505 -2.3924210981277882 -0.896256916477047
O 0.21102765062938106 -0.1700792159343041 0.11829752318746505
C 1.1036716081529718 0.461285522952538 -0.7742137147528918
H 2.0986524884024362 0.5572749889741967 -0.3266343654106244
H 0.7402569729001776 1.4564351025179267 -1.0533000865920081
H 1.1600732843067048 -0.16809591315211134 -1.6591923904926407
H -1.3717571387962755 -0.9634107155286132 -0.6541268337439599
