18
## STRUCTURE-ID: 64567168f9b9200fe1230d67 ; CHARGE = -1; SPIN = 1
I -2.4207221165340633 -1.7117206232539102 -0.6195386419549433
C -1.475769877131442 1.6263187136426873 -1.2343741991176036
H -2.32724425045598 1.7182919863034427 -0.5519611077570371
H -1.8836858584956675 1.535695748422668 -2.245981481402173
H -0.9164887762227807 2.5671200515271324 -1.1984344094979307
O 1.0490252215682034 -1.606965160087361 0.0530867159208818
C 0.42450368492524054 -0.9503014050562504 3.056252491102156
H 1.1201917551637364 -0.47011872675738076 3.734884035105736
H 0.9487565033105677 -1.525634327388611 2.2965440430128203
H -0.3198825075297418 -1.5442101415137308 3.574392639708895
H 0.9056964846856435 -2.5083688820607906 -0.2474969268484191
Rh -0.27725591396457305 -0.037638621807391026 -0.6700934692683439
I 2.9087245440818243 0.7662785512063203 0.6839418272359601
I -0.6141727404767404 0.6101322326049035 1.969263907728522
O -0.025909573193970362 -0.7771438836926843 -3.523743828503975
C -0.12408843740830604 -0.47873514090493174 -2.4193441065630306
O 1.6843860473924395 1.74421436738602 -1.7770840566695827
C 1.343935810285581 1.042785261429968 -0.8803134322320104
