18
## STRUCTURE-ID: 64568914055fd76ca6333bd4 ; CHARGE = -1; SPIN = 3
I -0.33769772958098254 3.202527872467565 1.7387541788494774
C -1.989252527456734 0.7779135011302704 -0.4033277747703633
H -2.2750955591143542 0.8432785215786682 -1.4569474907958193
H -2.5703357251937815 1.5275172216264712 0.14202752125669202
H -2.27430469372341 -0.2096949958239739 -0.03183757539987493
O 0.038055253804639 -1.4696094977756267 -0.8782238246703947
C 1.6261158558720858 -2.1367602097947924 2.016511807148823
H 1.4153781741589506 -3.0359741575999846 2.5817505623159014
H 2.524410659247442 -1.6407875439277397 2.3661452013922126
H 1.687552343602736 -2.3363307576408983 0.9538959575353206
H 0.015534736569258056 -2.1595330259842993 -1.5730634531154368
Rh 0.09025062268070283 1.2231913234581222 -0.05087639681873541
I 2.756166513132345 0.8405495725266822 -0.048873489627248294
I -0.036042159009792234 -0.7797483443810692 2.31927401505191
O 0.07726132334671577 -0.06311288042159213 -2.600598440854537
C 0.052802018609493115 -0.23379553438756223 -1.3968399087879488
O -0.8281971874209535 3.0380158340084815 -2.1693275245744785
C 0.02739808047718999 2.6123531009398806 -1.5084433641353507
