14
## STRUCTURE-ID: 64567b197d33293d3a6dc163 ; CHARGE = 0; SPIN = 1
H -3.916296485063392 0.8108661624019462 -0.8943859662687216
I -3.427591964415449 1.2538093882772832 0.5546092315214366
C -1.1926316982975504 0.2993483870017846 0.18241416237667646
H -0.8482063992952108 0.48291247064123977 1.1941237357926102
H -1.5351307142381903 -0.6985260134468948 -0.06856138184625024
H -0.9004830442164828 0.987459079624259 -0.6014677370624701
O 1.6676406728354805 0.18682347503601224 1.822412234336664
Rh 1.2115923247552343 -0.7190779175129474 0.05523567218969904
I 0.518763302093781 -2.740823639079365 1.5190158543647838
I 1.763587657489977 2.1215412288766107 2.216264070474544
O 2.6930150056494466 1.4957415204776507 -1.2881978170866852
C 2.036603671517101 0.6731801453842198 -0.8442177240676711
O 0.9479899042165872 -2.4191247852902573 -2.3811308142245724
C 0.9811477669686632 -1.7341295023915708 -1.4661135205000473
