13
## STRUCTURE-ID: 645673a900065f01674609da ; CHARGE = -1; SPIN = 1
I -0.8389039263792569 -2.3225133774405444 1.6859793473742433
C -1.558474363434398 0.4181707309093589 -0.44778057682138067
H -1.9414816064091909 -0.5807618471175172 -0.6597731537696977
H -1.8891528254356165 1.1193764729922582 -1.2164643621890334
H -1.8917397563340752 0.7513100402104113 0.542631192310855
O 1.497706453555888 -0.03049571465825443 3.2599401448886898
Rh 0.5315036959439464 0.4602120049325116 -0.29472810169413427
I 0.7898334411271488 2.9942571996604035 -0.9831952114686415
I 1.2507338780061996 1.3356013388526984 2.017552144562111
O 1.825891176468699 -1.8533078819209425 0.5490567489868159
C 0.7714210844603623 -1.304996424842797 0.5408055656843186
O 0.8324873373827699 -0.738648241542641 -3.0015670906907888
C 0.6201754110475218 -0.24820430003495467 -1.9924566471733771
