34
## STRUCTURE-ID: 6456d37449d42c7301230d6d ; CHARGE = -2; SPIN = 1
I -1.8981664732994923 -0.6194186798359257 -1.4376070094455302
C -1.3934011756520808 -0.5552218635353108 -3.516928589335627
H -2.3113599407663616 -0.5678470168326105 -4.094383523962615
H -0.7683038051653313 -1.4181910078776319 -3.71003119976969
H -0.8322158589217156 0.3567666530843399 -3.6900537970445386
H -6.50071616760874 0.4970496542373043 -1.7611435642043982
Rh -3.0248800260207274 1.6910006112271352 -0.6444316585491213
I -5.854375267704505 0.16329786456833045 -0.3541731294040525
I -3.592955710258062 2.387929710349797 -3.0912533330633374
O -4.101302029808186 4.364315039381118 0.13122288833417764
C -3.693034936200887 3.333885765692488 -0.13791903529477745
O -2.2433193987436253 0.906430771051685 2.137523152138325
C -2.560835997652448 1.2745957979306657 1.0945881815725496
O 2.8370717560587013 -3.285385039622675 2.8269599028891568
C -0.44058730958115216 -1.698590367275082 2.092972987466467
H -0.33666998084065564 -2.1806809575140123 3.057857422903394
H -0.07295324039641177 -2.34469849311871 1.301010986317559
H -1.4718686468250768 -1.4220505650930404 1.90712070652225
H 3.209518287877644 -2.9171801065650613 3.6438853481952878
Rh 0.9220766221598152 1.594437612408 -0.0564091005901593
I -0.27476752588264114 3.733769332017117 1.076324977828285
I 0.7994168687542003 0.054618418696417814 2.0939097419306796
O 1.0891757198997285 -0.8094153430278339 -1.6843693027193682
C 1.685195221737837 0.0029754060752836035 -0.9694516820807281
O 0.46824509120181723 2.3224960596959194 -2.907795745619817
C 0.6436709235302824 2.140418224521593 -1.767598025838551
O 3.0314831438360224 -0.19289477638462665 -0.817732987650795
H 3.3271448946677005 -0.9682390424194655 -1.333688594059401
Rh 3.335981042455341 -0.5163442413230998 1.887892109750079
I 3.4792997215059662 2.159047923337559 1.581374319441254
O 2.421861099149674 -2.823782919762382 0.7111758470388103
C 2.8621611685312742 -2.401668253231821 1.7775690310106393
O 6.1790011542413215 -1.2877105140078442 2.4226254268544114
C 5.080410775720767 -0.9737156568476133 2.230957248439226
