12
## STRUCTURE-ID: 645669b917003764a7051b8b ; CHARGE = 0; SPIN = 1
O 0.018198673767067953 0.061499489983049195 -0.2922769157386709
C -1.2980322644850009 0.5492777091778321 -0.14571197672045252
H -1.8758755115026924 0.39189008330222025 -1.0627592258769838
H -1.216678608340012 1.614512894666691 0.057597694969908735
H -1.8086549723852223 0.053863565372568485 0.6873662851612975
H 1.3252010845149491 0.7665364666234238 0.9263099160895844
O 2.019296985443273 1.1860407197659606 1.4565540772306442
C 0.062259813168779 -1.322509796079531 -0.5651481793036482
H -0.4610413085682198 -1.5515460181679739 -1.4997220035294523
H 1.1120719669698564 -1.5900385086011688 -0.6588409420700125
H -0.392955616755912 -1.8972969344881607 0.24896951948949084
H 2.5162097581731264 1.737770328445085 0.8476617502982896
