13
## STRUCTURE-ID: 645689d8c0a052302c2726bb ; CHARGE = -1; SPIN = 1
C -1.2387508180294797 0.4684406603158517 0.21389435031862436
H -1.3673377028618883 0.6796083927402038 -0.8469837287078023
H -1.1046576582995693 1.403022361301567 0.7672308105849336
H -2.112515792962658 -0.07318449467299336 0.584825705887083
O -0.5711686909968445 -2.367047007288155 0.12507858793009924
H -1.1515048777709689 -2.653104960210871 0.8386608889130759
Rh 0.44480331319483896 -0.6843675243447772 0.6203635339729322
I -0.039531915217684725 -1.1416859410459885 3.1364434515226924
I 2.2298357515019585 1.244537106201856 1.1207041242700222
O 1.3885417768258106 -0.7870675472028081 -2.1869671012492398
C 0.9854371187266731 -0.6660252382556532 -1.119520443852505
O 1.5856318741839068 2.155747741931322 -2.0820792840378743
C 0.9512176217058996 2.4211264505304446 -1.171650895552036
