13
## STRUCTURE-ID: 64568c30e6f6d36b3e2abdd0 ; CHARGE = -1; SPIN = 1
I -1.3083832543441527 -2.4749523402931093 -1.005585112221591
C -1.447469576811709 0.49915091213901613 0.7403622487232551
H -2.300959995148841 -0.10228900664203944 1.0519637236959116
H -1.7201445135804254 0.9713204428210747 -0.21405392328681133
H -1.2470754200250171 1.2854969085569983 1.4665028908191677
O 1.5183394590193497 1.6493596079038875 -2.9572477035174196
Rh 0.31601239779005974 -0.5499600897509993 -0.18781236397679915
I 2.5693855427242753 -2.0886343295105423 -0.3971220564652733
I 0.3664931797327924 0.17947091499664652 -2.7910656684342054
O -0.37086189310846157 -1.0769816582178546 2.6862913872927505
C -0.19814655904810918 -0.8135047705545146 1.5836920440211646
O 2.309907252554378 1.667236252921367 0.011248019876751478
C 1.5129033802458645 0.8542871556300702 0.0128265134731046
