13
## STRUCTURE-ID: 64568d0f963b565184159864 ; CHARGE = -1; SPIN = 1
I 0.8860836873036787 -2.3832755367438945 -2.782259796110395
C 0.12143628741527103 2.3333169654708232 1.759185062095241
H 0.021536106523669076 3.316156844492421 1.3387232503772897
H 0.7492643580704144 2.2242012883427558 2.6255572292707914
H -1.427850746736211 -0.8738729174384288 -1.5496699369873126
O 0.476915223078913 0.755312254705492 -1.6033197642299832
H 0.24756825739591506 0.9402070407078931 -2.517681789447474
Rh -0.11918654086801465 -0.9940611206969229 -0.7796383760577308
I 2.145840107314238 -1.0535839122728436 0.7363362308566656
O -0.9677119249661765 0.3621089035350776 0.7751004751549548
C -0.4226050570865903 1.3094502992687362 1.215540645819403
O -1.0273532895094113 -3.434752241674823 0.6805278180000089
C -0.6839364679357136 -2.501207867696298 0.10159895125853713
