13
## STRUCTURE-ID: 64568888a7c4f342c532dfd3 ; CHARGE = 0; SPIN = 1
I 0.06734026214254864 3.0570437630899647 -1.8331793318359677
C -1.5465477390278726 0.4759403033274381 0.6883338511307431
H -2.128797992731141 1.3150300942586999 0.2948394816078262
H -1.7812938196912416 0.34601375323031563 1.7449289247655817
H -1.824041579561374 -0.41392488145490575 0.11943409859289196
H 1.9127183292674304 -2.553991433183368 -1.5140944123469984
Rh 0.862550259960201 0.68745063524102 -1.1349737641006916
I 2.639067823553029 -1.3422108348499855 -0.7871852096252748
I -0.33827715704356504 -0.42053593434476183 -3.120657414476876
O 0.732872668249293 1.2505538558331497 1.2283159866474724
C -0.12444244224232034 0.7975636179070512 0.5272259127265382
O 1.011416639931165 -1.5870041579054859 2.4010922282927436
C 0.5174347471938373 -1.6119287811491225 1.3859196486220113
