18
## STRUCTURE-ID: 645673f11963fa7e261a562b ; CHARGE = -1; SPIN = 1
I -0.6775959127266172 0.6272128055567646 1.3496262554537015
C -2.3854639275919083 -0.323030090960528 0.43724784167154984
H -3.0214884698398015 0.45823500763468916 0.03869462399545959
H -2.889414670941085 -0.9006856182817908 1.2018372456384243
H -2.0236026370304643 -0.9670690739295017 -0.35588892219538376
O 1.322473059301497 3.1432991567830078 -0.5944192957295418
C 1.8140531400964768 -2.279613953065532 2.16984539504455
H 1.468234457983486 -1.4513653657036834 2.7747892005583115
H 2.3725732315214256 -1.9209996508447245 1.3145102230421242
H 2.3969190316156985 -2.9816169690162924 2.750024990169797
H 2.2120758178007063 2.9668414612883223 -0.272284645384813
Rh 0.4519135223771108 1.5144036460666048 -1.481786175627588
I 0.08865520985480058 -3.3082068569634795 1.4411224834588143
I 2.6465410391800934 0.10062906961351083 -1.1819607609404592
O -0.7270127154412989 -0.7391547080054169 -3.0464672979063687
C -0.28428093333419296 0.12209209141956803 -2.409624411736527
O -1.8204484285035547 3.314673990465993 -2.215688276025308
C -0.9441308143223746 2.624355057942513 -1.9195784734867474
