18
## STRUCTURE-ID: 645670f28a7de725f7159870 ; CHARGE = -1; SPIN = 1
I -1.4816395209053386 1.4766876692705972 -0.2722109057346541
C -2.5667912387624736 -0.11514491044470877 -1.3187788778123473
H -2.34233209305097 -0.02846696616291064 -2.374905191633659
H -3.6225341624201826 0.030885611260150832 -1.1273541453439369
H -2.2274518352551618 -1.0620688828622133 -0.9115305796909273
O 2.050896701652267 0.6849458483768498 0.5610478495447075
C 1.0087069672777758 -1.3305720109221872 -2.0260022207607045
H 1.0775337989545912 -0.7061359793727503 -1.144158348487286
H 1.9443854536702971 -1.8459127157882216 -2.195352370244157
H 0.19366897010062709 -2.0361640994347505 -1.9334806310696042
H 2.9932554297961027 0.8568339249004373 0.3748131366785342
Rh -0.14660141453603268 0.542993927511019 1.9433938496748202
I -0.534311695037655 -2.0633502479500683 1.5640765876237044
I 0.6288907835531152 -0.06822994882304803 -3.7043559410618396
O 2.563971766731882 1.4961943296979836 2.5892758621580456
C 1.7156891838644674 1.037438000546359 1.8422710043348172
O -0.8377976681508027 1.75645728407294 4.576687602550649
C -0.4175394274825216 1.373609166124509 3.5565633192738475
