18
## STRUCTURE-ID: 6456b77ad085d956b81fea78 ; CHARGE = 0; SPIN = 1
C -2.282963878982276 -0.26186851273276635 0.194224298246701
O -2.4161882915865602 -0.5328740333079857 1.2911916422680871
H -1.5931589889435354 2.718752860271832 -0.5698098136348206
I -0.37121177340727135 1.6283347531300838 -0.3147635444217943
O 0.5525652540227748 -0.44147533823834406 3.142449860255195
C -0.8845319526249638 1.0645154193035606 -2.3388586134579077
H -0.02438445707272622 0.5780848914869772 -2.788889619227669
H -1.1049414242369155 1.9897728130100623 -2.8651506028357625
H -1.7446732583747457 0.40211670149017037 -2.2622736952761398
H 0.08869695272689156 -0.8786181662415784 3.88349631928597
H -0.05112101223743212 -2.0183896866540816 -2.4957422274358465
Rh 1.3612947719508506 -0.49700945374329625 0.3587464035051168
I -0.22367251426990079 -2.230530512966589 -0.9049237494711577
I 2.7504316520580008 0.20889645578010163 -1.7987252877369304
O 3.2035672402826774 1.1289775229555787 2.0429114519537297
C 2.468963371629978 0.5110770046278511 1.4068962488222672
O -0.17840721187701244 -2.2170052806604743 2.023914372999063
C 0.4497355209421474 -1.1527574375110996 1.995306556161883
