12
## STRUCTURE-ID: 64566b7d5ca9190b523eadd9 ; CHARGE = 0; SPIN = 1
O -1.158973643646779 -0.5766362121761737 0.08065980053804997
C -0.4216550618500358 0.507329179145414 0.053767922260475054
H -0.34126680600105475 0.9811006138899602 1.0237727421109084
H -2.5682905463240404 -1.5440905109903227 3.0284098140768583
H -2.30090007227137 -1.4448879196143454 2.304481842853822
H -1.2039907185472754 -1.0222131870204805 -0.7843201326022405
O 1.7004484157475745 0.03159680612809104 -0.7173463650182739
C 0.34062244896124605 0.9386093720923712 -1.0354158748290736
H 0.08967858024799157 0.5599383104869838 -2.0185226414001987
H 0.6971118012039538 1.9584787088927067 -1.0296683797103703
H 2.0715797492455215 0.39120707361226276 0.09843679941489213
H 3.0956358532342687 -0.7804322344464727 -1.0042555276948437
