12
## STRUCTURE-ID: 64566adae7cea805a641e58e ; CHARGE = 0; SPIN = 1
O -0.7665006638250235 0.49100106212497696 -1.2596393901216665
C -1.437571472165961 0.023174433899317295 -0.10529213643908265
H -2.3517229261087595 0.5892987228459468 0.07475138207987522
H 0.9972181827395731 -0.34795528411791604 3.440560871860336
H -1.6860018057092023 -1.0208337614210576 -0.2855333929936894
H -0.6723577624900264 1.4514393996315686 -1.1894348498407963
O 1.4911342918179649 -0.10797207481746329 0.14133572433436442
C 1.3052519249777546 -0.22330373211894178 -1.048127571186128
H 1.6068965573416012 0.5516722947043505 -1.7662696964460605
H -0.7822188173871182 0.08657630465877639 0.7706541124289576
H 0.9852049667972939 -1.1711643255408963 -1.5011277336130742
H 1.310667524011909 -0.32193303984866384 2.7281226799369604
