16
## STRUCTURE-ID: 64568e01564e427af45b5c14 ; CHARGE = -1; SPIN = 1
H -3.1905909345317616 1.5608551198044622 1.7248718837626378
I -2.170731731963075 0.23004194868877287 1.9254537102766058
O -0.6012781471542928 -1.3611124488008686 1.9565160491565219
C -1.0540901650771188 0.7858607426311252 0.1627782147486255
H -0.592132024133541 -1.5048236774090369 -0.8724702465308729
H -0.7063175644440846 1.8014060683509994 0.36208691410241756
H -1.7957683802521491 0.8132331658766218 -0.633970458700938
H -0.8900852222041641 -2.2522154753383496 2.1598065686953087
O 0.1895002509049394 0.7035365551552071 -2.4818373816459833
H 0.6228764937095561 1.0893857111738379 -3.271662388040428
Rh 0.4000131294239414 -0.6535811063795502 0.0050610721630854815
I 2.1944132203132978 -2.7299962690223776 -0.023743959388346544
O 2.5518251264073517 0.7653281961797198 1.5354228739230418
C 1.6618678620430911 0.2805750014103184 0.9886201692533666
O 2.2840040748590855 0.2854520675104489 -1.9020742407863183
C 1.0964940120989966 0.1860544001686711 -1.6348587809887059
