16
## STRUCTURE-ID: 64568df50a5b4f49106cd4b0 ; CHARGE = -1; SPIN = 1
H -1.6460248842176872 -1.7062110652044773 1.197372960482289
I -1.2606283713921154 -0.04968682894593073 0.9346433500060533
O -1.183901780039697 1.9813172676772812 0.3164619666086017
C -2.749313897993501 -0.2954732066151182 -0.6061677410776444
H -3.6932977710817956 -0.49278044758520206 -0.10556343840877302
H -2.442685160297801 -1.1292687220942368 -1.2272530472239547
H -2.7741847396539554 0.6318408878638099 -1.1650663703419553
H -1.7317697527664224 2.605808230859193 0.7963776219300254
O 2.8195198563002313 2.2284819327997 -1.758556997006676
Rh 1.3444648229603489 -0.1469912920218637 0.5138013923220478
I 1.675340008156196 0.799199484510796 3.028500284796935
I 1.1720763862586487 2.1519355572131693 -0.8460368467300935
O 1.6482184116472134 -2.931646115383403 -0.615729084374611
C 1.6851635496264563 -1.856835956922726 -0.13747871447111093
O 4.118581491896239 -1.0349286769669965 -0.3211811074897848
C 3.018441830597589 -0.7547610491839805 -0.0041242290212964265
