21
## STRUCTURE-ID: 64568d6db8e64776b0670ffa ; CHARGE = -1; SPIN = 1
H -1.165456188979607 -1.747619106715732 3.6963527904410443
I -0.7145363678439336 -0.37529120851893305 2.7658311231025867
O -1.470928898296275 0.6849601939990879 -2.3183319663721544
C -1.6493177419483402 0.29645015499861527 4.836571776250972
H -1.6041738957711231 1.383269543941174 4.826477200503279
H -1.0037297440684008 -0.13566913075799072 5.60695378745117
H -2.6777583584435516 -0.07488118196750643 4.8345445538602885
H -2.3106779755245292 0.39357469011548757 -1.9121883088069171
O 2.7306285673682162 -1.1033373612738095 -1.216600841628599
C 1.3225390110778503 1.777427991762389 -1.1728166630349337
H 2.2216928330809464 1.2422729890979285 -1.4707878980342883
H 1.596859639176685 2.7738921200845374 -0.8295774316251869
H 0.6518193370465977 1.8626738292681393 -2.0267619248317494
H 3.2691874784903128 -1.102707655193127 -2.0107753659969125
Rh 0.6112474727576571 -1.455575765464749 -1.6305029436123195
I 0.41946169232765246 0.7131121425335608 0.30409227410640455
I 0.1796094773816681 -3.011051463868753 0.39067635245128124
O -1.3469367366301013 -1.5885172941240666 -2.5959487099863634
C -0.7763046986053727 -0.4500596956354876 -2.738043747981914
O 1.1309823696319534 0.28251897811350846 -4.128269672055728
C 0.5857927277721499 -0.3654427703943522 -3.2108943841997473
