18
## STRUCTURE-ID: 64566ff5ed37d174e0763450 ; CHARGE = -1; SPIN = 1
I -1.2138133033863017 -1.1814455346479995 -0.22557369108910247
C -2.4453201698847424 0.2662862956298998 -1.3042723977962893
H -2.868085431892876 -0.23994333114893712 -2.1630715662430378
H -1.8011505275168453 1.0878145202190919 -1.5993298318607896
H -3.216682699224011 0.612652547468802 -0.6257296986478736
O 2.8347182596376284 -0.07549174427247364 2.4575988483604716
C 0.4451971714048144 -0.3760940395574137 -3.1993426691081774
H 1.4056355789459867 -0.7694540826972369 -2.9410342139361796
H 0.34763586951417136 0.6726846768109124 -3.3875637915160133
H -0.38762959958786 -1.0380459248299996 -3.31689500017439
H 3.596420643179478 -0.6894628520498827 2.4685231521595496
Rh 0.2277243351669219 0.5984648501167092 1.6492372397892467
I -1.775760110149001 2.3967010113556295 1.859795307574379
I 1.425347133447271 1.7593537706579652 -0.3908550162642535
O 1.8614357010285352 -1.716963410828472 1.2977704559052126
C 1.7902403150331745 -0.5904937440968315 1.7662507268904586
O -0.14481387027669937 -0.6005560164016955 4.3539397050243975
C -0.08109929543964871 -0.116006991728067 3.300552440932391
