13
## STRUCTURE-ID: 64568ce7446f797fbf248add ; CHARGE = -1; SPIN = 1
I -0.7721223894570268 0.09800249502462972 -2.9331771354829406
C -1.1035338784892776 0.8202020775957792 0.34459909972735303
H -1.0639465450826524 0.9618993851041209 1.4234132768444645
H -1.0541184522575389 1.7856002749965638 -0.15643480251403444
H -2.0932212560592545 0.38382244436192353 0.10485514116467749
O 1.3442659036632525 1.3586021710087237 -0.7073718503374972
H 2.1366884932158245 1.8514726212334496 -0.418880569679146
Rh -0.17346679511371832 -0.9053919129572033 -0.5834831496493443
I 0.864804181171501 -3.1087881093411345 -1.6236190167682518
O 1.400288833701384 0.48599723297706326 1.3467276726991186
C 0.874132135474919 0.549882153449905 0.25206281500936195
O -0.20310058491713143 -2.45564564808398 1.9554972583289438
C -0.1566696458502803 -1.8256551853698475 0.9958112606572972
