12
## STRUCTURE-ID: 6456666e32034f6771351d7b ; CHARGE = 0; SPIN = 1
O -1.971720391558743 0.4135806341923354 -0.41193088070030326
C -2.720929561915914 0.8276417489181063 0.7098552926354916
H -3.747070635699374 1.087988486705185 0.4341528446149485
H -2.2269314275015293 1.7135232822640494 1.1051121429291986
H -2.740845537461985 0.05530441482100006 1.4849777385820935
H -2.3952014804645505 -0.3609804400044291 -0.8013119501351638
O 2.5366007296900674 -1.6133029941851007 0.010215941010835812
C 2.815274532720501 -0.3892450489863231 -0.6343462480154858
H 3.013393692255405 0.40733693304371493 0.08950228478405545
H 1.9929763770618845 -0.08424180654958381 -1.2883562005634566
H 3.7080335660350774 -0.5499031776945414 -1.2364646068366603
H 1.7364201368391965 -1.507702032524435 0.5385936416945584
