13
## STRUCTURE-ID: 645689e24b7b6104c3623184 ; CHARGE = -1; SPIN = 1
C -1.6239457919437204 0.14088392189957238 -0.2378648777163998
H -1.6862068813215205 -0.05555004896734629 -1.3132414342002512
H -1.8649665972672407 1.1834532677696104 -0.022904952366917804
H -2.3119544909606744 -0.5125391314563433 0.29891989409472697
O -0.19216368858417987 -2.141885368604839 0.8565010795938632
H -0.8131184299476796 -2.241823568311148 1.5824344082817463
Rh 0.3386331098337042 -0.28193993718941757 0.2619362487537562
I 0.0065191479421572865 0.6247684344152483 2.653890101535038
I 3.2965572408852193 -0.4949094565251448 0.07709827600631332
O 1.0208659650555933 -0.5370506840879818 -1.964798669078004
C 1.556877585826351 0.3207729880822141 -1.2754210551663163
O 1.2151502879264418 2.588435814873266 -0.4220635639925888
C 1.0577525425555439 1.4073837681023038 -0.49448545574496394
