18
## STRUCTURE-ID: 64568b9d6a324f752b304570 ; CHARGE = -1; SPIN = 1
I -3.368466118353418 0.1852790968487701 -1.8632189867795634
C -0.776589540338979 1.7375420957103904 0.8195422103555509
H -1.8745147228612709 1.6464158591022753 0.8070959268750438
H -0.4593190874254928 1.4665864801495152 1.8247551334802514
H -0.530507395513737 2.782349866366446 0.6336158066884725
O 1.3702148634078695 0.10775575342121191 0.9670469340351534
C 0.5770784016319511 -2.992158403755806 0.9678598042508052
H 1.2272175818998563 -2.4909411380332043 1.6744918758759808
H 1.0448362153064195 -3.082757102858314 -0.007675324507213384
H 0.24395046695115039 -3.9554147540691362 1.33657543969865
H 2.308915170521077 0.2872797737181127 1.1642977015990679
Rh -0.6978965898817459 0.33302024635952593 -0.9358955216983694
I -1.1898992422855887 -1.7572180171767176 0.7204920900043412
I 0.6433897893635082 -1.2897780065241928 -2.6863132068633147
O -0.48498730673835055 2.466518590132427 -2.978203891308629
C -0.5571718798959795 1.6615545061457266 -2.1615443553004696
O 1.629309618514946 1.8859956639688855 -0.35506394728510127
C 0.8944397756977681 1.007969490494056 0.07214231087936702
