12
## STRUCTURE-ID: 645664fae14f534af83288c1 ; CHARGE = 0; SPIN = 1
O 0.06693960918533629 -1.7350352286544481 -2.6426384590105134
C -1.7054645833891056 0.7439953673195343 1.508564885766564
H -1.308633721697568 0.9673565626512777 2.490338207684226
H -2.278655812774177 -0.172848141461239 1.552301036973556
H -2.3456536636889216 1.5542162774092918 1.185120590063335
H -0.8629044985953507 -1.5086087221092446 -2.723072436499423
O 1.1414346883669688 0.04887005805348893 -0.5358167668743851
C 2.2332353800333262 0.17230467194011093 -0.053417889646051715
H -0.891078956848131 0.6252266667199111 0.8060970388871306
H 2.4549884314239696 0.9447290953338712 0.6952553484688282
H 3.072663501079908 -0.4791032555714457 -0.33156889495674063
H 0.4231296269037511 -1.1611033516311298 -1.951162660856527
