21
## STRUCTURE-ID: 645675f94df9c77340168901 ; CHARGE = -1; SPIN = 1
H -1.3560513924548516 -4.053637170813242 0.2410390575274872
I -2.6152044463078212 -3.1276959353118583 0.8479031564143683
O -0.6996052844712742 -2.411684324391939 1.4367163901212514
C -3.28348887357682 -1.4352138372679346 2.0744616770443955
H -2.9938750783741326 -1.6105811501163128 3.101746494536228
H -4.3601786329440095 -1.4126808206082835 1.9739081096189512
H -2.8360639229861917 -0.5209786341642133 1.7056056132343735
H -0.6913285361887533 -1.6281752897240709 1.9831927931813054
O 3.2827462423443605 2.979203879163773 -2.4604920925710436
C -0.7902677034472828 -1.0358954316108002 -1.48394699648877
H -1.5918963414413188 -0.3126455493756071 -1.384335844983701
H -0.574185469171911 -1.5104133804741515 -0.5305279629061851
H -1.0029952763820178 -1.7661791139742133 -2.255339085332203
H 4.146239543115636 3.0475720624888836 -2.9141628212034125
Rh 1.6986068355252422 1.886478849298214 -0.36928088685739907
I 1.017673275560152 0.056973132967303025 -2.0874746286204675
I -0.3120387820636874 1.4587563123933902 1.242614058744234
O 2.840223639454174 4.308358016377771 0.9380106281434619
C 2.346992446887455 3.359726461865501 0.47185852824592633
O 4.425646657561474 1.592770103451529 -1.1389797663499022
C 3.349051099361569 2.135941819826224 -1.392516421498807
