13
## STRUCTURE-ID: 64568c240f635171754d302a ; CHARGE = -1; SPIN = 1
I -2.056368895147741 -1.3530194420678983 -1.4631500546654994
C -0.9623806837147912 1.277008349615124 1.3181798157383624
H -0.33298931999829295 1.0015330316045388 2.165397833340732
H -1.8787180837026023 0.6853783177611206 1.3671959522713288
H -1.2026015251314999 2.339729422623669 1.361506705021539
O 2.6516738769967074 -0.538300262201298 -3.5913949836938235
Rh 0.3393650820583214 -0.8341670945469464 -0.5299756122594694
I 2.8664653309031904 -0.47378068630475034 0.16380671022798993
I 0.892460647854735 -0.9005233869251219 -3.0950837772562245
O -0.0940383176822415 -2.345492945128455 1.9915672483494282
C 0.009668083655476832 -1.6363590718079957 1.1019761594145632
O 0.025489884901563415 1.7690036294073581 -0.8314244615573239
C -0.25802608099282165 1.0089901379706574 0.0413984650684019
