13
## STRUCTURE-ID: 64568c1f8738fc05d939081d ; CHARGE = -1; SPIN = 1
I 1.6369468391807407 1.8450444879475185 -1.6498269884989838
C -1.3165358278484323 0.18253807900940217 -0.09900132091703247
H -1.5021641520702338 0.4806822361170499 -1.1328823124425156
H -1.8671757448117572 0.8295991344776815 0.5809083299058267
H -1.7346475703617728 -0.8340317826391187 0.00793695083563521
O -1.0561505357794827 -1.106313073114411 -2.91196278560834
Rh 0.6887517208544344 -0.5615514732601342 0.2906605667150133
I 2.835174353057677 -2.052755614813936 0.5235872483056356
I 0.4309592590653241 -1.806373308154337 -2.021977399735726
O 0.05486644801284641 2.256920925130801 0.8455693763624835
C 0.32399572769177737 1.3218391253386157 0.1807016209852747
O 0.7598794325234288 -0.2475002801725992 3.2626242741094384
C 0.74610005048541 -0.3080984558664722 2.1236624399832458
