13
## STRUCTURE-ID: 64568c82ce6402590e3ae5e3 ; CHARGE = -1; SPIN = 1
I -2.736327169804434 1.1979941772526226 1.976316973684459
C -2.69011442925129 0.5867726513095509 -0.8114066292579718
H -2.875523515695082 1.64593503091538 -0.88737951911983
H -2.0262279771669256 0.14961732963929078 -1.5367803705566292
H -3.509604118627368 -0.028042422607001415 -0.4739419369057392
O 3.110083066239636 -0.03013122401809437 -1.6089063800763066
Rh 2.1488221083667267 -0.4205142360559396 1.3337343668561195
I 2.0171797662585917 -2.1272170643866852 3.177534936925231
I -0.23689689544643125 0.21812027643743837 0.835070655884092
O 2.1895597524435453 1.3021935737419261 -0.018473588784702604
C 2.256074275333669 0.2549215469271411 -0.7391189739774411
O 1.0322821029064058 -1.9167248525507898 -0.8551860809602074
C 1.3206930344429446 -0.8329247866048493 -0.3914634537110694
