12
## STRUCTURE-ID: 6456697b4ec2ae470522414b ; CHARGE = 0; SPIN = 1
O -0.019203460027888464 -0.25491607160715757 -0.16508870043845353
C -1.391271412427039 0.07182143828316606 -0.21936104823909644
H -1.540562289755651 1.1529791536510532 -0.1244533228914301
H -1.8678999908438612 -0.43704584889786535 0.6151543221290336
H -1.835393279498609 -0.26839409689716537 -1.1609567974915678
H 0.753121999476809 -0.29338959361293626 1.5974485598212107
O 1.1235777132274978 -0.4214406672293257 2.48354847043651
C 0.7275018859043146 0.3428979604316786 -1.2028107442653078
H 0.36299251398442933 0.0159559826912646 -2.1825429840086987
H 1.7586591230166833 0.023685344964009647 -1.0711534736985613
H 0.670569135246368 1.4355585033266662 -1.147168041462524
H 1.2579080616969234 -1.36771210510336 2.5773837601089036
