8
## STRUCTURE-ID: 645664009c980d65491d80bb ; CHARGE = 0; SPIN = 1
H 0.768958372957976 -1.3741512967138154 -2.114934390130082
I -2.377713897782804 0.639180221588413 0.7558282279272986
O 0.9206711682957394 -0.5289667657723477 -1.6835983801135492
C -0.31953408126078836 0.3210494091068062 1.2934394322391178
H 0.0663779266861364 1.251813868890672 1.6872228014636907
H 0.21432685886690228 0.023788533318064995 0.39925280323951223
H -0.29103328857002936 -0.4589461474567741 2.0425332493145674
H 1.0179469408068786 0.12623217703896802 -2.3797437439404847
