18
## STRUCTURE-ID: 64568a7bd78626578a159864 ; CHARGE = -1; SPIN = 1
I -1.902313539514968 -2.731076787738163 0.07775956879540949
C 0.5504174999248469 0.8330250560414042 1.9192044279872176
H 1.6178454439217487 0.6168187528177094 1.9829942482575753
H -0.049214738318243155 0.004442896854991861 2.2984660636385352
H 0.3406600461681371 1.7053431476264762 2.5398268212205477
O 1.3174557081870424 -0.0949833536683703 -2.339583597774231
C 1.345311363382929 -1.9659954277722438 -0.13316372451650357
H 1.400089026020257 -3.0192485565706764 -0.3920359572363154
H 1.0649119403351597 -1.8391319627011793 0.9073968981820827
H 2.270987581966036 -1.4540736248397261 -0.3661027457949105
H 1.4006414500259565 0.7650983988023 -1.9221537992427453
Rh -1.5328417527133404 0.7903785592676769 -0.37202648206357447
I -2.7484478409529247 2.3375800041622243 1.3796550996609225
I -0.13610988197402782 -1.0583526496585651 -1.397040692799161
O -3.203530912149263 1.2494164807034982 -2.7498198682222683
C -2.8685638609159514 0.8478664243191952 -1.71066320572061
O 0.9682080322900739 1.8101215341768444 -0.2228043169854183
C 0.1644944343165752 1.2027711081766 0.5000912626134648
