18
## STRUCTURE-ID: 64568beb53aa6941e176344d ; CHARGE = -1; SPIN = 1
I -2.9940993068613784 -0.24956273178544225 -1.7911828728710157
C -1.3335905998452615 2.1158827661714263 0.2883900807440928
H -2.262123731649013 2.5401140316662296 -0.0954880126124798
H -1.582192690646612 1.5949461300162409 1.2225686819658255
H -0.6411347253470576 2.9229840443757644 0.5306535575943105
O 1.836850055908055 -0.11044311877308936 0.848261447767075
C 0.567809009487573 -3.256518055061628 0.9161652265224988
H 1.5399309777479782 -2.790845121356127 0.8040672847949372
H 0.27870458024779243 -3.767231130175099 0.004024314397102871
H 0.52722997618304 -3.913216403892511 1.7768458288487956
H 2.713225193186903 0.17273651847859461 1.1797692776573336
Rh -0.4973461489331705 0.31220732269718543 -0.6896292026167861
I -0.8645393886899232 -1.6631044666885475 1.2533386967255786
I 0.8711111121571845 -1.3268969999616864 -2.332103156489104
O -0.6484049090879268 2.828410549285414 -2.2571028536623032
C -0.613845125426224 1.9014762689489808 -1.5657610475577508
O 1.833077315692154 1.8741863501429585 -0.15363359627742518
C 1.2693384058758777 0.8148740459113527 0.06081634506931407
