12
## STRUCTURE-ID: 645669af9645be16eb351d7e ; CHARGE = 0; SPIN = 1
O -1.0902599105112654 -0.04436778042748628 -1.0666997844365829
C -1.9342593881731354 -0.001205103773043478 0.06799764787019147
H -1.945558589052497 0.9967547534562126 0.5150491498498001
H -1.527451078434193 -0.7086784598117569 0.7883796159314226
H -2.9541171839412965 -0.30011757033448766 -0.1838755056738034
H -1.4663912004891237 0.5139180546761315 -1.7582183605089279
O 1.4756264136393284 0.82796288248517 -0.21779882625443905
C 2.074890662163137 -0.24475944291068333 0.46880102633396714
H 2.293182983614403 -1.0798730286899247 -0.20507029000753274
H 1.439190683205025 -0.6029029149483418 1.2853843944793462
H 3.0098950289954782 0.1263923029828536 0.8875500699234901
H 0.6252515789841471 0.5168763072953507 -0.5814991375069412
