12
## STRUCTURE-ID: 6456884a9be18d17d46cdb43 ; CHARGE = -1; SPIN = 1
Rh -0.5768829698913805 0.6153221629030262 0.22506154087678557
I -1.0131186294828238 2.6853076747612614 -1.3218879662970344
I -1.137202259700015 1.8296202317595176 2.469991730723497
O -0.5329747249399057 -2.363634958352828 0.7407456459284061
C -0.6122506429614987 -1.2277462957116114 0.4358865789169163
O -2.2688978616649687 -1.0231229216134838 -1.430097628278361
C -1.1167384531196347 -0.8675280002213982 -1.1312899750066816
I 0.382305685358118 -1.257870579075668 -2.71089755697766
C 1.4530253964002657 0.4021139499248067 0.6393296617312735
H 1.6606114403154841 0.0011206580617400756 1.6312757254514931
H 1.8291817518698001 1.4316696462967482 0.5698685546186351
H 1.9329412678165527 -0.22525156873208074 -0.11798631168725011
