18
## STRUCTURE-ID: 64566ea2883b726f2c4efcb6 ; CHARGE = -1; SPIN = 1
I -3.9403972315508295 1.5809562996803255 3.176430716347718
C -1.6663654737490727 1.0652554323393906 1.5015901852234461
H -2.1302569555353204 1.834599270273573 0.9202926650158179
H -2.124242845388215 0.09826315195029646 1.4875601103374751
H -1.1639491157451598 1.3586829087921184 2.3996157608907063
O 0.8007901220593698 -2.674302559629731 1.2407373587559962
C -0.08831916910850869 0.6840651261570293 0.31983361048113257
H 0.13363785632311168 1.722416195289587 0.4930877765597426
H -0.7806581598780208 0.4366396339775821 -0.47502153259284574
H 0.12138142140404382 -0.058290135800939336 1.0737900805117222
H 0.5158577523491558 -3.4999524209738873 1.6377435178914614
Rh 1.2318270738273505 -0.6925491876997524 -2.0460315906905344
I 0.8809757529127011 -2.611476976952481 -3.850174833565597
I 0.8034695816423937 -2.8541396156841374 -0.7654690256598287
O 2.422616052116053 0.7595132024300363 0.14821268509254948
C 1.4730081997283317 0.3817737617833312 -0.4587816329719795
O 1.8926455764184882 1.6948888963491004 -3.7164760372931447
C 1.6179795621741615 0.7736570177186167 -3.086939814333891
