12
## STRUCTURE-ID: 64568e0e1e185d42dc051b74 ; CHARGE = 1; SPIN = 1
C -1.406333703034805 0.3189091022756742 -0.008131115782921408
H -1.6242447767663877 1.3510668004104955 0.26525981342860416
H -1.8364296300555751 -0.38448580466584137 0.7126395021428414
H -1.7400916510173365 0.10779586285678916 -1.0259587330688296
H 0.31888961716142933 -3.4159191858697584 -0.8002989358008604
Rh 0.6711764718240673 -0.10764535088938883 0.09044047815602127
I 0.625628779006223 -2.1543883113757754 -1.7153940677209867
I 0.9275220004398298 -1.69025142965303 2.1457909654945677
O 1.0855678434036207 1.8608321827734382 2.3083752283152386
C 0.9109964413390009 1.1328595336875344 1.467263994292005
O 1.1488284287400579 1.856120777967021 -2.1321836186931447
C 0.9184901789598803 1.1251058224828407 -1.3078035107625339
