12
## STRUCTURE-ID: 64566bd919341962a04ed2bb ; CHARGE = 0; SPIN = 1
O -0.08195132238772747 -0.31673184536471877 0.0720942213125142
C -1.3592516514350288 0.2088982320069881 0.36287003100541204
H -1.297789822168405 1.2748381321515776 0.6081563434472625
H -1.8175687985614282 -0.3247513549453714 1.2023542127487667
H -1.9643727020789248 0.07416397920204534 -0.5305521664588269
H 0.6174382071873407 0.1480862429674315 -1.6545553573538492
O 0.9602955643830556 0.29612793902498774 -2.54891853442679
C 0.8125324083657762 -0.21406242195265313 1.159116590653708
H 1.7527762480374631 -0.65325088829672 0.8341542221722827
H 0.43200350248368163 -0.7603066500967125 2.0287959456244056
H 0.9722819712055202 0.8334265229496639 1.4373531399783277
H 0.9736063949686908 -0.5664378876465185 -2.9708686487032128
