12
## STRUCTURE-ID: 645668bcd756877d77112998 ; CHARGE = 0; SPIN = 1
O -1.551497741287875 1.0451934964939358 -0.27517497671250624
C -2.042036558099624 -0.13257992416798356 0.32201722154265094
H -2.130854555153792 -0.9440751454186268 -0.40737922182038655
H -3.030777605852157 0.09942478198664287 0.7160651005918643
H -1.399886279814435 -0.46337443363659786 1.144659495745563
H -0.6612050250285639 0.8586903961686015 -0.6173420033549585
O 1.066129486673457 0.059452479298827104 -0.9297735532086983
C 1.921177008152906 -0.00564457521544638 0.1928548931417889
H 2.924615503864858 0.35354183273324263 -0.04981556995294715
H 1.9853787632923257 -1.0245184915344643 0.5857930116789372
H 1.4901264132408911 0.642177425171082 0.9541113172708757
H 1.428830590012014 -0.48828784187921753 -1.6360157149221866
