10
## STRUCTURE-ID: 64568d37360706705828a804 ; CHARGE = 0; SPIN = 1
O -1.7227280244652805 -0.9897705586493175 -0.04476270709187891
H -2.4077400975173924 -0.3632827890933728 0.23500869376925704
O -0.97491261376612 0.9778610826021717 1.1813809110607734
H -0.40438767335138537 1.6780193287326473 1.5353996557830676
Rh 0.03000994386204662 -0.5272416862509811 0.5067622201779618
I 1.9130729004246025 -1.7154266809145062 1.6964343661272667
O 1.3313451628304873 1.8538303122665551 -0.6521470492249264
C 0.9473378432777829 0.7382481819251054 -0.7529933767407717
O 0.6005063719235605 -1.2303826377740796 -2.2764180414302357
C 0.6874961867817131 -0.4218545528442261 -1.4286646724305336
