21
## STRUCTURE-ID: 6456773c08cb304a7c75cc23 ; CHARGE = -1; SPIN = 1
H -3.087815187386944 0.584765178225443 1.5563060214846773
I -1.4457065423080955 0.43941506772146294 1.5306712026413292
O -0.9712212402825118 -2.737224863768991 1.7486473554464372
C -2.1614253794876754 -0.9808249482971775 -0.30501958019045333
H -2.517543868822365 -0.24403817108765297 -1.014823605227911
H -2.955028696964596 -1.5092460598286648 0.20517222873689295
H -1.5349087318094796 -1.7148970026673482 -0.8206585929884712
H -1.037408169005835 -3.5005743724638783 2.357022095207819
O 0.9006705696942038 3.2686917499341797 -2.9929368521166815
C 1.2915296320779528 2.645426825609418 -0.2935015869473064
H 1.2077626435072137 3.602173425732618 -0.7871783706453279
H 2.334667735114148 2.389271678589968 -0.14372222123896963
H 0.7463191389308846 2.6220585881805016 0.6443796423982194
H 0.6307872909764031 3.114223471525631 -3.8977990210917395
Rh 0.3655714904671761 -0.8536808126588317 0.20523134311910915
I 1.0908056661823153 -2.735734272312203 -1.7877146184976063
I 0.4465122916149524 1.2155612314440076 -1.6258705623120588
O 3.1374530929068833 -0.03489941336801421 0.9785637314418469
C 2.0435287352843865 -0.34078619817158073 0.7727218776042726
O 1.219360097261299 -2.888043248108712 2.123481566623337
C 0.29608943204975696 -2.341637854230213 1.5470279465525822
