13
## STRUCTURE-ID: 64568cf379ec5648c333a73d ; CHARGE = -1; SPIN = 1
I -1.9919212217594644 -1.7669177560926383 1.8085050003876828
C -1.241952613836267 0.8624159410864173 -0.5597182569476942
H -1.8804004960629885 0.9679953858206624 0.31768622537930136
H -0.9716302492281508 1.8586102740595905 -0.9368487442382138
H -1.798539379657095 0.3339127239761659 -1.33461436632926
O 2.558423151603514 0.6650810060547403 0.072244374840711
H 3.072584723170895 0.6303293597555619 -0.7405538821492866
Rh 0.6082379050711281 -0.0314998871688854 -0.12602612242414402
I 1.0592324000437823 -0.46031957703800175 -2.6610548191649324
O 0.6650679650769544 0.81140645293249 2.7266967447521098
C 0.5466981544144898 0.46720616073082116 1.6460946104893692
O -0.19234079609434215 -2.6989780479918704 -0.3392620669133869
C -0.4334595427424684 -1.6392420361250677 0.1268513023177721
