12
## STRUCTURE-ID: 6456673949f8ee16ba56ede8 ; CHARGE = 0; SPIN = 1
O -1.452097002215894 -0.9461850665702656 0.7042338252060023
C -1.7672433755796084 0.3968792278274839 0.9848957333508706
H -1.6351466612968557 1.0316637579317647 0.1019755950439968
H -1.154694379319634 0.7907890712021531 1.8025726253068055
H -2.8146989319570004 0.423559236871634 1.2834272732299026
H -0.5101827777607987 -0.9889089065303759 0.4570315209211943
O 1.2816466720783823 -0.8305774779923463 -0.1193791445602124
C 1.5452648316578437 0.22408997178749826 -1.0234862723687717
H 1.0995069167732667 1.1209623218530052 -0.5970291233871036
H 1.0957035357401017 0.0309811820623117 -2.001684748369028
H 2.619544173958055 0.38515464995657783 -1.1421731494350025
H 1.6923969979221352 -1.6384079683994268 -0.45038413493864055
