20
## STRUCTURE-ID: 6456b8366597a41908351d6a ; CHARGE = -1; SPIN = 1
C -2.0038246260290666 0.6229023449220195 0.6454370773626144
O -3.065915896077507 0.8696198328294767 1.0002823993147707
I 2.0621025652363763 -0.9082965816938975 -0.42215311506404934
C 1.7748996693849404 2.021944981637145 1.4366332963285569
H 1.8471708189979208 2.941724834600087 2.0164059607985507
H 2.13408839099585 2.1898467482730446 0.4227155861577185
H 2.4003026236496177 1.2577142484676176 1.9001132135131693
O -1.1166552228235305 -2.202003795289133 1.39487424845377
C -0.3018550168162742 -1.4783517237115074 -3.598424277559724
H -0.3916357831648011 -0.4380928443294737 -3.893356369423675
H -0.6736097624846404 -2.1447198693903196 -4.366611353465343
H 0.7198448869264 -1.7173477223959512 -3.321062467891365
H -1.1009921789262755 -2.8618742348489485 2.1176901307143874
Rh -0.2917238820360754 0.17428036836746702 0.1599857451579689
I -1.5424104151546179 -1.7699383072690063 -1.8363799156150273
I -0.24977835620627198 2.074209435576044 -1.795895805464429
O -0.44585778140711546 1.9878390104766814 2.2816070353843925
C 0.34491402923953546 1.5520165007698061 1.478787172002927
O 0.2382987586019833 -1.0368271778321736 2.723837799585503
C -0.3373628219064726 -1.1346460491589774 1.6555136397092787
