13
## STRUCTURE-ID: 64566e26c0bc8a59dd12b08a ; CHARGE = 0; SPIN = 1
I -1.5654547458040975 1.7120925038031882 -1.6205255585446388
C -1.275272918325353 -0.47610805561057923 1.0188364822080753
H -1.7376397259477763 0.28028057862948125 1.6590385267981855
H -0.9111566859848294 -1.2749658432386803 1.6679347177109478
H -2.0732164951179035 -0.8773364702213415 0.38678812213788905
H 0.7482206491669309 -3.1433835977792772 -1.3928457231097575
Rh 0.2641073694895245 0.223725571862181 -0.2802862500681842
I -0.1506718785866385 -1.9768336736106262 -1.9920028257737628
I 2.1749818175707634 -1.0727391178772634 1.1193257471753997
O 0.3285185846675723 2.2637934312596975 1.8717694591907814
C 0.3146208750212494 1.4940514935006004 1.037862775617261
O 2.2706665334345586 1.8093078334896437 -1.989465464645062
C 1.6122966204160072 1.0381153457929746 -1.486430008697137
