13
## STRUCTURE-ID: 645688954345da1cc36cdb3d ; CHARGE = 0; SPIN = 1
I -1.206982315551857 -0.2805247108843219 2.6523663923537293
C -0.9968074381205809 -0.029155998029530665 -1.2098997950154204
H -0.9683625326026958 0.8209057800791272 -1.8914991913105224
H -1.8802162083075742 0.09799528421889903 -0.5691323698315925
H -1.120276719750956 -0.9535890097661954 -1.7722866668663473
H -0.717146173447128 3.0596157399124793 1.6396911698238432
Rh 0.43318284976737415 -0.05199074378936687 0.4944090985723425
I 0.40960910960605534 2.7428687283767754 0.5643575584569671
I 2.8158765685008915 -0.21545109753606237 1.8790058498930662
O 0.33081877257203834 -2.991638039301605 0.9863976616585429
C 0.3362850221546468 -1.872883671960849 0.7862283514137006
O 1.5394833350928618 -0.21151308329721993 -2.2879468404075562
C 1.0245357300869211 -0.11463917802211648 -1.2716912187407519
