16
## STRUCTURE-ID: 6456745565bb026ea8671003 ; CHARGE = 0; SPIN = 1
H -0.47434419677897505 0.989459785432968 3.0821585139476197
I -2.557059010843585 1.4689276373040392 0.3136946974597582
O -0.21354224697468796 0.26005894037130267 2.50515267035412
C -1.9853530042848115 -0.30774029058716723 -0.7503125304397446
H -2.2120416612032834 -0.1578953393156812 -1.79777239624384
H -2.5447200388221773 -1.1400406361829591 -0.34295470666601513
H -0.9083715311558094 -0.4411124148875305 -0.6041816772600739
H -0.31350739220666574 -0.5701863616085068 2.996513211022481
H 0.8738723434801243 -2.934033361789406 -2.6872762401552173
Rh 1.0885688139043015 0.3194533018446731 0.7223620639722208
I 0.6444295809978148 -1.5312552619587578 -3.3559441650631965
I 1.3818524831244317 -2.2231211675831912 0.9952032290387298
O 0.8824011172581264 3.28906196381744 0.42403065443407506
C 0.9151640231767002 2.157000791934173 0.5729013707655998
O 3.119236022814696 0.43499995646354955 -1.4370282278191144
C 2.303414697513767 0.38642245674506154 -0.636546467347344
