12
## STRUCTURE-ID: 645667c0eb7f686e074efcc1 ; CHARGE = 0; SPIN = 1
O -1.1023089543348275 0.25906708356621866 -0.5658665085192134
C -2.2395364593954623 -0.0443942978458962 -0.3323457782859886
H -2.9433613779121255 -0.3310210638025922 -1.1253960347484
H -2.641720284965142 -0.052638060679428535 0.6896943579125875
H 0.7333057037634977 -0.04538969403674184 1.1537764346254344
H -0.07234493770565056 0.4494280609256216 -2.2627607591068712
O 0.42939573229972705 0.575998149657338 -3.07930542362922
C 1.4557816349729018 -0.3535777588930983 1.898031658366308
H 0.9857660255343706 -1.0273528171386002 2.6024726977334445
H 1.8273634475461888 0.5162409444630301 2.4237340905489297
H 2.2792350487572866 -0.8598822452394101 1.411676362961422
H 1.2884244214392422 0.9135216990235535 -2.813711097858429
