12
## STRUCTURE-ID: 645666577a803e72e51aaa16 ; CHARGE = 0; SPIN = 1
O -2.7262489534528433 0.31935827058705313 -0.4969951012963657
C -0.811938276590917 -0.15791883282180538 -0.02757763581683504
H -1.0559570027060476 0.7762777260383777 -0.5395792408487599
H -0.9458129057406544 -1.0724041702617448 -0.5831074964807356
H -1.177076801735221 -0.22477523756315268 0.9857053626103238
H -2.8515817084173523 -0.023409935500966293 -1.3838335222607843
O 2.726246951297803 -0.3193582117482073 0.4969967461718116
C 0.8119410013603213 0.15791823067426208 0.0275771632888065
H 0.9458142140002015 1.0724043497565163 0.5831060465067593
H 1.055956093368929 -0.7762789403727134 0.5395796516114924
H 1.1770788347779597 0.22477368256804622 -0.9857061652158391
H 2.8515785538378213 0.023413068644333405 1.3838341917301287
