17
## STRUCTURE-ID: 6456b786f0565959ad2cdf7d ; CHARGE = 1; SPIN = 1
C -2.234836016647683 -0.6614631095299303 -0.29754069904679104
O -2.2817005244039215 -1.6964283630199002 -0.7612075758613348
H -2.227108565261894 1.130753113481276 0.5887513605674949
I -0.06106397094945193 -0.5410020346449427 1.7984609226676365
O -1.9885764993656563 1.7039059127381435 1.378438713609748
C -0.5978598026952819 1.6060236182436798 1.68278745821648
H 0.03356353263133749 2.0545346041608203 0.9089128460143647
H -0.42399372615817493 2.013627077056176 2.6842429822547595
H -2.2499725601667913 2.646338596811335 1.2249849351674995
H 2.778613380377594 2.100546499089123 -0.6154258934808723
Rh 1.0674757266907198 -1.1163509608848212 -0.811461431663306
I 3.3225421659082532 0.6873038439009581 -0.12241124686663352
I -0.27426683881809594 0.8503578216703446 -1.9119409227819704
O 0.20876659678991133 -2.5278790288467827 -3.3040966684129303
C 0.5553499427290837 -2.009966983769983 -2.3427973600129164
O 2.445000560012018 -3.603284266184529 0.11607536850531387
C 1.928066599327996 -2.637016340270925 -0.21577278887646936
