12
## STRUCTURE-ID: 6456678be1c3df777c248ae6 ; CHARGE = 0; SPIN = 1
O -0.6209124976580896 0.3982102222528377 -1.3949535850395354
C -1.344449664925388 0.12533321374473735 0.5119192439044133
H -1.1361576969754312 0.7958604068587574 1.33138372937672
H -1.3244563388094646 -0.9281922943637414 0.7360236131445559
H -2.2144845041806125 0.4475340759332605 -0.038253257154009436
H -1.0857980956265292 -0.3027170050821572 -1.8683066610088692
O 1.5886711724372211 -0.5440236738468411 -0.831964037392287
C 1.5139476473060542 -0.11801108750712472 0.4292440455168538
H 0.39572348088406034 0.06594187404967246 0.6382225607433926
H 1.9932523420625254 0.8635370498267783 0.6096691212828695
H 1.875402751013405 -0.8478074889998211 1.174237366572217
H 0.35926140447225385 0.044334707133642993 -1.2972221399463268
