12
## STRUCTURE-ID: 645667266c61113fb36a6033 ; CHARGE = 0; SPIN = 1
O -1.3040691350920883 0.7525568288899644 -0.7595650461945411
C -1.094821329162935 0.19950286280644555 0.40017649114339426
H -1.407874140282986 0.8233526843566686 1.2472973698359118
H 0.5699721003900772 -0.395967969267991 -0.34339387177790165
H -1.477010334783039 -0.829994386563548 0.5137707750555588
H -0.43557118622627267 0.020491366254941547 -1.5629113304837352
O 0.46489438022269436 -0.5647941576681652 -1.7245086609034022
C 0.6672738508643525 -0.01557431722316221 0.872094425497437
H 0.34896184193532154 -0.3287724745342047 1.8641489200986119
H 1.0343365433455503 1.0070453592089461 0.9157717188510371
H 1.543811368213813 -0.6860076269367474 0.7423090150035678
H 1.0900960405755247 0.018161830676870883 -2.165189806125947
