12
## STRUCTURE-ID: 645666e867aa8004e7623190 ; CHARGE = 0; SPIN = 1
O -1.445383472578392 -0.30266068296084114 -1.4543304248028115
C -1.1970415204775617 -0.17248221321549348 -0.21452870813005556
H -2.9333677318575844 -0.45882395505982576 0.6486508749826598
H -1.1918548635189694 0.7775480064477619 0.2933457675757467
H -0.8599848176684785 -1.0528023331209229 0.3077110046694983
H -1.7364664657851672 0.512687906747348 -1.9084708441306526
O 0.9367788686142074 0.2958965272229154 -0.4822610284893925
C 1.646730838490635 0.19234773897051374 0.7388741784623657
H 1.5673388085301432 -0.8095947514444383 1.1660459500030753
H 1.2022648749465816 0.9069336252415996 1.4280324408183394
H 2.698422275002479 0.4444699568922197 0.5921663961807765
H 1.3125632063021169 -0.33351982572083927 -1.1152356071395462
