12
## STRUCTURE-ID: 64566afc9b33c429a42648c1 ; CHARGE = 0; SPIN = 1
O -1.2271176144674971 0.16927743439322984 -0.2741658512875321
C -2.2276375765969236 0.11820214932497777 0.38650986620510286
H -2.9847291977556116 0.9136106159661058 0.36350158344965716
H 0.9642245610176309 -0.8928809875408884 0.4868333503375478
H -2.4429484925996676 -0.7280041771574707 1.052691841925958
H -0.6357460105074128 1.5470918436284065 -1.5794644083271328
O -0.35793710996975986 2.2236644879467975 -2.211988617838778
C 1.8741624030506716 -1.238390081875001 0.9597229098654049
H 2.2684401994029733 -2.083230836078129 0.41039078898876274
H 1.6628375852236252 -1.5375148055125774 1.9780752638039876
H 2.6035896302982424 -0.4390100940498568 0.9637309390118118
H 0.5028616229037359 1.947184450954406 -2.5358376661347894
