13
## STRUCTURE-ID: 645673e34dbf0204b81f8bd5 ; CHARGE = -1; SPIN = 1
I -3.0537758689131884 -1.340039888109749 0.9310558503729816
C -3.761625965902849 -0.5863883532499226 -0.9652855436047132
H -4.32390105203304 -1.3794898348975047 -1.4408715622458597
H -2.8644880049334764 -0.33260109305343927 -1.5178115172252087
H -4.373301227058798 0.28327146101363737 -0.7622547380234361
O 1.5710972648890635 -0.5492223784552993 -1.1854218432979
Rh 2.255123741987986 0.6300369834999935 0.32652266905642424
I 1.2234447963146011 2.7166039234566037 -0.8914398186145315
I -0.06514142695872721 -0.697509942851954 -0.1131854733458368
O 3.7540029314653127 -1.9057509622291187 0.807435631815092
C 3.2221978633213912 -0.8833884914653768 0.7258002045314232
O 3.4669511960910846 2.359631905002941 2.436011460523944
C 2.949415751730514 1.6848466713387558 1.649444680057836
