13
## STRUCTURE-ID: 64568c7516c7d37a3e2eaab0 ; CHARGE = -1; SPIN = 1
I -1.3139303970613436 1.9148979219186746 -0.5641223510070915
C -1.990055419631313 -0.5311779135264627 0.17040133318773598
H -1.8117992048604554 -1.241998596812582 -0.6293002197241593
H -2.9870905781177597 -0.12441548292311001 0.10014257926527402
H -1.8228299169089048 -0.914340240643004 1.1724761897555145
O 1.3224768338945838 0.7347323430567376 -3.3507958156764994
Rh 0.5620987591965663 0.06015728900785642 0.2518684726873636
I 0.7989952678331749 -2.6570538814241966 0.6719923542612606
I 0.9714463945700449 -0.7174803080887154 -2.240598352658332
O 3.19606409610212 1.3123929281976066 -0.6313254386471848
C 2.2272879332425575 0.9335910894734006 -0.15044334950365718
O 0.4023791966044039 0.7450197838837774 3.15594730832253
C 0.4449570351363438 0.48567506788002085 2.0437572897372522
