13
## STRUCTURE-ID: 64568c72ee83950aa74dd530 ; CHARGE = -1; SPIN = 1
I -1.1525544869029607 1.6390216772330768 -1.75853169008276
C -1.429758769546491 0.06518968474215266 1.3179408197581701
H -2.2400808064006723 0.7898487504453943 1.23541013284352
H -1.2385027702350555 -0.16984888465661177 2.3652307048220034
H -1.7564421570350344 -0.8644582423532866 0.8182782718086214
O 0.3446016739911314 -1.5387105426804684 -1.6142694931435957
Rh 0.24426643501038464 0.2307697079360717 -0.025593923926393064
I 1.7927373012838717 -1.1825552004178599 1.5691474417916036
I 2.3916771913038897 -1.8495036863010064 -3.6514596930430074
O 1.8506690460476205 0.0798766078408394 -1.5749828363107528
C 1.3456658731864843 -0.9562721401362304 -1.9997853071753804
O -0.0961135922625717 2.3072652986050928 2.0420212831178106
C -0.05616493844058019 1.449376969742825 1.2765942895401736
