17
## STRUCTURE-ID: 64568aecd05b615633230d70 ; CHARGE = 0; SPIN = 1
C -3.1984062797382316 -0.8022444186814158 1.0466798462548688
H -2.2337461963576897 -1.247609370999533 1.2743740930414809
H -3.802131083147282 -0.6647368274415155 1.9356352344786452
H -3.72828898094661 -1.3542488478373456 0.28012237701289966
O -0.12075680087507012 -0.44176498804392583 1.1978713714587288
C 3.1028529799505016 -0.7755403797729626 0.1938773459106416
H 3.2958460649002177 -0.9624855303696676 -0.8564195339405681
H 2.2561129240155764 -1.3568755270075321 0.5459479650149468
H 3.985571792691655 -0.9368057150495972 0.8006330755994363
H 0.15120278120113145 -0.15314323786992987 2.0733252600396965
Rh -0.08342982155194766 0.9461417287493089 -0.22860068039868434
I -2.7428455379624337 1.1626421594417398 0.2443777002835808
I 2.5401206113089443 1.3076599606828125 0.38546174325627136
O -0.22608654954483806 2.9479008863581595 -2.4996687877113053
C -0.14977407893415415 2.099590956787179 -1.701168035508501
O 0.9662307358100827 -0.199829724777871 -2.4310957192623572
C -0.01247256081986494 0.43134887583209863 -2.2613532555297846
