12
## STRUCTURE-ID: 645688213cff9668712eaaad ; CHARGE = -1; SPIN = 1
Rh -0.5344389530869716 0.514928934007729 0.22557743354248916
I -0.7851698792869451 2.064201571147367 -1.9602215294029939
I -3.1222038580490095 0.936952665816296 1.0342278402278702
O -0.32324721115153066 -0.9219322290124353 2.8388373791576447
C -0.3707054433274771 -0.40780225919630986 1.821040057232972
O -0.9278366886014595 -1.771383579649311 -1.6616818432805602
C -0.6726653823767352 -0.9055570976833484 -0.9481727857228994
I 0.5901454344232276 2.4641899576387116 1.7990553022422318
C 1.261747886525606 -0.4456384046131201 -0.7145663020621282
H 1.9473042348904526 0.30156182784363983 -0.29136839042941143
H 1.382415172434775 -0.40135849795340434 -1.7966406040214549
H 1.5546546876060687 -1.4281628883458097 -0.3460865574837515
