12
## STRUCTURE-ID: 6456697a7fc47e159b399e48 ; CHARGE = 0; SPIN = 1
O -1.6360299744628186 0.8593924638313671 0.5714074998509993
C -1.6648227932849922 -0.44663930987248285 1.0980176893951135
H -0.9891505896090463 -0.5493354882019332 1.9537036214352943
H -1.397652428144089 -1.1913252815587438 0.3414950785566279
H -2.6854506961794624 -0.6323294616833782 1.4309317447371586
H -0.7399455826504072 1.0310286979436183 0.23310641335777385
O 1.1030757221826657 0.9474064124786368 -0.326230406833558
C 1.479763249177575 -0.09046469287555338 -1.208240621066625
H 1.6912091621289345 -1.0158467305107066 -0.6645751458161923
H 2.3532800512504317 0.1887180082528294 -1.80256398091689
H 0.6373855239302091 -0.2561572593032526 -1.8773036577661315
H 1.8483383556609814 1.1555526414996067 0.2502517650664409
