13
## STRUCTURE-ID: 64566f217450cc11143dae50 ; CHARGE = -1; SPIN = 1
I 0.8837456578519824 2.186868622259369 -1.3568995462040143
O -2.7724357106958437 1.7122945613041824 1.5382727788743693
C -0.98828186859832 -0.17798261741559682 0.1425533702087335
H -1.5207630656262774 -1.043398327083509 0.5665343778267007
H -1.7291297499779326 0.35074824771718105 -0.47253239522527807
H -2.8453468251522125 2.6640114522096017 1.441660762304213
Rh 0.9422295042797176 -0.38403319213840137 -0.7096679467262735
I 1.8726812770039314 0.12413244892847981 2.2018383835728583
I -0.8405766108648813 1.1549553765347733 1.8170614522063426
O 0.2647219921130997 -3.296019538554339 -0.7385869183845245
C 0.588651584897616 -2.189577834911397 -0.7134351187229756
O 3.567680601290656 -0.5765195959308154 -2.1478658462592004
C 2.57682321347848 -0.5254796029195821 -1.568933353470963
