12
## STRUCTURE-ID: 64566acdeb61510fc56cdb40 ; CHARGE = 0; SPIN = 1
O -2.288549413966896 -0.041662029160301386 0.5852611075059884
C -0.0798755516891343 0.2524610226519269 -1.0668851126859893
H 0.11130898687599147 1.32211552541736 -1.0270025731687316
H -0.31475018263159193 -0.2114818191882701 -2.0134549661727763
H -1.4863296946113036 0.06791394866100764 -0.05169890976065827
H -3.0064025532595244 -0.36210220642045876 0.037776580061292885
O 1.0420613720474998 -0.6033479927320229 -0.3443911346331215
C 1.1715667081794783 -0.2054861098438645 1.0102034321209374
H 1.5203342653749718 0.8257832766761454 1.0938972271189893
H 1.8972205756587213 -0.8784458370726403 1.4645531056303125
H 0.20307838864619218 -0.2928845446110323 1.5072293323997032
H 1.230337099375613 0.1271367656221731 -1.1954880884159946
