12
## STRUCTURE-ID: 64566aa4ba472d37f20b3f68 ; CHARGE = 0; SPIN = 1
O -1.2583123151458644 -0.8066592132529012 -0.04782548430038731
C -1.2734476977376485 -0.4902504559398114 1.3293672880972538
H -2.1327535134441162 -0.9401141412131666 1.8325076640017735
H -1.2863371258583207 0.592171214600736 1.4874069061341664
H -0.3606688920850898 -0.9016068846326364 1.7563347436391885
H -2.083081388278919 -0.5055807968605109 -0.4478458351108559
O 1.3083860165537502 -0.5172928527522771 -1.3248163791339502
C 1.592898207446738 0.8157638804559169 -0.9702166226958752
H 2.5900661238201135 1.0385436315761962 -1.348109095824508
H 1.586484377247199 0.9532121841005845 0.11573792791997342
H 0.8796336790198567 1.5122874534322923 -1.423467832460702
H 0.4371325284623166 -0.7504740195144235 -0.9590732802660784
