18
## STRUCTURE-ID: 64568a4f182daf64706a602a ; CHARGE = -1; SPIN = 1
I -0.7955168103259577 3.282086172950247 -1.0501917757211845
C -3.1604855171559434 -0.25783306172551923 1.7122441587707786
H -3.2685166198398394 0.02401620877240619 2.754845941299412
H -3.1866386041648798 -1.3432699841388687 1.6247487255836628
H -3.9795029365928087 0.1646012907367442 1.13249086641836
O -1.6242810524143139 0.005117928147878655 -0.11662302037535043
C 3.4735025157495802 -1.100208890658483 -0.057135235095476314
H 3.390339564604712 -0.8002098726391741 -1.0957559134614094
H 3.281109336559089 -2.160708410150538 0.04765620410868732
H 4.439228693307247 -0.8302546260762101 0.3491351214312681
H -2.3386494152798405 -0.5018004705781478 -0.5471337824570363
Rh 0.28485464149059925 0.8121804052141044 -1.2308739278482796
I 0.20255383811435482 -1.5396424686439407 -2.531820374856253
I 1.9579096651940486 -0.033558393769525144 1.0591137382261453
O -1.0145736583310692 0.8324710525677359 1.83503544255994
C -1.854427105857185 0.25216229119494243 1.196362861818051
O 2.546141507126441 1.7857231407060017 -2.860575848274876
C 1.6469519578158272 1.4091276880903023 -2.221523182126413
