18
## STRUCTURE-ID: 645688deb44a2a693c390820 ; CHARGE = -1; SPIN = 1
I -1.0996684893149604 -2.0851871588631803 -1.2300580658372378
C -1.8600216275529449 -0.3591108597762539 1.6859948738240123
H -1.8669946228846948 0.6331458920885967 1.2072808086425821
H -1.9599521311378092 -0.18603611121802716 2.7595764796928566
H -2.75533859225181 -0.88282899659668 1.3433044311528552
O 0.8904850461128164 3.2935953916318708 -1.6349531014416827
C 0.8610120165664775 0.7024801529331468 -2.452857864779793
H -0.14218232544573506 0.5679265054090376 -2.837060906838965
H 1.4181715716496048 -0.2265524976547258 -2.4856041841217085
H 1.3717188876029938 1.4934932286150344 -2.9828762721115534
H 0.8556413386333672 4.052724103159417 -1.0534066400649185
Rh 0.09463737390852953 -1.0019372121717685 0.9090040354752877
I 1.2997103880148024 0.32108352269392887 2.8935015677453206
I 0.7360389389751179 1.3478581432504568 -0.43353847711932775
O 2.734795991486972 -1.3643278223074535 -0.521943701140878
C 1.7540724666106646 -1.2768910637727893 0.08641121256962511
O -1.4801289040007843 -2.8678013547083974 2.7045966191887914
C -0.8519973269725786 -2.1616338627122214 2.042629185164763
