39
## STRUCTURE-ID: 6456e202e7513113d87cab86 ; CHARGE = -3; SPIN = 1
I -1.5350216811028334 -3.8852616856162903 -0.4207716320549136
C -2.9169587149973957 -5.492004814319994 0.29837294681499443
H -3.8678974315802366 -5.004867876975539 0.5164997570276142
H -2.463579556855781 -5.926428098777988 1.1821060880767866
H -2.9981298862461356 -6.206319250863739 -0.5142331281953127
O -3.4680408903041373 1.3381898162331263 -2.86515446422366
C -1.3625664610211288 1.1987068870799338 -1.4412504696678055
H -1.0150732679166254 1.0080907673857906 -2.453869699044941
H -0.5076215801915643 1.1272928371098339 -0.7655743705638878
H -1.7652084549329696 2.2143112771799194 -1.3879464389067782
H -4.32630784794663 1.135885852962898 -3.2501999287733936
Rh -2.0568097545596644 -1.557015670277306 1.0743366018772318
I -4.634652053789799 -2.075750723985224 0.4952188537560744
I -2.85596571567524 -0.1016059786946983 -0.964632025053267
O -1.5782693752128338 1.3469117305157199 1.5914217105916122
C -1.3049394791828353 0.19092188768685087 1.5100334510829445
O -1.4881267190082883 -3.160586760697208 3.532697034244652
C -1.7044818108721622 -2.5233028264502897 2.611403155906965
O 2.574343092772331 4.144927619392393 -1.6493841549706245
C 0.34361621114561425 3.50265536249792 0.9683715869990337
H 0.8336573666602732 4.468078265705894 0.9157150712840226
H -0.4543176042402666 3.518579758275528 1.703870141068999
H -0.0714779963115789 3.2660369164253975 -0.013409100170400244
H 3.4245444184538987 4.46644026958507 -1.2987559546372835
Rh 0.7757892285411773 -0.4802929099158682 1.6822722100264091
I 0.5865277646618217 -0.1092091153653111 4.303495839949542
I 1.7687534396360542 2.0138358088867263 1.430271226729638
O 0.30195655916044273 -1.1844754575754146 -1.1166841588278482
C 1.1108448963820108 -0.8060626872055795 -0.2592374521929972
O 1.6869953951605967 -3.322608375238863 1.3448949322158896
C 1.4085418228253597 -2.2580481678273037 1.6832970494000543
O 2.4171522917509467 -0.6933916754398027 -0.6777524472919741
H 2.5371652212052758 -1.033779894312406 -1.5866962546616143
Rh 3.5966675516589355 1.7363805828921308 -0.32509763398592734
I 4.493618754165379 0.5060506538022986 1.831316411553005
O 1.4626298473348482 2.2826314622611066 -2.087918081686793
C 2.4590167442814117 2.7631213459275763 -1.5308223870541435
O 5.658703453971684 1.8176828593316288 -2.4821162961575367
C 4.934922222180536 1.7742800084015513 -1.5840879904840333
