12
## STRUCTURE-ID: 64566aea1ce5201a1b5a8531 ; CHARGE = 0; SPIN = 1
O -1.9188817634548074 1.7281910301318677 -0.009682988025799257
C -1.0614483385805649 0.6173997493985975 0.16107552465263425
H -0.6571761414448324 0.4129267071814475 -0.8332040238319776
H -1.6421861203419887 -0.2587681883216469 0.48461069287199754
H 1.4422954961749677 -3.118592717027935 -2.004026455514389
H -2.2575674257354903 1.9897862500098087 0.8557757387773632
O 2.30228304371591 -2.856522213252542 -1.6652014831022073
C 0.06981478289037851 0.8840359748220908 1.147489746053598
H 0.7378537698758161 0.02832862774763354 1.179258758500394
H -0.3258515595787074 1.0550822764763748 2.146743790058105
H 0.6340528051248876 1.7611885540593615 0.840053549136402
H 2.6768114513544408 -2.243056051225065 -2.3028928495761156
