19
## STRUCTURE-ID: 64568eb8bbb8b34dbc6cd4ad ; CHARGE = 0; SPIN = 1
H -3.656232588112372 0.35109247554618506 -1.1481440368477744
I -2.8144962445957074 1.116418583622156 -0.04579274260937639
C -1.7288713316714885 -1.9547035929174292 1.6522544012780054
H -2.4039701691035904 -1.4314175044672433 2.3286384486034883
H -2.3370281032358844 -2.47159479856684 0.899905869775837
H -1.1666214017009213 -2.704069831614942 2.208204774663428
O 1.5638875292902457 2.2961449128595364 -2.9262495251902716
C 2.0787345154201704 1.8124939826487032 -0.3519684086358079
H 3.115343663356213 1.6567663021317205 -0.6232523968254616
H 1.874777688069403 1.467375722160058 0.6558873216220272
H 1.815713660389554 2.8532485130741123 -0.4826607501194428
H 1.2548224528953273 2.230377199385755 -3.8312361510536004
Rh -0.5510707071715886 -0.748523064970342 0.25453040700695156
I -1.1655434665417346 -1.9376781409262684 -2.0608316653125955
I 0.8882740611907637 0.7069911340115809 -1.7100766756633898
O -0.0686727665813797 -0.21248258328823402 3.156022509567504
C -0.30031784931393374 -0.4301194322302813 2.0526539594452107
O 2.3303770726944997 -1.5292003397778682 0.05248989382241575
C 1.2708939847202307 -1.071119536680526 -0.08037523352696803
