13
## STRUCTURE-ID: 64568c7a2fc87d7a0c112990 ; CHARGE = -1; SPIN = 1
I -1.283983374262219 -1.1097822107922621 2.5851075839376096
C -1.3793750731429546 -0.020664528945303014 0.7452251221104876
H -0.4204628037901546 1.3922072975697704 -1.3398496464513108
H -2.252083954170255 0.6270521338014422 0.8067095717864146
H -1.590126531066488 -0.7717235179374753 -0.031157192657130416
O 0.7792926196929045 -0.9518976840077724 -2.0813626596332697
Rh 0.46868960952999866 0.4780682191863234 -0.454516619682965
I 2.634401430648352 1.7775272622785174 -1.302718620499299
I -0.578638758062478 -2.3346621134219685 -2.363481232969866
O 2.4250744174688537 -1.686601944138093 0.2469940869472511
C 1.6629601924630766 -0.8394125120792243 0.19935656549743877
O -0.3291834470547697 2.0632805163979557 1.9525960837736158
C -0.13656432825387074 1.3766090820881176 1.0370969578409317
