21
## STRUCTURE-ID: 64568e2e21646926f8159870 ; CHARGE = -1; SPIN = 1
H -2.5575357341701097 1.687325272860223 -2.199002069315597
I -1.8999540444255503 1.3555747209861677 -0.6646443809892236
O -1.2105259327180575 0.6308589171392341 1.2638850455861892
C -2.8663164397193723 -0.5362651838311122 -0.94710915777681
H -2.31316611475176 -1.2621039922594413 -0.3601932544531639
H -2.8056850387087104 -0.762787612388297 -2.0070870164436476
H -3.891147795223853 -0.4401338826922849 -0.6073490061968494
H -1.8345081609550389 0.767530390247837 1.9754980029179061
O 0.5956678338786544 -3.20172960216875 1.5241818017703679
C 1.6465291782168068 -0.7115090487778656 1.8657482171391722
H 1.7086909516628952 -1.552424965847815 2.539536709223124
H 1.0425419713121367 0.08449119101186929 2.2849926681486
H 2.6326461431201658 -0.33993786860657893 1.6022313801234946
H 0.1940526273212329 -3.942132665664282 1.069225506704197
Rh 0.7943033685372775 0.9813284911920599 -1.0663391833273266
I 0.07681620132840421 -0.4798487606861099 -3.1623226988738873
I 0.6976680861226432 -1.3654060939960604 0.10738241019226649
O 2.5161407420107818 2.830211639644803 0.6723046323760715
C 1.8714866126037308 2.120008156187649 -0.04729065939664123
O 3.314017546450811 2.1704953723602545 -2.2010574615247633
C 2.288277998106894 1.966455525288525 -1.6425914858834596
