12
## STRUCTURE-ID: 6456653518b4d2769561a6eb ; CHARGE = 0; SPIN = 1
O -3.0567778705054414 0.16384726065347333 -0.36403462056427816
C -2.485692871988436 -0.4295604906006536 0.7814473732849104
H -2.4050073063024535 0.2855883360246066 1.6053928491678742
H -1.4967541481916686 -0.845797934627835 0.5662032753682608
H -3.1526592624622207 -1.236896918512383 1.0786271218938035
H -2.4970949405301623 0.8966114483807512 -0.6478146400955377
O 3.5178596465066643 0.4825976537878554 -0.7948181250579337
C 2.1799863718486296 0.2879473924753563 -0.3916198479800154
H 2.120711812194734 -0.3122854394317231 0.5216133102338464
H 1.5918521411350446 -0.1918060893833382 -1.1799318738868274
H 1.769316109820026 1.2763209436306826 -0.1927367063388469
H 3.914260318475298 -0.3765661623967856 -0.9823281160252604
