12
## STRUCTURE-ID: 6456649b3b558141844609e8 ; CHARGE = 0; SPIN = 1
O -1.2956852551794455 -0.20479255351792683 -0.5030464539654806
C -1.7761728645462582 0.007769445042423943 0.8082428580651168
H -1.1977288538380493 0.8303128648216188 1.2251663134080726
H -1.6351900227042229 -0.8797780805091998 1.4317351330164207
H -2.8335495581592647 0.2849078458450241 0.8049393312845332
H -1.7997876251104288 -0.9180758896673095 -0.9126689084004989
O 1.275506002850489 1.0047891135844838 -0.9349594044711174
C 2.060992338269521 -0.013005967820382686 -0.35903138714083416
H 3.0877072832310577 0.3506110369507769 -0.3389482033336911
H 2.0205912644408546 -0.93267737182563 -0.9517537853382542
H 1.742087158200052 -0.23477294247015706 0.6643428165125251
H 0.35123013254570634 0.7047124995662958 -0.9340183096368253
