18
## STRUCTURE-ID: 6456711fbc9acc24a973b9f4 ; CHARGE = -1; SPIN = 1
I -0.7271973072270518 0.37540628583754937 -0.6110853619762404
C -1.6224680543993686 -0.10700327829549788 1.1547899666428783
H -2.6159026996569357 -0.515537681271105 1.1328766547864881
H -1.045893792414702 -0.07151921038771539 2.0623523949980878
H -1.5113769711477465 3.3391125419117067 2.309670774561491
O 1.4174422588695101 -1.634597218226465 0.6824772271614531
C -0.798131891646669 3.474316476016056 1.5081027818886341
H -1.16996526151617 3.0481117140997624 0.5815494451165973
H 2.2707211394152513 0.09233724907769783 -2.18064907928553
H -0.5196424859090396 4.513380091030886 1.391234441613382
H 2.0242561394744576 -2.003977361851294 1.3608530053120735
Rh 0.6925606854609243 -1.2681276785401605 -2.0581643502483193
I -0.3261413592029466 -0.4172431111186486 -4.3270388758480935
I 0.9798842421120577 2.3810338662014505 2.0354414486092507
O 2.621198977334351 -2.786961537083608 -0.8058029676111278
C 1.7045094329500563 -2.0196506900231466 -0.5550156251129269
O -0.9939932848847411 -3.683720039430048 -1.7868912016342449
C -0.3798597676111901 -2.715360417947414 -1.8947006789739018
