16
## STRUCTURE-ID: 64568de62a89460e8b1a5620 ; CHARGE = -1; SPIN = 1
H -0.5274716214077967 1.4589319678177397 1.3437629130853528
I -0.7509952527734214 -0.23556289819321252 0.87626457881321
O -1.396244540180973 -1.9518799000131497 -0.119609322733659
C -2.3081238520936247 0.6613851535745077 -0.2784084164981763
H -1.8619732904510577 1.3937921916985376 -0.9401602009578307
H -2.996331377166263 1.1298272925555695 0.4145831953456074
H -2.779512323581513 -0.13976896808456094 -0.8315869914404228
H -1.1258516540836727 -2.709575121897584 0.3954292009129612
O 0.40729900926247703 -2.4759510511325056 2.017999990549621
Rh 1.5017009127189476 -0.3305136041165801 -0.4533244581261098
I 3.2997976980444403 -0.9572196063459084 -2.25716602058548
I 1.9497911925092732 -2.527273145239721 0.9151279564911504
O 2.1592672231597083 1.5103438501467923 1.4470538338738226
C 2.3280809499255715 1.4728377430372104 0.28732457918024457
O 0.876252784938537 2.347366881355063 -1.6537826187322633
C 1.2243141411794025 1.3532592148378098 -1.163508219177986
