18
## STRUCTURE-ID: 64568a73c702e0501333a748 ; CHARGE = -1; SPIN = 1
I -2.827884021468888 -0.5501010735481683 -2.4137239465034015
C -1.885332118158064 -0.7794187069841053 0.820450630607888
H -2.366807163590882 0.20066633698209888 0.7705702022476572
H -2.654664396361141 -1.5630892379997248 0.8590513284239707
H -1.2710068031630117 -0.8390876990058753 1.7193434912022867
O 1.8753499220542158 0.7256054258874512 -3.0426063630899804
C 1.0298250039161585 1.0098275197432727 2.5283550161972315
H 0.6638517779411484 1.1177166039811635 1.5146341811549322
H 1.2239133742317934 -0.029788480527518833 2.7589482776798393
H 1.9161806845077178 1.6104912913162701 2.6790442938260774
H 2.3272338536127966 0.3607471917377582 -3.8319638965565797
Rh -0.8130013446803838 -1.1238240529220016 -0.8883514127644417
I 1.0261588081076334 -2.475980989006854 0.3293568921405549
I -0.4863837946191171 1.7159471623414884 3.8541921839117332
O 0.6914776655580257 -1.1732374819044327 -3.0277923779058713
C 0.9622113362192275 -0.0789055464071556 -2.552639591077058
O 0.34792172384387654 1.47363804167656 -0.7647788000752956
C 0.2409554920488944 0.3987936946399209 -1.3120901094195387
