13
## STRUCTURE-ID: 64568c038b355f5ffb750ef3 ; CHARGE = -1; SPIN = 1
I -2.993950755047639 -0.3545431028953494 0.04423106974010243
O 0.3162708290761089 -1.7808260157769726 -1.0454599191821468
C 0.6847634630248394 2.2649117524794815 -2.0695764787283246
H -0.03577520603030332 2.005256168185971 -2.8215843522190784
H 1.709157679933087 2.486521486059162 -2.3028994755078926
H 1.0975882231035463 -2.1573894226570016 -1.4567332649932503
Rh 0.3795167607880509 -0.5468075629859217 0.5895158666764212
I 0.1676413432110986 2.019785298417156 -0.1214351387775493
I 2.989113551655669 -0.5913053293684805 0.5158240002104078
O -0.8415399936571354 0.23581874196883043 3.279990071223446
C -0.43014589979549656 -0.09784497061162663 2.212131154429411
O -1.631995334749588 -2.2873210734798666 1.8105958755863547
C -1.4106446615122292 -1.1962559693353674 1.3654005915420824
