17
## STRUCTURE-ID: 64568bcef7c5bc4fb15b5c1d ; CHARGE = 0; SPIN = 1
C -2.210374972567771 -0.5003352049460412 -1.1224646995979932
H -2.3172443095447854 -0.5106493269640179 -2.205875328869084
H -3.0132251041090896 -1.0881523598832776 -0.6721767276871328
H -2.3308608339691013 0.5456915555659844 -0.8161526734568574
O 1.2902202365120763 1.2345994662574789 -0.8622617912062898
C 1.396530403845439 1.1845867766362836 2.8883277099980886
H 2.1395922924321114 1.312326725250031 2.1096395236573495
H 1.560160443484618 0.2609032532959575 3.432010952429421
H 1.3535565844683572 2.0403426255126957 3.5512903227487342
H 1.825247654491634 1.8131692106259438 -1.446842645994362
Rh -0.29668273365369474 -0.7836468933704586 -0.11363586804407323
I -0.5264456807177715 1.033939506023382 1.904434593837691
I 1.872343538550381 -1.9281005511336564 0.8478063017934084
O -1.1769033259134627 -2.891462347344778 -2.0188429447095304
C -0.9028896259193265 -2.001451487889718 -1.3441947298035741
O 0.670666016863611 0.01955044422400419 -2.6530896888055437
C 0.6663094157467917 0.25868860814019223 -1.4779723062902463
