19
## STRUCTURE-ID: 645679fa1a387a31854d91f1 ; CHARGE = 0; SPIN = 1
H -3.6664456855939798 -0.7971600072439319 1.1472751673818307
I -2.186197350555497 -1.3542011096777862 1.0982195421774372
C -0.07757328309427117 -1.0812497663927456 -2.5336765455568897
H -0.5252391359050463 -0.10777837342365065 -2.690406064038141
H 0.04511969804819904 -1.2639420963121566 -1.4723719820417758
H -0.7251991816514004 -1.8424797280239213 -2.9475350091533157
O 0.671151781469753 -2.0317705014946617 1.0172217642538086
C 2.6115150909325027 0.4696191087016695 -0.6057707738010564
H 0.8868795671374592 -1.1231388262307855 -3.0220846907805767
H 3.584205892621312 0.07676283895989928 -0.8385188624441774
H 2.0165232379984004 0.9033620662560131 -1.3884263164800552
H 1.1995555408738776 -2.78174726036646 1.3044510355725691
Rh -0.4238197213898118 1.1540247992896266 1.6482568179688277
I 0.07454522669595004 0.4485447985503967 4.150409308048292
I 1.7266676979176658 -0.2037840697047308 1.035635214789421
O -0.7057698652780248 2.205161561957105 -1.1346158308992125
C -0.6164970175559226 1.821469331128201 -0.06267563316055788
O -2.2936048702133642 3.121798516531163 2.909426087813037
C -1.5958176224577933 2.3865087174967536 2.3851867703505354
