12
## STRUCTURE-ID: 64566b85bebf1b3a4e092926 ; CHARGE = 0; SPIN = 1
O -1.583105656100531 -0.13237651361091418 -0.3405022690611271
C -1.0987492458500927 0.9686960942915122 -0.8123521683607959
H -2.335236208784719 -1.2345007424457357 2.7072630686209975
H -2.240915152775946 -1.0837135655737997 1.9487130905456393
H -1.7167467418855173 1.8623453017283964 -0.8135788033942799
H -0.4012187803308029 -0.5192513257729714 -1.0116989062348238
O 2.353683570371749 -0.5985075795855006 0.5957575267102231
C 0.15219274410567815 0.7792762622081927 -1.3540658534898615
H 3.2236140326389537 -0.9378080851560351 0.36965795322540224
H 0.5869772837578194 1.464748248702537 -2.066867653077459
H 0.9056489862516102 0.331109071673196 -0.7076378252549871
H 2.1538551686018166 -0.9000171664587936 1.4853118397710436
