20
## STRUCTURE-ID: 64567a026454ba747a4975c1 ; CHARGE = 0; SPIN = 1
H -2.1030590432390897 1.3638699680330215 2.7183355657930006
I -4.433820344825256 0.1574102406435397 0.1998743764022615
O -2.1566669340378692 0.8617424298317938 1.868874471991047
C -2.8343052528087895 1.5345954502166306 0.8351524448598668
H -3.344473672557579 2.4438648583309766 1.1614153476798168
H -2.1992240070917215 1.666551929359033 -0.04816729857944191
H -1.259413436231435 0.5303248229656734 1.5555975588063804
O 3.0892028933290363 -1.7906844007836629 -2.30867930553871
C -3.1155149868484737 -1.5323988299427072 0.2298420967237455
H -2.1977683598845736 -1.213424436699203 -0.268474418935424
H -2.9723548167099043 -1.7971705510066172 1.2738235358183168
H -3.6184825265495375 -2.3235389211586837 -0.31714368675420435
H 2.8431383590490142 -2.27101429094704 -1.5013756635970208
Rh 3.1445481845733045 0.48807624524431664 -0.38243605498595123
I 3.101873190349986 2.2882066278979853 1.5457661504576583
I 0.6093275321028653 0.2136729414694878 -0.29827229834922925
O 3.380724850203513 0.2647703298184237 -3.103623650455666
C 3.198166201693901 -0.41136471313277545 -2.082140076861252
O 5.969632608583076 -0.465340474703716 -0.6340436520799283
C 4.8984695608994855 -0.008149225436485254 -0.44432544239529287
