12
## STRUCTURE-ID: 6456687e80942f023b3dae5b ; CHARGE = 0; SPIN = 1
O -0.11323415250213623 0.27228529347085295 -0.08881199292430608
C -1.2987441987461832 -0.1815629319787818 0.528189601724393
H -1.2838697657242364 0.19300815472245494 1.5490078948692667
H -1.3414143831148753 -1.2762819050228376 0.5386868809652752
H -2.181055857809155 0.2050542635506833 0.006792120813438785
H 1.468450103619654 0.17355616712837257 1.0166346107181827
O 2.253394124219838 0.23888164793011002 1.5806867957635762
C -0.011370133283406957 -0.12806503664564511 -1.4382450831141824
H 0.9174928985664607 0.2885791283003382 -1.8201382527774383
H -0.8545931840773354 0.2562562822436756 -2.0219397833161152
H 0.012718864238434584 -1.2199913837140939 -1.5229445560330044
H 2.432225684612944 1.1782803200148522 1.672081763310894
