19
## STRUCTURE-ID: 64567a378d8e9d766233a751 ; CHARGE = 0; SPIN = 1
H -4.2748228082643625 -1.2359038355826921 1.1618542616542609
I -5.1570546255169765 -1.016320606266887 -0.11787175621716492
C -1.1582010488211247 -0.7180304360106112 -1.6867224455371037
H -1.0336464910783374 0.17984948609996068 -1.0562628145677875
H -0.8620914702290708 -1.610542540185227 -1.1453038176038843
H -2.201994550810768 -0.796094083213867 -1.9625504452932434
O 2.567935729005314 0.16255997057873298 2.1730102608496433
C 2.499620975442128 -1.4517562996557836 -1.0095455809050276
H -0.5535577841921638 -0.6164508421904096 -2.5777825028335672
H 3.144477828148674 -2.309455303122607 -1.0689667971826282
H 2.5449597929933288 -0.6870945991619833 -1.7632150951344676
H 2.899038902286751 -0.33012644333603197 2.927656796723442
Rh 0.13214122491153796 1.0712811926260704 0.8728297385234209
I -1.4324318192920524 -0.2793281402104836 2.429922348213596
I 1.6355553215682754 -1.0597656200207919 0.7294506567415934
O 2.236419035660681 2.6102290508073023 -0.5844114407194076
C 1.393351292602443 2.0333879134510378 -0.07196246634930085
O -1.5068343481533732 3.4800393484182472 1.515479527121607
C -0.8728651562609058 2.5735217869760243 1.2343915725160315
