18
## STRUCTURE-ID: 645670697bd33f39801d80bb ; CHARGE = -1; SPIN = 1
I -3.6354844693675736 -2.498839700082968 -0.13762810616676288
C -3.5089054582458563 -1.8202077911388008 -2.162963833119388
H -3.2923714727707165 -2.6791646853094107 -2.7827993670511937
H -2.70903783111179 -1.092126830858412 -2.21627337898271
H -4.461215531369687 -1.3772379746899854 -2.419889954652812
O 0.6255834030979814 2.187238180593608 1.2263366215376768
C -0.19445246654788892 -0.8471035347408147 2.0815070823721813
H -0.7800595398829571 -1.466515777207591 1.4135453954611814
H -0.3772260485617905 0.20647222078526176 1.8947766213176398
H -0.36700815554412214 -1.1040057012553248 3.1180039883602366
H 0.940595668879401 2.8129033120865667 1.8813561478657275
Rh 1.9507447399546 1.430902267805968 -0.16999929568264505
I -0.0800234956814488 0.48686052623172343 -1.5179374862619193
I 1.8866910696048251 -1.1960594615435653 1.6500004072668826
O 3.9072689583942646 3.1663658105630836 1.2662414099287551
C 3.217545834108624 2.44713925218269 0.6804428814945247
O 3.795172209533356 0.5075984996625593 -2.3275274570208504
C 3.0821825855106546 0.8357813869154833 -1.4771916766667652
