14
## STRUCTURE-ID: 64567af4aca0fe23b0112984 ; CHARGE = 0; SPIN = 1
H -1.479107356759212 -0.15332214204281946 2.0656603877458166
I -0.851432733264569 0.7072975235624654 0.877664114730942
C -2.587967176676659 0.1691804129303224 -0.3206621790622348
H -2.5392402977473676 0.6986482778451659 -1.267866345387503
H -2.5884446710891753 -0.9038011424250069 -0.48995569122614746
H -3.4712813574401618 0.48146409220001896 0.22951689257139962
O 0.7223753946240618 0.8277121904484466 2.5545941400746455
Rh 1.1791299603402712 -0.05920980655729783 -0.5653110492779223
I 0.4238752880461133 1.9462295760777788 -2.0672000932012295
I 2.378432096338119 1.5419500202716674 1.8351281246062463
O 1.7271258040570587 -2.3911514668211615 1.2225550727986225
C 1.5293421561203966 -1.5343072242263596 0.49391720532142475
O 3.151581756163607 -0.783322827353972 -2.697419096890992
C 2.4056111372875204 -0.5473674839092483 -1.870621482803076
