21
## STRUCTURE-ID: 64568dda4bfce068c37c7c48 ; CHARGE = -1; SPIN = 1
H -3.5837943366199916 -1.3671149549212207 0.8064285047330757
I -3.2300064432275932 0.7223688683772673 -1.805955767290645
O -2.6794452049776356 -1.3489273162632103 1.1493579140626524
C 0.09627128474472067 2.673962978737084 -1.3666211423482828
H 0.6199570471771478 3.048293549309511 -2.2458378090331887
H -0.9428165572931161 3.000613958355217 -1.3809985363211972
H 0.5644099846784546 3.087701514103803 -0.4717124045840856
H -2.7573377185131114 -1.0666889812610767 2.071070670355185
O 2.682785082805274 -0.8930226245337327 2.727978215350911
C 1.943391734468297 -1.6716909657635035 0.24623351683914377
H 1.3897920749185613 -2.6033273756268747 0.2637477622391603
H 2.919259329759143 -1.7996268962501467 0.6883007001008399
H 2.017318858502289 -1.2853212522576385 -0.7640280998118829
H 2.6573429432823463 -0.45409524976214244 3.5775844179242475
Rh -1.1017767839491082 0.16840960316884884 -0.249558343207502
I -1.5325755929332046 1.9281803887029711 1.6567535882917648
I 0.9245829681260547 -0.25494980729538036 1.4230936069818199
O -0.5746072487019015 -2.3122853042766858 -1.8112208075438325
C -0.748297771161043 -1.3369816160612993 -1.228388977904695
O 1.0970095446068329 0.5854043944447562 -1.9474764938039508
C 0.23853680430756877 1.17909708907336 -1.3387505150294523
