19
## STRUCTURE-ID: 64568f380228e33e0732bada ; CHARGE = 0; SPIN = 1
H -1.4489599617885935 -0.9470361729553666 3.133005321512952
I -0.7475647963173222 0.0038422541322738106 1.9225947137957582
C -2.416443585029984 -0.6273189274573914 0.7949781376237577
H -2.312379913220718 -1.7059038932738808 0.6840674023852195
H -3.2884982782890857 -0.3465984645409866 1.3824950027001952
H -2.389110242934792 -0.1297466200194183 -0.16642562319218324
O 0.04575567803798725 1.1636076643864692 0.29768356161633236
C 0.7942574805006314 -1.432521666457317 2.0015076858229337
H 1.0979623993686403 -1.4672398375716134 3.0451025882045886
H 1.6072948504916211 -1.1092705221859518 1.361235742465908
H 0.3559979067681127 -2.3654705526266007 1.6524488237850656
H 0.37570138884074894 1.9445993944317133 0.7579888474533691
Rh 0.9676577547898306 0.9337649574240802 -1.7130553576879763
I 0.12295518896890872 -1.6627602742009344 -1.581830552509614
I 3.4043094501572857 0.5848529374300243 -0.4036819518250557
O 2.2416074112341153 0.6294414726963519 -4.376665856220314
C 1.7315460922753712 0.7558678430642536 -3.3442699331803873
O -0.2769985738825457 3.3266289642994815 -3.0437566816040387
C 0.13490975002975295 2.451261443424859 -2.403421871146534
