8
## STRUCTURE-ID: 645663a44076364c8d2abdd5 ; CHARGE = 0; SPIN = 1
H -1.715142251550478 0.032163182826930696 -0.14526623344899842
I -3.157428520758245 0.06570201713264674 0.5216815345449692
O -0.006927898030057669 0.06376214309982473 -0.7684691786361225
C 0.9658264027848648 -0.17926977994238144 0.2315085882945949
H 1.0762290243004233 0.6833534682002503 0.8938862635063908
H 1.9316768128200945 -0.42450877735993114 -0.21360462350861703
H 0.6159159827608137 -1.031451723892653 0.8117408791504557
H 0.2898504476725791 0.7902494699352933 -1.3314772299026671
