18
## STRUCTURE-ID: 645670eefc58367ffb462264 ; CHARGE = -1; SPIN = 1
I -1.5766096000516412 -1.622435389400746 2.626055525265827
C -1.400769418183941 2.237078469340106 -0.6027492092116578
H -0.538357861583236 2.316550951496336 -1.2621399145952188
H -2.230344473241858 2.7859013318372305 -1.0407063470156162
H -1.147275423558702 2.6911108810841906 0.35366357133947585
O 2.8425998462354616 -1.113593711638441 -0.6237624362061128
C -1.7926666568777534 0.7848185917336458 -0.42194037458506345
H -0.9187233987665905 0.21284624263465407 0.016373165963594907
H -2.6333670776657225 0.6724679491672837 0.26197168802299564
H -2.0389695012790745 0.31432485198806 -1.3730077916386607
H 3.441518767174208 -0.8190912309488937 -1.3433627902591176
Rh 0.37678883197279345 -1.0646889594180804 0.7639232101805956
I 1.4244626200767176 0.9779379227912893 2.1143821408819794
I -0.4380538660592703 -2.8901697927872614 -1.000259833453502
O 1.329043630193479 0.28914348994189937 -1.4958289368778097
C 1.6576865565358792 -0.5247987864893696 -0.6677834807870868
O 2.152248219958209 -2.9999824744295966 2.1226661346118427
C 1.4907888051210254 -2.247420336902326 1.5725056783634825
