18
## STRUCTURE-ID: 64567490418b2513f332bae0 ; CHARGE = -1; SPIN = 1
I -1.625507636446843 1.2853807471417855 -0.138324541916469
C -3.31469811422729 -1.5103870806202988 0.15484257075138264
H -3.7877008498007583 -0.7659058833571982 -0.45022568523531314
H -3.8088923370217067 -1.8552028801213993 1.0384865656857627
H -2.5112000140253965 -2.090378219316391 -0.25064986659027344
O 2.192540885479152 1.5601074592039041 -0.3223644822312465
C 0.7397257624809197 -0.6166803815917531 -2.4833424147190217
H 1.1154378801296307 0.3890461977677064 -2.340874761648553
H -0.32854831959508884 -0.6060738710841164 -2.6666086500760686
H 1.278688055662174 -1.1374473884175422 -3.2642935395624586
H 2.746794880800657 2.3154416221764627 -0.602110663450705
Rh 0.28389376018030693 0.42013703501192123 1.4304858103198013
I 1.0816281197456403 -1.6862230537471181 -0.6296492378835485
I -1.3629133720281859 -1.2292394458815497 2.727519010916313
O 2.651625851456551 0.35131955880546994 3.2416568749241352
C 1.7056699613734099 0.2990965183847707 2.5662727565726557
O 1.5136929000351558 3.0035782969961273 1.2310153707240632
C 1.4297625858016985 1.8734307686492309 0.7581648834195415
