12
## STRUCTURE-ID: 64568ec47454f17df264e480 ; CHARGE = 0; SPIN = 1
C -1.2636262316687796 0.03650863658455236 0.33892058774894435
H -1.333078832716009 -0.5539848090760141 1.2551825017145914
H -1.7220590836637204 1.0154947417826423 0.4708208304057616
H -1.7866008443228252 -0.5063316202427005 -0.46897138164959445
O 0.48247350426747304 -2.082697993130663 2.356058995923726
Rh 0.6576071401367671 -0.09987531142392735 -0.6516114993501513
I 1.7373133365266518 -1.209452988979778 -2.711481234246087
I 1.2190142746657033 -2.2732870860889687 0.6669519958273753
O 0.6500998353340495 1.2301189195653377 2.0073705753787894
C 0.5420956222129755 0.737830436409577 0.9897740381499679
O 0.3832070902694411 2.284218720788639 -2.4895824470212102
C 0.43355418895827513 1.4214583538113068 -1.7634329628821037
