12
## STRUCTURE-ID: 64566b7eaa3bc756f35c71bb ; CHARGE = 0; SPIN = 1
O -0.11743111593849588 -0.27428943159749825 -0.02617662362594158
C -1.2355078431878115 0.25944630089035686 0.649999658661664
H -0.9440796260064538 1.1060058243031268 1.2813789459231149
H -1.7135548465096098 -0.503302855406638 1.273999348847654
H -1.9323569646983456 0.596574970473165 -0.11373600003385284
H 0.47845630237515036 0.684428295547718 -1.5877884783393035
O 0.7293636544230505 1.0868993949802663 -2.4326287993343407
C 0.8741827216109371 -0.759170734561871 0.853316352909687
H 1.2568632949482996 0.04350482488920833 1.4932187336815608
H 1.6792359621347102 -1.1479913816968312 0.23429942546790772
H 0.4758003850433748 -1.5600373936023695 1.4853871214412717
H 0.4490280758052058 0.46793218578137413 -3.111269685599426
