33
## STRUCTURE-ID: 6456be6d4beb3904a0351d6d ; CHARGE = -3; SPIN = 1
Rh -3.0213280191883927 0.9768484487889187 0.9878330525839389
I -4.8364562658592005 1.4503022016298714 -0.8607401760614012
I -3.9212776338568314 -1.3387373966542662 1.6267113605309798
O -1.2680134779095362 1.6054892456521974 3.3162000992210365
C -1.9893866860048213 1.1851149283715163 2.5006392364200734
O -2.3289720772301252 3.811739835079189 0.34811782004554903
C -2.572522630927952 2.692325113812055 0.5664538218817733
I -2.105292295979783 -1.2305577761950892 -1.9466123663121224
C -2.620739354508663 -3.381629312808172 -1.807618483459734
H -2.9484261578338917 -3.6783341125461764 -2.797876945260917
H -3.4096824320751367 -3.4572475872596207 -1.0648663718440396
H -1.7169652816985812 -3.8880588691465743 -1.475637518921279
O 0.0031843947285568313 1.4981957594702973 -3.1330592523500336
C 0.33782873237895145 2.288671905499253 0.7591154183366754
H -0.08790631639818143 2.7642843987220367 -0.12276352418923239
H 1.41172713394768 2.45351214208355 0.7514750279625435
H -0.072978572608131 2.7233374519255986 1.6698517173362903
H -0.49434340044500014 0.7818719843130659 -3.57229802665814
Rh 1.7357632580156515 -0.8259629802275597 2.339797239088634
I -0.024895948249637496 -1.5994497918576602 4.126822570450122
I 0.08724723122408871 0.24927555444901947 0.7001297295075888
O 3.2801911661879433 1.3704300091075061 1.3302867431120398
C 2.964131706246397 0.17612879738554832 1.1680405146424835
O 4.342380372720064 -1.26344795469356 3.6979490284597336
C 3.276097610102598 -1.2056025059595257 3.236498839855023
O 3.5110936257186505 -0.4835108589067022 0.10741057376582623
H 4.135833910211431 0.07480563616703474 -0.3935315861930337
Rh 0.7993311356061448 -0.8049591680812688 -1.5319930161059891
I 0.5693846160685191 -2.776114511099788 0.2942861821216108
O 1.710942015448896 1.892498586173117 -1.7945653484554933
C 0.9487821485927892 1.0267304465960283 -2.2372454600578346
O 2.5107511608558437 -1.6733380345896125 -3.8258839771695
C 1.794516332719614 -1.4146115852003363 -2.9629269222832493
