13
## STRUCTURE-ID: 64568a93119f4e2a274d302a ; CHARGE = -1; SPIN = 1
I -1.1846956636530257 1.8855526733264563 -1.8952466200362899
C -1.3563148350938832 0.27180052812451 1.3542085821430943
H -1.4409741311665583 -0.16683774091335077 2.347960810028638
H -2.112661744696181 -0.14644096449675736 0.6936346101682527
H -1.5303171603440018 1.347703502114693 1.427741405956965
O 1.780386930465009 -1.5832568505533229 -0.8660911666756983
H 1.3944255947821242 -2.4509776028037806 -0.7110531661707471
Rh 0.3460483401103753 -0.1237536467815534 -1.0874930492766532
I -1.3817985700282442 -1.9976082071064818 -1.6546295199066434
O 1.0116512364314545 0.07729400358833988 1.6143479477861185
C 0.06300206023284113 0.0898676770896475 0.8863653848520057
O 2.665681222676177 1.7381760736483562 -1.0775802956030447
C 1.7455667202839154 1.0584805547632261 -1.0321649232660068
