18
## STRUCTURE-ID: 64566ebf2a2a7d35e628a827 ; CHARGE = -1; SPIN = 1
I -4.531016987877867 -0.5902411426093165 -0.8197283651429075
C -3.3619190700215027 -1.69616310730964 -2.2267280397448443
H -2.306444029374773 -1.5106681722204547 -2.0257155546106547
H -3.6270421023065356 -1.3534899923372934 -3.2177198814026218
H -3.5965929456816017 -2.744291160803749 -2.099374255699744
O -0.36139881335962243 -1.2173401505279422 -1.707736488222424
C -0.5632859037700443 0.41430498143211236 0.562324242445028
H -1.30816662494947 -0.02136802303185276 -0.08390479275765957
H -0.6446203768385032 1.4949340823888702 0.5694585436643803
H -0.6456143678007592 0.011938549807810969 1.5651244407043126
H 0.11125670911955646 -1.702310294581115 -2.3840497847588398
Rh 3.0094375239706714 1.0385752331435347 1.3603894479816376
I 4.784571497022112 0.0125902415443686 -0.20270673617200174
I 1.3309176605928266 -0.12393565963634592 -0.24031443509148254
O 0.7528978629977174 2.1054735622178002 2.9984285725436375
C 1.6234804281330328 1.6937358393622053 2.3665962972258345
O 5.041353453014932 2.3523960029446593 3.140130385642188
C 4.292186087129846 1.8358592102162765 2.4455264033961797
