18
## STRUCTURE-ID: 6456716609bc9068351a562b ; CHARGE = -1; SPIN = 1
I -1.4883507103423728 0.6114742016424741 2.7331959142398636
C -2.206591949216283 -0.21525203555381528 0.9130448315423522
H -2.6369775999106118 -1.184679872893193 1.1305935517085757
H -1.3519996437526451 -0.34600349736841496 0.20695391847396372
H -2.9452511108250463 0.46118366442056236 0.5002239258897682
O 2.2051044249472813 -2.448829617476747 -0.4397397775306506
C 1.0977991735902266 3.0975452566343344 0.6255285190000122
H 0.6379626647471345 3.366859347401685 -0.31986754435644316
H 1.9750394620582192 3.6999990356374783 0.8263578923508842
H 0.3841089351370558 3.154490668171938 1.4402808520568828
H 2.4587364183515987 -3.218906850149224 0.10668969493509961
Rh 0.28891696368179354 -0.46227893847936646 -1.122503095719746
I -0.8585723264847578 1.5697702120475365 -2.3841454527448236
I 1.7595611050125046 1.0151966016572922 0.47527965442768866
O 0.31602117043353245 -2.6227177959970516 0.7312951764811761
C 0.9490599464834796 -2.021676339700291 -0.13623405397732968
O -0.40255285977253397 -2.683571585476084 -2.9898132560888335
C -0.18201406413858576 -1.7726024545191021 -2.297140750688439
