12
## STRUCTURE-ID: 645666788e758d67416cd4c4 ; CHARGE = 0; SPIN = 1
O -1.7589752488885828 -0.6499575462727234 0.09631885130159623
C -2.124387982995736 -1.0938654500409646 1.1463267235058823
H -1.5710484743809343 -1.8785217699087458 1.6815171900782189
H -3.036447561107894 -0.743411124144494 1.6500457784666072
H 1.4457825342806931 1.9276013639311953 -0.35194728369693684
H -1.6208173760903892 0.7711688079954767 -4.117019539914055
O 1.5941302299674194 1.3826743057248907 -1.1320123620731704
C 1.5791532954372278 0.023620987572153744 -0.7611555840598707
H 2.3014692659207987 -0.18976598759232785 0.03324114663842336
H 1.8458282619277735 -0.5442266035325194 -1.65061671923356
H 0.5872951224793632 -0.2786319013557157 -0.4074800728823434
H 0.7580179334503059 1.2733149176238199 3.8127818718691273
