12
## STRUCTURE-ID: 6456676650ccc61aeb333be8 ; CHARGE = 0; SPIN = 1
O -1.950737539980905 0.5515890292704767 -0.45728949269539504
C -2.0361724337676455 -0.06218336151654525 0.8103648316634449
H -1.9565740471833277 0.7341131082568159 1.548673805150219
H -1.2194089810249402 -0.7746599452897517 0.9639615009216643
H -2.9927377465691674 -0.5752866586338123 0.9445340076584923
H -2.0775320575501666 -0.1214832403818501 -1.1364712795267318
O 2.0523269654626928 -0.4597992063443664 -1.4067712372850794
C 2.0704591470348834 0.02594699879679629 -0.08176717465622917
H 1.1141337828534725 0.48267653663353427 0.18977283550236784
H 2.8728977971873753 0.7555486232761018 0.06557374107611418
H 2.252713570500867 -0.8329318610511994 0.5622227620016378
H 1.8706315430368705 0.2764699769838071 -2.002804299810506
