16
## STRUCTURE-ID: 64568e0b17a9857eed671000 ; CHARGE = -1; SPIN = 1
H -3.101908350385974 0.5352976467218311 -1.194350598148555
I -1.4588142554485184 0.34018803672743353 -0.7908445218356418
O 0.2314982770369457 2.1991474311044152 1.6034512273527746
C -1.9014972830825136 -1.6717264899422932 -1.4936206043597355
H -1.140515267626572 -2.327685466050083 -1.0829635184268183
H -1.8401778082770026 -1.6480113964750276 -2.5784003924013823
H -2.88822183721447 -1.9352526557800749 -1.1266196306446359
H 0.1688181057809977 2.1775195195680297 2.5752735505277293
O 1.5503022950510774 -2.0701059345274997 3.003538556465814
Rh 1.046756993803757 -0.04940238797843154 0.12632174055414977
I 1.5824241006664965 -0.9258547595434751 -2.2705867325632028
I 0.3936565518326733 -2.2078343378343 1.5104671701265702
O 2.350052951865065 1.4825584461347352 1.9751797061080107
C 1.4642689265619002 1.8226173426463534 1.1733663509536578
O 1.949606484991371 2.5491344684597075 -1.1228963570193506
C 1.5937501144447674 1.729410536768671 -0.3073159466893796
