13
## STRUCTURE-ID: 645688646b1aec2ced1a561a ; CHARGE = 0; SPIN = 1
I -1.2158165679299255 1.5793878262326737 -2.289756010282783
C -1.2024375629193138 -0.23375220522204826 1.3817120472911693
H -2.1287733730668337 0.3385095994291524 1.4831558099059687
H -0.8676940372876738 -0.5171338509106124 2.383019807148272
H -1.401794948545864 -1.1334970336920325 0.8016786748493496
H 0.13592626797551677 -3.375475127799222 -1.1364442758448083
Rh 0.5918537650843646 0.15378438925317786 -0.9834033338574709
I -0.6044328395305495 -2.1716358595588003 -1.8686127882712689
I 2.5465097544259705 -1.1608956727282134 0.19957296990080017
O 0.23002866099788216 1.697177516516786 1.3077930973307257
C -0.18235110543045593 0.6943243493722966 0.8349867317816314
O 2.404850971054539 2.5069123974534144 -1.0995989948865972
C 1.6941310151723497 1.622293671653431 -1.0141037350649909
