12
## STRUCTURE-ID: 6456881f33e3d41e0d3ae5dd ; CHARGE = -1; SPIN = 1
Rh -0.3408518934833297 0.3890281901109829 0.530227943353612
I -1.8042246261392452 2.021537619634586 -0.8982124320572948
I -0.07785936543252901 2.106613552807182 2.54333239432695
O -2.4833621458073365 -1.374361315417076 1.0135635489189572
C -1.4526434118522187 -1.366052740032208 0.41368137852578923
O -0.2656945495704135 -1.6956580453859658 -1.6902433459215627
C -0.6331279730083339 -1.1445780503870784 -0.6906797539987839
I 0.6654596995267295 -1.7404472150388948 1.9181855657028883
C 1.37729361983362 0.6510965496772031 -0.6498139548056249
H 1.1232263016259392 0.8063606458857799 -1.6983950830725578
H 2.0476933316239534 -0.20408748843685703 -0.5579120396776499
H 1.8440910126831649 1.55054829658234 -0.23373422129472998
