12
## STRUCTURE-ID: 6456674cfc65b06fa44609e3 ; CHARGE = 0; SPIN = 1
O -0.3270592017398092 1.3687121372764457 -1.2454936118167523
C -0.763473469273939 -0.2941953591655871 0.7849372197899271
H -0.8798386967807273 -1.3483054458684962 1.0266730093760736
H -1.8011110618898107 -0.04889024959753105 0.46785364944216956
H -0.5798836814495503 0.2795084559883121 1.6898969704713909
H -0.37831971525964414 0.9882479556054116 -2.1273704803150353
O 1.6207360379319835 0.46966577197116377 -0.13768592075927127
C 0.9419339461577229 -0.5889628081665392 0.20289926723211105
H 0.7795248896792698 -1.3299506113749815 -0.6026116934065742
H -0.6178965597333557 0.4131903688427829 -0.2712685854688066
H 1.326788312977156 -1.0902173207127046 1.1008906790616804
H 0.6785991993806985 1.1811971052016685 -0.8887205036068483
