12
## STRUCTURE-ID: 645664e603f7d1667d3288b8 ; CHARGE = 0; SPIN = 1
O -1.2785624250536132 -1.3353187157172473 -0.5334121599418462
C -1.6650657653540992 -0.058151772557706684 -0.9965000514505015
H -1.3243614389675087 0.7310850851020293 -0.31917252886280095
H -2.7493408885225645 0.012846079804160904 -1.1205207367541308
H -1.1918180718349616 0.07802763957722325 -1.9674862991479585
H -1.7379253453038304 -1.5149991875767863 0.2954946860626584
O 1.4995527790804442 1.398196180030252 0.5523248778702489
C 1.6182873135757476 0.06334476826555521 1.0001333392296845
H 1.0651238672714907 -0.6260889695138167 0.35541851982083517
H 1.1939287781943324 0.03383797362361556 2.0023448058810995
H 2.665287472482833 -0.24992904262712765 1.0513999929538747
H 1.9048937244317394 1.4671499615898436 -0.3200244456611665
