12
## STRUCTURE-ID: 645665ad025d3e71dc2eaab8 ; CHARGE = 0; SPIN = 1
O -0.05505608498322893 0.10230370956042924 -0.2508307399102002
C -1.4013536966229576 -0.25928097100482367 -0.03006075716810853
H -2.0790961840179905 0.4403168250146396 -0.5305798810549738
H -1.6327873093795788 -0.27474431035398367 1.0404880764476567
H -1.5305292111460371 -1.2558648832239527 -0.4456735513256964
H 1.2688294590863602 -1.2704879679763734 -0.04720643757447774
O 1.9534802312266402 -1.9545412150077424 -0.09335074559894256
C 0.2593457390985051 1.3832738827642443 0.25164380223539307
H 0.11158485255590322 1.4260464751731634 1.3363787910601905
H 1.3062244581113773 1.5633229231558254 0.01818875988206682
H -0.3609716720071006 2.1510331018633084 -0.22314785286115935
H 2.1603294180781054 -2.0513775699647296 -1.0258494641317486
