12
## STRUCTURE-ID: 64566581f7fa446224374190 ; CHARGE = 0; SPIN = 1
O -0.8143201798727292 0.39554631675603563 -0.20326002514295521
C -1.489478932771519 -0.2125456969026178 0.8230392323753112
H -1.296641949777496 0.28856948320768167 1.786182539322129
H -1.2283521956656502 -1.2785016444136248 0.9295747827953621
H -2.5719881571836822 -0.15201323904355313 0.6364713879964279
H -0.09899189038333366 -0.3855482182715904 -1.1522142747831712
O 0.8392207797811029 -0.6619255374620718 -1.5045592864577246
C 1.268937887388229 0.4373825009375498 0.1025975334872256
H 1.1162643477652177 1.4845462458970926 -0.08819200709139108
H 2.2481378357837354 0.0653521142590243 -0.16738148530212021
H 0.9659004287259358 0.10098848593761486 1.079423094993076
H 1.0613120262101934 -0.08185081090154342 -2.2416814921921713
