12
## STRUCTURE-ID: 6456666f90a6c12c1e2648bb ; CHARGE = 0; SPIN = 1
O -1.6607633223967664 -0.5824056450708385 -0.7322955323683356
C -2.682495058757453 -0.08228474016880184 -1.1313213139799674
H 0.5432944584198183 -0.24059007836339383 1.4129456517794496
H -2.9667213550551965 0.9470682494258728 -0.882621350678752
H -3.3786423837153894 -0.6379357587809983 -1.7666093808614132
H -0.5225224153268868 -0.022969855448151732 0.1515591568864913
O 0.3305513483748688 0.32449337329780054 0.6426864112490848
C 1.4349741000474225 0.31970925386627785 -0.29462441083267443
H 1.5601206819608895 -0.6584189377027713 -0.7551157908435867
H 2.3434970511855124 0.5926465617861594 0.23690525365130993
H 1.2160628360546668 1.0690271644010498 -1.0516102108191285
H 3.7826440592085047 -1.0283395872421945 4.170101516817516
