12
## STRUCTURE-ID: 6456676229d6205f4f3ae5e0 ; CHARGE = 0; SPIN = 1
O -1.6375357762782552 0.2344846485021549 -0.576664238884147
C -1.3443146099961305 -0.1829495224056595 0.734267524543227
H -1.5094897126310858 -1.256354334999668 0.8641300877443524
H -1.9282212244608632 0.3652473974105442 1.4784936933828727
H -0.2886760767124783 0.031282045438006285 0.9191426209859948
H -2.5806376963840143 0.11145663573272853 -0.7437068566274768
O 2.191683419453897 0.47716523085662993 -0.13229752980156684
C 1.2815862416292634 -0.11210462433697155 -0.8564629535054736
H 0.43843936804195016 0.45693850487672366 -1.2709218286396167
H 1.1599774987068445 -1.1998378537136758 -0.784509155804233
H 2.4345419014367096 0.29897409481801857 -1.2756069462729756
H 1.7826466671941794 0.7756977778211962 1.6441355828790605
