13
## STRUCTURE-ID: 64568cde0e0d3c15b456edd4 ; CHARGE = -1; SPIN = 1
I -2.579702009652852 -1.050078447852856 1.1653878110829958
C -1.0340311714063077 1.1223998930717842 -0.8603567888604237
H -1.465268662135472 1.7477817405895333 -0.06611396762730627
H -0.32797081646150145 1.7596451433402425 -1.4068938460593328
H -1.8581370190430142 0.9024924668784996 -1.56187868908903
O 1.849640532121509 1.0855568943722176 0.5056686895778763
H 1.963206133614664 1.0726849470308135 -0.46590272043383035
Rh -0.3057422109342187 -0.710080123987561 -0.17901918732445027
I 1.3008742021063926 -0.8766308789184886 -2.267711320927955
O 0.7345188197046231 0.18320913877209508 2.183271406441334
C 0.9068976228086909 0.3025165297664636 0.997503690806474
O 0.5563154026335111 -3.1825010824472715 1.3468903362815086
C 0.2593991766439829 -2.356996220615463 0.6091545861321696
