12
## STRUCTURE-ID: 64566853fb661f64da230d7e ; CHARGE = 0; SPIN = 1
O -2.015124734449567 1.249985072426523 -0.28166639333848276
C -1.8987215735743899 -0.11916052723343931 0.04798032320987074
H -2.715145161869606 -0.7038198683869408 -0.3873856305276635
H -1.9591974400533878 -0.18338182914951023 1.1330648291395697
H -0.9416719317741445 -0.5311598431205372 -0.2830910035743466
H -1.94623239293163 1.3404860794914355 -1.239410009267464
O 1.5067615039298727 -0.567486098595671 -0.7573606686449763
C 1.9379770883772982 -0.18981740439176642 0.5327977324638069
H 1.5866948568836459 0.8137028238640654 0.7921165436194919
H 3.027766790540235 -0.22665326369075434 0.6173924730651007
H 1.5048127267757663 -0.9055706904971664 1.2294156497520448
H 1.9120802681459217 0.02287554928375676 -1.4038538458969563
