19
## STRUCTURE-ID: 64567a41b38712245e12b084 ; CHARGE = 0; SPIN = 1
H -3.268365492834569 -0.18541254115524478 -2.4795072688656004
I -1.7372900404263072 -0.3841897853870742 -1.9609429354992904
C -1.8662699479627602 1.593811651903596 -1.1628400169041284
H -2.0778925564046404 2.26237399838288 -1.990177209654635
H 1.3318548649242732 -1.1364223674609057 3.198115329193485
H -2.6510709819429152 1.5797620324413464 -0.41286653399309203
O 0.6117503113316352 -0.32482429029020876 -1.279552144212427
C 0.8060091854546894 2.3935662249655256 0.4563194328844817
H -0.9029773892737473 1.8107200932670873 -0.6958123227693209
H 1.0349531314850644 3.1739482516213773 -0.2489955363732729
H 0.21350271828759798 2.586888834306302 1.3351066448812805
H 1.1247542871829674 -0.2828906299049425 -2.092013397491554
Rh 0.9529551079617091 -1.6461620561597827 1.7318348530999144
I -1.4086169610383468 -0.5326212713033447 1.9218630349400998
I 1.9304254948048019 0.7340730630090384 0.42860565475818796
O 3.403483566000816 -3.352761188345345 1.8177444050905007
C 2.4682440484885535 -2.6760568168153434 1.7839438420917806
O -0.24747212594284415 -3.1127234973258857 -0.5844049168569105
C 0.28202277990409 -2.5010797057489893 0.2335790856806984
