12
## STRUCTURE-ID: 645667dc9cfa066e3e23363b ; CHARGE = 0; SPIN = 1
O -1.7188324791344272 0.39097403208135045 -0.9752817426260673
C -1.0065194036179588 -0.5322199297409093 -0.21223968895007053
H -1.529691964050102 -0.7737719394093758 0.7237112007709664
H 0.7040445809824457 0.6374173248907541 3.3360465761326465
H -0.9261639165285438 -1.4349025180795099 -0.8355994705537075
H -1.8602432139661085 1.1955851515648788 -0.45760898074328793
O 0.25451525956213933 -0.0765430931015099 0.17644604951020562
C 1.181862985351314 0.025605518777751628 -0.8917420552937068
H 1.392552799074277 -0.9643158237663526 -1.3096305036229816
H 2.0881129685705466 0.4509806429208376 -0.4686067704695424
H 0.7965129244350898 0.6751281318739848 -1.6821182594052577
H 0.6238494593212869 0.4060625019881015 2.5966236452508427
