12
## STRUCTURE-ID: 6456686335ec6171dd5ede00 ; CHARGE = 0; SPIN = 1
O -1.774644011968449 0.1876626641307021 -0.5116918819935108
C -0.7102736266214504 -0.34267663880298577 1.0862973784508576
H -1.657448412122292 -0.8211141122682508 1.2964054406730674
H -0.48508457879212974 0.50282725404854 1.7113030714073065
H 0.08694692858577521 -1.0583385432106567 0.9797049909312426
H -2.292422688885801 0.9397438816910221 -0.20192128180377647
O 0.5037981845206855 0.7292288741896946 -0.26143572603579507
C 1.5531603945028538 -0.01502270155368621 -0.7328997040765078
H 2.187420906373289 0.611683818674326 -1.377508109232934
H 1.2244391453368002 -0.8818159373936005 -1.3303652635142937
H 2.1888596280191304 -0.3835027558107596 0.08952242684592215
H -0.8247518689484279 0.5313241963056242 -0.7474113416515605
