20
## STRUCTURE-ID: 6456b8686420a541973ae5eb ; CHARGE = -1; SPIN = 1
C -2.224240444459892 0.08327320610362683 0.18324926507884493
O -2.7076004288031683 1.1230101642178407 0.3234977185647491
I -0.16562452401048292 -2.784338165906034 -1.0915979990990385
C 0.30658690854699605 -1.8474692575532714 2.4070775588795814
H 1.051523187013561 -2.6188790571435048 2.226444217667945
H -0.6739446398834968 -2.278610730838479 2.18434676333469
H 0.3195789490944611 -1.519426833024834 3.446663070464356
O -2.189223729401517 1.5492710494080575 -2.960560001898159
C -0.451497957035785 2.405488900227874 -1.10944662316495
H -1.4539879811882086 2.8063361329729273 -1.174216266365455
H 0.2101782278907401 2.938638009970541 -1.7796634067777362
H -0.08480967639966251 2.4303493095762287 -0.08892774461897397
H -2.61318035904131 0.9725838507823023 -3.5949860961719122
Rh 1.2834641326527731 -0.7673467804847058 -0.2729058941071951
I 2.871117031150689 1.336747996612056 -0.6105135777366374
I -0.603718615758342 0.4117599565803032 -1.7389376919728357
O 0.03428397201826655 0.44934955541669475 1.715000806532743
C 0.45117106357373604 -0.6588510770110474 1.533076439558464
O 3.827607877658758 -2.27395848129343 0.16110570082695352
C 2.8123170063818552 -1.757927748613146 0.2412937610045664
