12
## STRUCTURE-ID: 64566ad0b3f39a6dc662319b ; CHARGE = 0; SPIN = 1
O -0.32741946874053585 -0.9162959922044371 -1.1422826563404336
C -1.564591601976594 -0.26741588529246396 -0.9300289280490072
H -1.9419743441070312 -0.4527343732102287 0.07997588223015369
H -2.311417647704692 -0.5861057238033119 -1.661381757170347
H -1.3847874001818692 0.7990853688772884 -1.0526855681139087
H -0.460125188500447 -1.8701056739159359 -1.083431040384634
O 1.8992331717134194 0.4684038523926093 0.04315875008739309
C 1.3135849896839018 0.6621106938409582 1.309446623105716
H 0.3966352562557056 1.2559489081753488 1.2398669090274197
H 2.0386811752716643 1.20261817620977 1.9165251486043344
H 1.0852119452827769 -0.2920176617481908 1.795608391061805
H 1.2569691130037046 -0.003491689321407219 -0.5147717540584897
