19
## STRUCTURE-ID: 64567b0f8ff88f6ec57ccc16 ; CHARGE = 0; SPIN = 1
H -3.547268707125129 0.18738499781144147 -0.6927832596585666
I -2.5349672446772678 1.4305595463228296 -0.7567322318748891
C -1.0722780160566052 -0.3809803504206367 1.020252158146684
H -1.622036820948551 0.1065062767469741 1.8070501816804505
H -1.535536830476867 -1.1585484210245538 0.43600402073820893
H -0.1787960015477882 0.09104307396057201 0.6323104360796836
O 1.9468551414181368 0.6186014057674472 -0.7525122098734472
C 0.1610033666892726 -2.171310325074131 2.5409441263914547
H 0.6483477369705766 -2.859838271688945 1.8603290316978796
H -0.3316858498283065 -1.3359247087905042 1.9141505074717513
H -0.6072705177477505 -2.6448746253324518 3.1410393093232254
H 2.897301036401263 0.4499545589528385 -0.5938101250109918
Rh -0.26406093000921144 1.1875488050581078 -2.165350253793243
I 1.6100285817073976 -1.2629277529532676 3.814475385866584
I -0.5214925309737675 -1.303778753255158 -2.7648276074285705
O 0.5553873725289642 4.055768350458028 -2.348643834320306
C 0.1771725859986492 2.97395208309911 -2.1999689489081287
O 2.5444543163445346 1.061715091460281 -2.8672217011785954
C 1.674843311332444 0.9551490189020194 -2.0247049853491945
