12
## STRUCTURE-ID: 6456687c14487521625c71bb ; CHARGE = 0; SPIN = 1
O 0.41939574961753906 -2.677706462794248 0.7495393912102548
C -0.9300660056351235 0.7862656862695899 0.6338941463939812
H -0.7913981697463953 1.8497861367993123 0.8562066057987562
H -1.2434430787154354 0.26355087305752317 1.5347727888759104
H -1.6973417394965347 0.6821032036345188 -0.14163063545033996
H -0.27051101945208317 -2.968827560658145 0.1476615539524445
O 0.28319594090204053 0.19291836850214394 0.2243418484232256
C 0.8226462253165394 0.788104810814952 -0.9355840049309317
H 0.13619383331490198 0.6832106956325613 -1.7837791068914117
H 1.7541496189161934 0.2682885295442235 -1.1479067074198845
H 1.0263077706428303 1.8519107784094004 -0.7717030415835126
H 0.49087087433554166 -1.7196050592118015 0.6341871616215031
