12
## STRUCTURE-ID: 64566646daed1515ab12b09e ; CHARGE = 0; SPIN = 1
O -1.410751902904256 -0.1601590869396574 -0.4372041373402788
C -1.4430204690705697 0.09573860961664926 0.7446519908161169
H -1.5948384162062799 1.1175252700615028 1.11737283913025
H 0.7601736442378232 0.5993629576936744 -0.832605242580503
H -1.4962233678471548 -0.6875422063411581 1.5133375355488259
H -0.7530691598618063 -1.9567872248062639 -2.2167001667976787
O 0.6940838449391424 0.3183062014879541 1.2161550475436276
C 1.2461808628696687 0.9584934516465536 0.08179209482813932
H 2.3213006386091353 0.7909107639725308 0.01891816070139926
H 1.0491044310054576 2.0230146560581352 0.1925230405847136
H -0.37588076758051286 -2.5003655064247083 -2.627720319497879
H 1.002940661809391 -0.5984978860252298 1.2294791570631456
