8
## STRUCTURE-ID: 645688083753c675e01aaa10 ; CHARGE = -1; SPIN = 1
O -1.0031424664884299 1.9938174907196666 -0.46244260078887184
Rh -0.20622079166792698 0.16562027194419165 -0.1569805756935284
I -0.6588324075143782 -0.37766189158474145 -2.670028193178446
I 0.8129276327347092 2.701589212315702 -0.6275637159687387
O -0.28278620782981106 0.36921294494356355 1.9849146701876244
C -0.0842613412674537 -0.7522158537477472 1.6543648298355251
O 0.9260064512121721 -2.5918698842131827 0.1302761336536501
C 0.4963091308211007 -1.508492290377462 0.14745945195277432
