12
## STRUCTURE-ID: 6456651f63a93a64bd5b5c23 ; CHARGE = 0; SPIN = 1
O -2.238596793168773 -0.587050331639637 0.8054221133730031
C -1.7813207507661535 0.18396280717828642 -0.17586393747905352
H -1.89110559543001 1.2617223149222845 -0.08032126918504168
H -2.01171792455048 -0.2287863352600286 -1.1525898201801636
H -0.39801924060535127 0.1216261747185887 -0.1707698650375014
H -2.206960245729658 -0.16297942595721812 1.678570202117925
O 3.1009712888957464 0.4687631854070288 0.4705209813492242
C 0.745492854169578 -0.12073438163406021 -0.3296123917857526
H 0.8635843820873705 -1.1876203751718872 -0.17825906535195365
H 0.9720751418201478 0.14084638009131153 -1.356237359523064
H 1.3666524787874301 0.45067451652557594 0.3630447697718209
H 3.478944404490156 -0.34042452918024724 0.1260956419305565
