20
## STRUCTURE-ID: 6456b71d88f509683819eb5d ; CHARGE = -1; SPIN = 1
C 0.2753825531013253 2.6950275785635376 0.6652448470765029
O 0.8224187573033537 3.7103548515094347 0.5251969222038196
I -2.0694478818742827 1.1178570300197197 -1.563050448145902
C -0.3381237418225235 -2.145373268580095 -1.046839459259665
H -1.4043182730354764 -2.233030519059296 -1.2252686071760641
H 0.12302717717042609 -3.109975691627869 -0.8719878216181659
H 0.1491372727118973 -1.6260129379439496 -1.8686649373869177
O -1.5301254475401838 -2.3815844575169507 1.3741544904741845
C -1.4355694422879515 0.0854152573750551 2.1515300906829276
H -2.427370801536325 0.07317566845655886 1.7169817828106821
H -1.0661123582340832 1.0981075113085281 2.262745361334372
H -1.4208264998171372 -0.4696497388979484 3.0786509435064304
H -1.2211151476265294 -3.2741034549530688 1.216237373635491
Rh 0.4727224993364691 1.1783546368328612 -0.8052576235177581
I 3.0909606772116853 -1.3288897503059043 -0.5906539372636643
I -0.1287183382665674 -0.897390274837806 0.7335689144290329
O 3.227970047730297 1.6621927562737986 0.038582309452987885
C 2.3306286262820155 1.006125019637083 -0.3291448994049533
O 1.5057613621460324 2.6892617912666763 -3.186133502521308
C 1.0437189590475415 2.1501379924796145 -2.275891799312023
