21
## STRUCTURE-ID: 64568dbd439bc247ee233624 ; CHARGE = -1; SPIN = 1
H -1.2532136108464 -1.6926646174546525 3.603623850360306
I -0.6964313904570009 -0.3046304722420996 2.756196424025898
O -1.6942106531600527 0.18296805098545083 -2.12878023626366
C -1.409334696039019 0.3080327319715578 4.924771681994644
H -1.24159335683264 1.3816090452912844 4.978993982810019
H -0.7695058187672779 -0.24547751878068064 5.617994413387571
H -2.471937321224521 0.05508612059659097 4.974705776743077
H -2.54286492151244 0.25639402562264324 -2.603602660853251
O 2.8430025106536174 -1.1358589083219963 -0.9612887491501098
C 1.196489675337254 1.9949385795315093 -1.1944023168919446
H 2.14237978529462 1.543526938350061 -1.495598173753706
H 1.3685336244433295 3.0250829203163203 -0.8861401401420916
H 0.49932347750044687 1.9830395036751947 -2.0343989076835034
H 3.21438922169311 -1.981569408161412 -0.6930289961950917
Rh 0.7531635766057515 -1.1755857862157857 -1.734307095977769
I 0.41150915580126773 0.8804322169483282 0.3177691021796929
I -0.1157279459001292 -2.785778340803453 0.06575652004751933
O -1.4937616250013772 -1.5647475533860824 -3.5090889471560613
C -0.9858190497151158 -0.956889127458626 -2.5562038826693745
O 1.1317086245259882 0.42897854173588457 -4.227065927958202
C 1.1139007376009946 -0.19688694220007327 -3.21590571685437
