12
## STRUCTURE-ID: 64566a3ef812b05bdd248aee ; CHARGE = 0; SPIN = 1
O -1.4841625202928164 0.4084449523249491 -0.729317588535054
C -2.016543369865077 -0.7112565726790477 -0.06318263773584555
H -1.6080606885989603 -0.8078824918940715 0.9483234185256205
H -1.820558468228439 -1.6361994586425694 -0.6147157357471008
H -3.0932956031227157 -0.559296829864683 0.004062556542896735
H -0.5192013292335628 0.28579283754013285 -0.8054016907599117
O 1.349078048596258 0.15954682340939896 -0.7344528716310798
C 1.780773300539658 0.4731732900393816 0.5760067428109202
H 1.4131845349357357 1.454411023725296 0.8892446650487369
H 2.8701536875924383 0.4501002497787012 0.6509937920016967
H 1.3657602351647675 -0.2889114218619485 1.2332870152311144
H 1.762872172512717 0.7720775981244624 -1.3548476657519957
