13
## STRUCTURE-ID: 64568c4e3a9dc507eb12b09e ; CHARGE = -1; SPIN = 1
I -1.605486520091862 -2.67991334280119 -1.3239770696414004
C -1.7676652164331224 0.0671308824681372 1.176856151157453
H -2.5570676531438954 0.133886758982254 0.42648492150816913
H -1.9123601748149746 0.8316644219362777 1.9387954622598524
H -1.8199985789418553 -0.9246081886978671 1.628732271784975
O 2.3955452321520965 0.3269318782817286 -1.2023366475430035
Rh 0.20722863310934161 -0.8867232746345662 -0.8839295131809365
I 1.5780224759054535 -2.4301092297208378 0.72980038987199
I -0.6472088330570452 0.6891049490019786 -2.7964253548451508
O 0.3822318587442217 1.1251397151070088 0.7883686531584223
C -0.43203880537720757 0.27230876422763267 0.5370226198074706
O 3.3268806671403106 2.2045116483518634 -0.2857027033916381
C 2.8519169148085335 1.2706750174975832 -0.7336891809461976
