19
## STRUCTURE-ID: 645679f01bb40e395a5c0af7 ; CHARGE = 0; SPIN = 1
H -2.779396281421131 0.9686686289891746 1.2881368639261832
I -1.3512175601919432 1.6334540386067518 1.4733134365742113
C -1.7476496357750437 0.24619969834811778 -1.6653483463971643
H -1.7225071519115513 0.12925106451510124 -2.7513671882846813
H -1.9583277820251856 -0.7457634312857345 -1.2500140026571198
H -2.596725933370969 0.8993244926312052 -1.4439563140882703
O 0.6370320866080613 -3.3118420679182585 1.6745303298940792
C 1.235371413107497 -0.7747611920869572 2.2747185264969967
H 0.4144258091012008 -0.8377872250263774 2.97876062304532
H 1.583233317601572 0.24290997451918367 2.147334202810475
H 2.037419096088054 -1.4356198473902502 2.577922490525632
H 0.3778991396605186 -4.095196242789653 1.1884250547101414
Rh 0.08735257681208378 0.9233550599850185 -0.8401193378979572
I 1.3493739494753378 -0.40994372042291766 -2.8535179415378282
I 0.5394918154798759 -1.5306245164003227 0.40652838117235063
O 2.976897798334097 1.3759871234951464 0.013560322174814147
C 1.8546852841289123 1.34028485550999 -0.20202904116092485
O -0.573000540103396 2.976181712500762 -2.989216177891255
C -0.3643574015979891 2.405921594220021 -2.027661881414974
