21
## STRUCTURE-ID: 6456750ab561ca6f595b5c34 ; CHARGE = -1; SPIN = 1
H -3.7910648402334703 -1.3448353611807098 0.7861694359727027
I -4.103999561486749 -1.5713369188108273 -0.767830652846542
O -3.405592357272228 -1.1110105648576432 2.445856566095618
C 0.39506277940247375 -2.492702237672263 -0.7229843809889109
H -2.990758875063432 -0.2452347659501534 2.5160746160931535
H 0.5653800612611249 -2.9815756546706313 -1.6775828417890057
H 0.16850968952417472 -3.2457440487246134 0.02808611137255088
H -2.757042891301803 -1.7505329033914638 2.7586895657666917
O 2.5657258850259286 2.2868149117275314 1.0453759250343417
C 1.618673422265495 -1.734897337089966 -0.2730436241809396
H -0.46376566170422384 -1.832259443449711 -0.81369215639798
H 1.4464920352284252 -1.2098373324406126 0.6627870023295477
H 2.4947710849708167 -2.3723198258898304 -0.19487422378653885
H 2.287884246250771 1.8733915626720854 1.8695547883272838
Rh 1.0661572775466426 2.498605222438417 -0.34274898528533926
I -0.5734784420867769 1.1375773146422679 1.1459581815668447
I 2.2045517222737927 -0.1530799889817874 -1.7121181672165933
O 2.617907736381267 4.6395504712974995 -1.7455926431074613
C 2.074370484271813 3.7838288363583326 -1.1904668164130991
O -1.1412699282790726 3.036338643360157 -2.27603889425051
C -0.27851386697497765 2.7892594206139187 -1.541578806295821
