12
## STRUCTURE-ID: 6456687e459e1f0abc64e48b ; CHARGE = 0; SPIN = 1
O -0.9234864730084317 -0.7106508273402885 0.13865577397746687
C -1.7250943847729718 0.41412466404791726 -0.2751799599512458
H -1.7288658693806556 1.2107855190080894 0.46883724619128564
H -2.7288604738128015 0.01494276904108839 -0.4297324970753445
H -1.3289273680436706 0.789882949738008 -1.2183480021299495
H -1.2346919953960867 -1.0513390574729313 1.0227485244315293
O 0.4747696141334944 -0.30896971913472343 0.4450250335202395
C 1.3410459282613807 -0.6778671547618019 -0.5864415696183122
H 1.369518891794759 -1.7603289793937744 -0.7272869653344215
H 2.3023950423983934 -0.33400671029041784 -0.20046501968945285
H 1.1246519150452046 -0.15508819948430336 -1.5204104347674117
H 3.0575451727813943 2.5685147460431246 2.882597870445611
