12
## STRUCTURE-ID: 645668ad0dda0c52a9242a30 ; CHARGE = 0; SPIN = 1
O -0.7408292222620204 -0.48613755419432825 -0.5912178595092805
C -1.7284255010967993 -0.02445612166970735 0.3175161228015256
H -1.3920358668530106 -0.2651706230107397 1.324330582427737
H -2.6510101941655346 -0.5661033707770379 0.09506156186867346
H -1.8932937186120504 1.0489293516343776 0.22840640662038425
H -0.9728582352315672 -0.2276682852509412 -1.5081714230678478
O 0.7009094890090096 0.47569905440172633 -0.46979070563602243
C 1.5892354330566512 -0.3301711710146537 0.22871349422739767
H 1.2445474294375658 -1.3661601822926155 0.14189238245855074
H 1.664207337299805 -0.039979458024810836 1.2803493653770428
H 2.569812185523004 -0.2939128168925293 -0.24895652779346422
H 1.6097408638949484 2.075131177091259 -0.7981333997746983
