36
## STRUCTURE-ID: 6456db1e8b6c5d349932baf4 ; CHARGE = -3; SPIN = 1
Rh -1.2159526769397688 -0.932238822218388 -1.3706649862221207
I -1.3668626524851062 -3.5193754994268454 -0.7058804210986317
I -2.797964425570766 -1.2847841101211757 -3.4399428003385157
O -0.611683498358994 1.3242466985268793 -3.1944090969260603
C -0.6705888251384625 0.6264711341883994 -2.231769364138537
O -0.39120577153892117 -0.9473052482159501 1.4482202325620186
C -0.3681083122664476 -0.6491780704685782 0.29447849546124555
H -7.029440729549444 0.04226738881480341 -1.4220499549700847
I -5.467595168621987 -0.29601097716757696 -0.8302638537677521
O -3.3708784739045496 -0.3722532148917173 -0.07554824926231615
C -4.878754689375929 1.442610779658693 -1.8916170207227145
H -5.402022828133076 2.2941278163838184 -1.477326537077
H -5.089364310232339 1.2795895711209564 -2.941237771359944
H -3.8118886724619734 1.5408347725469729 -1.7333940196179949
H -3.407135680329854 -0.5668941300287069 0.860900400675106
O 1.942322086332265 -2.6510365857243468 2.3414836841414677
C 0.6229413552368952 1.1880802988007342 3.5539815932715535
H 1.159432464171206 1.043519715794514 4.485355816789451
H -0.04072766164667223 0.354805691073565 3.3462318068924195
H 0.07598704572311672 2.126416563972752 3.547167787281947
H 2.405271720438932 -2.4355145418449773 3.1696505693591437
Rh 0.5552233641494785 1.0424903895766684 -0.5126455790736685
I -1.3330434142983707 2.545696971102305 0.5548058841139251
I 2.1147199409282504 1.305232190811493 1.9527376242302843
O 1.7428582738118865 -0.6904170200800962 -2.522411000662664
C 1.9054558868580356 -0.05840132618766727 -1.4772548245521424
O 2.137955282645005 2.718206049703415 -2.395425025407086
C 1.5034010230822135 2.3298008311786393 -1.5080597928617798
O 3.2164099082439237 0.1030049975430812 -1.080219230992309
H 3.819422244665074 -0.3427475842376411 -1.7097305448791773
Rh 3.8217935757777917 -0.5827032996167965 1.3780420314460273
I 5.573132126669093 1.3574568366635587 1.1993793287488614
O 1.93029629975402 -2.2143399757479494 0.16773311712882938
C 2.4345735315142707 -1.9441212739151192 1.2612951250188873
O 5.408769566250645 -3.1071264430535153 1.4789625394847925
C 4.883252094600423 -2.0704105745140633 1.4794240373246088
