18
## STRUCTURE-ID: 6456718cf89f6f6da02c50c0 ; CHARGE = -1; SPIN = 1
I -3.333904804730111 2.479868952969105 -0.237295282234888
C -3.274760836268365 1.367923018876629 1.5985167108989453
H -2.7613663436772566 1.9799454977006277 2.32914869262414
H -2.736008694854559 0.44696053610261455 1.3999060447213774
H -4.298626169856745 1.1708647419716551 1.88996590122523
O 1.2464401872424042 -2.2180355487187704 -2.174165509903006
C -0.8923694933605847 1.9242080991287664 -0.6749971376099472
H -0.6039988713773143 2.2825522797507816 0.2927264299200202
H -1.1358075225338686 0.8893796413307034 -0.8105041084482317
H -0.7940680266479172 2.566691478660782 -1.527257688392354
H 1.8464119757889452 -2.578652326201912 -2.828973444853992
Rh 1.9875302883980053 -1.6623273629975055 -0.27978129908776456
I -0.4933455133479091 -1.7148571182415007 0.6788806479394163
I 1.714121617468032 1.1828180766086767 -1.0117069383801605
O 4.292492921530407 -3.0862906802610097 -1.5387988760108744
C 3.4919742303053867 -2.49416239159002 -0.9379866583139547
O 3.0995570530205105 -1.1935954948522411 2.445516742975694
C 2.6457280029009254 -1.3432914002373575 1.3868057729303251
