34
## STRUCTURE-ID: 6456d23b4e3dd1387c3d7d74 ; CHARGE = -2; SPIN = 1
I -2.224380040829581 -1.1348707948349896 -3.6015606145963814
C -4.397966390360882 -1.4647907151190664 -3.8801320431747803
H -4.841632472167567 -0.510773680997732 -4.146812134532826
H -4.79228993634477 -1.8394072179540104 -2.939771713169024
H -4.505044990788799 -2.1945479314607983 -4.674234588379378
H -5.630628513475028 1.1360795690249197 -1.1500697964651068
Rh -2.0263861013247935 0.15438674061056823 -1.0840438751109114
I -4.321753179155573 1.7976611735424817 -1.795795905621775
I -3.638170194886109 -1.6050195211541305 0.05867874006153744
O -0.3916178720160727 -1.2312793553719412 0.9443752686658764
C -0.7573641756723253 -0.33318812950317167 0.2638650698997325
O -0.7234516757267022 2.1853886529888515 -2.7787143892610717
C -0.9497989202936704 1.5234059485817786 -1.8235336278000602
O 2.354037389844387 -2.6491961248027858 2.5345153000364244
C -0.15916695012684678 0.2043439994943331 3.7020524914342023
H 0.21126858934421894 0.14122750362257797 4.718911917592662
H -0.36167919958683287 -0.7840017656550617 3.3004568535930465
H -1.0448833654971148 0.8322968480995989 3.6543967919667995
H 2.7420454044463938 -2.372131618450253 3.3817388744506527
Rh 0.11572017977399557 1.533977573952622 -0.016544975880780903
I -1.7332826656692006 2.9358736119512434 1.277483403457581
I 1.4042359105916784 1.1327093995195554 2.5046903125357134
O 1.1050830520308894 -0.291866166976312 -2.0376796697683566
C 1.393330652946105 0.40886829893748605 -1.0707480505990614
O 1.938141923894659 3.498708612899145 -1.3447154145511477
C 1.2079684866786957 2.944579322771339 -0.6529231207012078
O 2.7110468847715117 0.5202999288243829 -0.7447182528128844
H 3.2657891299754027 -0.018211255149981745 -1.3444004166446648
Rh 3.5568652951012214 -0.08322209232091361 1.72305438888399
I 4.475513893780056 2.4057578050784003 1.6365670319176677
O 2.2766145465891854 -2.1274219987326246 0.38376853729916216
C 2.664516757485366 -1.7961357513698633 1.501537529330051
O 5.9889223236102405 -1.8254173307255337 1.7440275909999665
C 5.088396223057812 -1.0940835393203898 1.7562784869442825
