31
## STRUCTURE-ID: 6456f71b4fe9041a647b9247 ; CHARGE = -3; SPIN = 1
I -2.454074473048656 -0.9499264590992561 -0.7538272672141422
O -2.407489164940896 0.9000133145839909 -3.273704583969822
H -2.2892889702105146 1.2300038522076568 -4.162110909897014
Rh -3.6223459271792495 1.491232143951089 -0.12116125971745519
I -6.968560557563055 2.3244264544768036 -2.3081335760529376
I -4.303342569044253 1.5144922427804834 -2.6172945854123055
O -5.607310895832367 3.492880295009342 0.890124117848569
C -4.869869162804908 2.728654550110058 0.48427193696551674
O -2.0375513893670645 0.9963674729936761 2.337879193829555
C -2.807965769072349 1.2281355300216217 1.5074542764792964
O 3.0905565893358324 -2.193967946628142 3.017694709402143
C -0.16712179050692313 -1.524549950926332 1.988422211472983
H 0.3501083677238951 -1.8502730268570364 2.88369139154703
H -0.035544161557159844 -2.267210270483119 1.2021548653770422
H -1.2232752997652385 -1.3789430059026524 2.186054353652297
H 3.4016103157871616 -1.4779610972895216 3.5979657468156976
Rh 0.08085114726980555 0.48971211749766436 -1.2446995493336352
I -1.0756348022076851 2.912346258485252 -0.9949470326720072
I 0.7505107903642685 0.2534355908431268 1.28807148982411
O 0.7858267660356945 -2.2737673969484353 -1.3367134483146856
C 1.2042540772012362 -1.1111697616626561 -1.349763603785168
O 0.6899839862337075 0.24706635110764882 -4.153190255205273
C 0.43864906275655047 0.485881330467038 -3.0338635018642437
O 2.5719341322852727 -0.9320614116923138 -1.430449070798986
H 3.018529031934803 -1.8018996059477868 -1.4334820033563471
Rh 3.288886585176705 0.030684593939319323 1.1416041837024415
I 2.840288902338964 2.6032323193101847 0.6541081648757345
O 2.880734779838887 -2.7572216324598364 0.8912387503998576
C 3.1226548585338496 -1.841821575061568 1.6733593634640738
O 6.243110897608816 -0.40264409582223487 1.2406458287987634
C 5.110884642675433 -0.1651471810043583 1.2286000631391853
