18
## STRUCTURE-ID: 64568af3e5f8d60dde67f9c0 ; CHARGE = -1; SPIN = 1
I -1.7697031363107985 -2.898621991467956 -0.45555649531710063
C -2.3184161566495285 0.4510970644981695 0.27923893460753674
H -2.953811107987196 0.15209451314014058 -0.5539278662408641
H -2.2357924333483257 1.5386649544622724 0.2957152011440266
H -2.8146793240614065 0.14070731228219172 1.2139617143151846
O -1.0530529631722445 -0.13455999206446315 -2.0911964836844925
C 3.0684719145763717 0.7463564941794633 -0.31819762349378117
H 3.451553388895245 0.8396183862744308 0.6909590333764941
H 2.2593064785929973 1.4497846748112186 -0.4868482941145436
H 3.8510727381994143 0.8517296938727076 -1.0586506299103937
H -0.7998078331062486 0.3869343623886742 -2.877245933599055
Rh -0.5549566540171457 -0.7427397715946229 0.6413886523757989
I 0.3206421954795592 1.1553093823434908 2.3497417629538435
I 2.238751544825007 -1.2386182057658823 -0.526018502135173
O -0.011735422454973943 1.4944392657265053 -1.009181499998914
C -0.6293795150466577 0.44186916119137015 -0.9541113861753252
O 0.09367231854974907 -2.689121308229856 2.851388391218559
C -0.14213603296395566 -1.9449439960475963 2.0085410246781286
