12
## STRUCTURE-ID: 6456673bb9da455c0b6dc16b ; CHARGE = 0; SPIN = 1
O -0.04093409029413269 0.04020683395370689 -0.08599624972024257
C -0.9959887165371638 0.4888506391027387 0.8506437425165995
H -0.541021463233066 1.1742574828618364 1.5743279615235772
H -1.3691953979135727 -0.3933958816647853 1.3654844019573757
H -1.8260235384666068 0.9989538465206693 0.34987011479021424
H 0.3672902944182544 -1.8693215753579442 -0.32382636987701796
O 0.6778693879864525 -2.781278762998751 -0.2425622164590318
C 0.5102633758434205 1.0878156180629466 -0.8527845897895258
H 1.0271628086470503 1.8104168909187555 -0.21216899876531398
H -0.2681025308406394 1.6086573937584248 -1.4206482735860653
H 1.2205226645059444 0.6342515997734878 -1.5397175687569298
H 1.238157205884056 -2.7994140849310756 0.53737804616636
