18
## STRUCTURE-ID: 645689215e8b79363b40f1ed ; CHARGE = -1; SPIN = 1
I -2.6975761723576976 0.06067364354666045 1.1060697442101777
C -1.5930180324037784 1.519251723871185 -2.279513954880975
H -2.6131268181039617 1.531760795167261 -1.884246010341527
H -1.6302474856531484 1.104801459649148 -3.2842147864217144
H -1.2132742399017455 2.538643544124175 -2.3150934927086775
O 1.8537000805087827 -3.162090395100886 2.119494522207051
C 1.3495423037899628 -0.4867831072911069 2.350397028838295
H 1.864473861074305 -1.1204707801594302 3.057093432283169
H 0.48855524359477015 -0.011708814442792608 2.808782254642007
H 2.020533019758905 0.2506226970212603 1.9239320244384257
H 1.7746857888986138 -4.060676143496866 1.8001504012553922
Rh -0.6493560549054946 0.18023557517814875 -0.6646146783875362
I -1.3351383318830377 -2.0392457420787027 -2.000584888855455
I 0.6592662302641031 -1.7579121009862624 0.7923139264365355
O 0.23033780075225724 2.41240035067439 1.1128263537737133
C -0.06991748507460627 1.5442337556205699 0.42397747687949894
O 1.1236761167481515 0.8864544212725535 -2.9735993408928048
C 0.43688417489365555 0.6098091174307017 -2.093170012475557
