14
## STRUCTURE-ID: 64568f23548f0e5543051b74 ; CHARGE = 0; SPIN = 1
H -2.787953540389987 -1.4047470513517606 -0.576837709380735
I -1.7518133611669184 -0.23026703263299395 -0.07196096829121959
C -1.1818389087756842 -1.53969726599097 1.525422613817966
H -0.4193958840947976 -1.0179593762430164 2.094906257675758
H -2.0648675276017467 -1.7273448332536177 2.1271208936773522
H -0.7818117418763003 -2.4450151610427797 1.078458169068021
O -0.18224587813872803 1.3126441359263494 1.04431573725503
H -0.38523155908500545 2.2480179660661386 1.094155579788442
Rh 1.2101671996921186 0.4422156635159522 -0.2203311589343399
I 2.4286876888435924 -1.7832391279277695 -0.25636176997279464
O 2.8991990841906965 2.5104591188075807 -1.4556251282731247
C 1.9713613268121097 1.7459729123310712 -1.460713944020861
O 0.11695199591266216 0.8157637532193024 -2.8832234899185467
C 0.9287911056778622 1.0731962985767505 -2.0393250824909885
