12
## STRUCTURE-ID: 645667602f63783a441aaa10 ; CHARGE = 0; SPIN = 1
O -0.8356937193111552 -0.3618676744949459 -0.16878853003850885
C -1.4314513250839982 0.21634019370303412 0.9215791579772697
H -2.524450985164957 0.19259552100925684 0.7982790634792327
H -1.134311491698366 1.269412225026561 1.058751279481122
H -1.1964888641462443 -0.3326315869658634 1.8486816398831287
H -0.15558524309816804 0.433169034373999 -1.1362122706667013
O 0.7675518746453668 0.6881656285729592 -1.53774345484712
C 1.2608738659761611 -0.4655700213059214 0.01061030012819153
H 2.232816727606026 -0.11342468549476217 -0.3077596933578308
H 1.0679017488626508 -1.5030838469653773 -0.19559530123943022
H 1.0253719819166474 -0.1462481941614517 1.011460149386914
H 0.9234654294960435 0.12314340670250763 -2.3032623401862704
