18
## STRUCTURE-ID: 64566fe1ba236c47743dae50 ; CHARGE = -1; SPIN = 1
I -5.4169170924594034 -1.5883637628289693 -0.4587179980837785
C -2.883062936249773 -0.5533322431537543 0.2789941599425994
H -3.4494523929102843 0.3233968839211076 0.5199935231804451
H -2.706213382431355 -0.7588580316914755 -0.7575457328513573
H -2.935097467689313 -1.3750649326528468 0.964689594260451
O 2.2742484458014958 -0.008188438940269629 1.400113191589196
C 0.015570816223159364 -1.6630932173822361 0.03609626161580606
H -0.607941524263304 -2.42277610418396 0.4928003932883745
H 1.0569923666364278 -1.7828151877271212 0.3117997555154043
H -0.10793467325505013 -1.6405126481677978 -1.040718361048212
H 2.3952383961692805 0.33261754616388883 2.2915083105761718
Rh 2.0466434629476136 1.4601195372522775 -0.018063280406871142
I 1.860954371256428 3.3063694977845253 1.841302421146604
I -0.5897914406615627 0.23052036677957433 0.81799491744612
O 2.9115445876653903 -0.5182137459205834 -2.084653615245976
C 2.548246937189766 0.2296718256749569 -1.2895301896366722
O 1.7416858656192422 3.6433266367162043 -2.0335395470927997
C 1.8452856604113914 2.785196018356502 -1.2725238041955902
