13
## STRUCTURE-ID: 645673f152a6e726571aaa04 ; CHARGE = -1; SPIN = 1
I -1.8373948131438393 0.28470183040828656 -0.8882082642005357
C -2.630739539838796 -0.5360227955541789 0.9632545957869124
H -2.482255489523968 0.2042615287346709 1.740710565029747
H -2.0690528162891955 -1.4352879461275485 1.1868512452332731
H -3.6798873270552166 -0.7483578183567384 0.8002904590569284
O 1.1704112194272098 -1.5947025329432776 -0.8150757435062147
Rh 1.1823858679689412 0.4687854522819321 -0.3302846541259306
I 0.8768144484283661 -0.006808792649241086 2.224875150191373
I 2.3651027024592515 -2.922952218679581 0.0035544235264040026
O 2.4377344015030897 0.17630202313966642 -3.0206648356073464
C 1.9362748299949017 0.45032516579704285 -2.0203917843722468
O 1.424833401199284 3.394311076710806 0.18074430035842043
C 1.3057731148699876 2.265445027238172 -0.025655457370773366
