16
## STRUCTURE-ID: 6456b7c433a78f234d248aeb ; CHARGE = 0; SPIN = 3
C -2.701477060136093 -0.0665411169796176 0.31821791099846286
O -3.653869564860192 -0.5108501813050792 0.7384485420613218
H -0.030410884510553158 1.5442820608478596 3.6961274065982597
I -0.8043519558221917 1.3704662050552685 2.3231541653308274
O 0.09154298237292209 1.901323289148461 -0.8429321260499196
C -1.1440659842346872 -1.998153665587374 -1.9422818426563813
H -1.6186602888156165 -2.881486119204551 -2.3234634579711892
H -0.5429312305886503 -1.3717678171463088 -2.5738253173111683
H -0.14037833284232756 2.333828091739893 -1.6918520448490784
Rh 1.1341773024789235 -0.1652014412579384 0.7352411329850491
I 2.058763269994611 -1.8366771283552548 2.6329940657157085
I -0.6380162496697722 -2.0391367548272594 0.04443032078650184
O 1.1445090660059232 0.307601918029765 -2.019071773321766
C 0.7733824881704718 0.7863133541686947 -0.9687746425381181
O 3.493759705977122 1.6522592437900425 0.9783398634731308
C 2.5780267364801026 0.9737400618833343 0.895247796748318
