12
## STRUCTURE-ID: 645664b6acda723a833288b8 ; CHARGE = 0; SPIN = 1
O -1.7659685862908443 0.9252449969510678 0.09558031027271911
C -1.888377579578497 0.02142403638397911 -0.9803894224188218
H -2.9138150349461713 -0.01526283083068552 -1.3599991270301441
H -1.5718482308596784 -0.9864350946390321 -0.6944858634309898
H -1.2338526357775454 0.38529658637975406 -1.7704267330644077
H -2.360367688851685 0.6481181719124891 0.803305985003134
O 2.926637936610162 -0.5977039627910362 0.8653218637388747
C 1.5956694543047283 -0.20241791041141924 0.6124204577652101
H 1.2523921855256994 0.5481077591706879 1.3299205440349096
H 0.9816262504333182 -1.0947767391117893 0.7152337669970664
H 1.4793061507856946 0.19394609512077063 -0.40013866301016326
H 3.498597778644824 0.17445889186521 0.7836568811426126
