13
## STRUCTURE-ID: 64568cf477f38a61e7662c54 ; CHARGE = -1; SPIN = 1
I 0.5414589939797307 -0.4936509635194 -2.773777919789819
C -1.9053700367404138 -0.06575120601908416 -0.20487461360066206
H -2.765923579150772 0.012190650145880638 0.45887954753993127
H -1.9355687198836244 0.7343119791930729 -0.9449467392118733
H -1.9450935987997227 -1.0192025123490662 -0.7346110689215416
O 1.6702520025026915 -1.644369839365795 0.10443648558568648
H 1.4568999605211208 -2.255182671257801 -0.6091944545045134
Rh 1.0584100326585912 0.26429173041849463 -0.3261850183234797
I 0.6618655247967558 2.842821969131747 -0.8005168684924862
O 2.570106449607211 1.0165964982519622 2.1229219888977267
C 1.917594127054734 0.7490261206792872 1.2212685705275914
O -0.6580810663391827 -0.130828312842196 1.8383375282942005
C -0.6665500902071265 -0.010253442467115334 0.6482625619992481
