19
## STRUCTURE-ID: 64568e5eb7f2352a61623184 ; CHARGE = -1; SPIN = 1
O -2.0316159643681235 -1.477113548876878 1.3176223515298036
C -1.841620440867212 2.3068759843953345e-05 -1.3504635250999095
H -2.8182885275260574 -0.09106937783450006 -0.8675677807053813
H -1.644523614620018 1.0608734544679046 -1.5318472925372912
H -1.8972819882942966 -0.4965637848589229 -2.323231269142185
H -1.7416618017036483 -2.1204735382113515 1.9704433967028714
O 1.4360368436957143 1.0747319267783089 -1.0293792664073789
C 1.4672910752926365 2.097367064732766 2.070763107474717
H 1.9128556073224294 2.560299186415383 1.1988292755781857
H 2.037382129530225 1.2301992965101016 2.3905191181986956
H 1.3326987920509068 2.8059320551034337 2.880093552156887
H 2.115853709140939 1.3626531764413978 -1.6732869086292612
Rh -0.4063055293361675 -0.8327732640912403 -0.055350338365574736
I -0.5271430104464288 1.3919464189922124 1.489728699180023
I 1.5823436866144964 -1.8432833849528638 1.497680407225507
O -0.7260251177863993 -3.4399372929611434 -1.407827544616468
C -0.5770480470441978 -2.4059161258853754 -0.9273187285843567
O 1.3733459731814006 -0.727930751252606 -2.32019900677129
C 0.9537062251637671 -0.14896457927651904 -1.3292082471876436
