21
## STRUCTURE-ID: 64567c2e7630ac0b202fdd7a ; CHARGE = -2; SPIN = 1
O -2.165670339774112 -1.8127238424503265 -0.42552209674855634
C -1.155588740245706 -0.7807842548318401 2.4581665863136326
H -1.382905582713817 -1.555652773876766 1.7297760818220893
H -1.9676249415814437 -0.6397312827779665 3.1614270446480854
H -0.21615970423064063 -0.9736834437211994 2.965121179807066
H -3.120193755430019 -1.8633204758460127 -0.2965766461262883
Rh -1.5935805678936596 -0.17599893845668954 -1.4880839497867693
I -0.9439400693245731 1.067177667093522 1.3376780727445479
I -4.021695630178809 0.7752482088588993 -1.4365123691849488
O -0.5745738502032919 2.1769594101375067 -3.0180124576991005
C -1.000848599587565 1.2786306021071447 -2.421618119960265
O 0.8010844634602275 -1.60360723005713 -2.5668468716184507
C -0.09053258583609733 -1.079808027649516 -2.0405194202871595
O 2.328906888733275 2.685693656004433 0.5628097385646267
H 2.5186691762413798 2.9858575280895163 1.459215480664701
Rh 2.0692728723339444 0.6689249647628697 0.45475549574558155
I 2.7164248807056923 0.3756008187328852 2.9578912419846133
O 2.1336102081121227 1.0132445141115058 -2.518583660392779
C 2.0532519644237865 0.8868542409484736 -1.370349998389097
O 1.7465735308741348 -2.2890219121258997 0.1953012681002374
C 1.8655203821151498 -1.1398594290533994 0.3004833997982371
