12
## STRUCTURE-ID: 64568e986c0a2672a564e47d ; CHARGE = 0; SPIN = 1
O -0.24806688448761013 1.1933216222084582 -1.9867489393083266
C 0.9345158672706558 1.0264809698275037 0.7669185112981459
H 1.6596012978734538 1.6396326762938627 0.23006195050320513
H 1.3409043139433237 0.5244008704101609 1.6432741757739309
H 0.49119834679477875 1.2974431351114748 -2.5942611633141146
Rh -0.28173805001048075 -0.03248920449684269 -0.47817371064079084
I 1.25042710087024 -1.6626596432473708 -1.7868313675504164
I -0.820232799045334 2.1361444401190695 1.24470494174716
O 0.27802003760884764 -1.9273221788000574 1.8257193759390946
C -0.3761787753112244 -1.4015876175967803 0.9710479158764396
O -2.6405722736549575 -1.3047463498214251 -0.16870505967275792
C -1.5878781818516947 -1.4886187200080507 0.33299336934842827
