18
## STRUCTURE-ID: 645670114b1fa339975b5c2b ; CHARGE = -1; SPIN = 1
I -4.90147005662003 -0.5105550064299504 1.8483395549634296
C -2.7864379560035397 -0.4032591675505813 1.6196033517581712
H -2.3492970755468323 -0.258119560466198 2.598921171470917
H -2.5603999964102044 0.4318000214008531 0.9700308628254912
H -2.4450526847458622 -1.328913962946013 1.1741232750990926
O 1.5927781641889582 1.8069979866585928 -0.44196623191440954
C 0.5149397521825996 0.2911312488607799 -3.1261639386646802
H 1.1892415576699202 -0.3815940906683831 -3.6411376943736826
H 1.0681555057259353 1.0657178751699616 -2.6052953658379194
H -0.23014508112849572 0.7063036981081517 -3.7918157742016354
H 1.1508326933700388 2.532143892040379 0.003598997567929529
Rh 1.737309934330398 -0.026990782034372336 0.5004215281142609
I 3.6201253268210594 -0.7137697258030857 -1.2095860599965667
I -0.5066550130372047 -0.8455685698364609 -1.617672292312497
O 0.08414798972457846 1.2231444227362702 2.6481846237099442
C 0.7049002826674996 0.6840150655516951 1.834706877169832
O 2.1509019454951193 -2.63570221735565 1.893665047690624
C 1.966124711316068 -1.6367811274359745 1.3420420669316688
