31
## STRUCTURE-ID: 6456f6e2d607246b1a32dfca ; CHARGE = -3; SPIN = 1
I -4.650759848049436 -1.6597009938328078 4.389188845982597
O -1.4415805116488156 -2.967765499618847 0.959438666835481
H -1.3363107533757945 -3.823170815383338 0.5495569837223269
Rh -3.8538618254558603 -0.29568478766669626 2.323305140546118
I -6.277991761090789 -2.1920132139238264 0.8126972845643549
I -3.4447922211680706 -2.4861709782579466 0.8255302553429269
O -2.4338784928305466 1.4681662776364963 0.3839391439578074
C -3.104878754829837 0.7849222813593426 1.0416801579728112
O -5.255634636561942 1.9742346134939557 3.6567582810977255
C -4.700699628771763 1.1184493149040748 3.141430884914338
O 2.2569682800422237 2.9572188541125013 -2.8159647690545144
C 2.367387242635736 2.7520716527397013 0.5832096919089361
H 2.4370584735548837 3.6305876283479646 -0.046638003536906704
H 3.1643103425281978 2.050879414813706 0.3539494714666227
H 2.3633694040314683 3.008677940566053 1.635987998726009
H 1.3255618262397209 3.2124574741304355 -2.9297944626734913
Rh 0.5724338624377138 -0.8987589669775152 0.7526341544279079
I -0.7422788385800336 -0.5019678841235693 3.0794491767184384
I 0.5278743448601692 1.7355361953079669 0.12720902486893068
O 3.180538934008373 -0.5108481080025137 -0.22282641651079324
C 2.0923001141678688 -1.0360941433438131 -0.5203701993463506
O 2.0897535393959243 -3.3751462127407557 1.4164149827821833
C 1.4546450234373887 -2.40215816397483 1.2666848578497822
O 2.1513149688249573 -2.08017454356951 -1.4514713181033552
H 3.0707119174213933 -2.1866003523647826 -1.7547236821419778
Rh 0.8775443805603517 0.4733956541873704 -2.1524946294202145
I -1.2706594988247348 -0.9520549714706702 -1.5621517000753176
O 3.6022753227071775 1.2373470410416163 -2.5202173998741118
C 2.437893356382109 1.606564351707038 -2.5410915143069874
O 1.4098980613870522 -0.528630936808496 -4.91421241324236
C 1.1314873765649238 -0.1135681222883167 -3.867108495398958
