21
## STRUCTURE-ID: 6456773b08cb304a7c75cc1d ; CHARGE = -1; SPIN = 1
H -3.1680195400368154 -0.3412688751964562 2.4119888748249187
I -2.0670557439635058 0.6854989392462407 1.8105943039788832
O -1.4960287270011015 -2.4804498962959007 2.0915380798920538
C -1.4840947990803735 -1.452634950399791 -0.7808156592654317
H -1.71148929877606 -0.7189205804251589 -1.5658723416418552
H -2.423442516851971 -1.7093223332634053 -0.28417595825899494
H -1.1399062880951172 -2.3607702645974613 -1.285635223086441
H -1.5715909329127973 -3.2839716741282197 2.6483179366655034
O 0.302124173065853 4.002281377118167 -2.103658016165107
C 2.084599725529464 1.9684817061714237 -1.4773066210182186
H 2.2717451101143924 2.987710250796327 -1.7791119590741484
H 2.181110079030766 1.2920696800499445 -2.317574183223615
H 2.738202599681453 1.6663329518634387 -0.6664319755900391
H -0.5448716648284249 4.442876381931258 -2.1698846008850587
Rh -0.06607174501297708 -0.6097831156521267 0.5451255937260983
I 1.8531425072528744 -1.687441310504646 -1.010405369731214
I 0.08849813503566169 1.9095722421761303 -0.7990832769138201
O 2.3814003492632363 0.7852791476663888 1.6785644959311932
C 1.380741397067411 0.23661479049177067 1.497524867231763
O 0.6493008403492055 -3.040199534195274 1.9274753684096502
C -0.25829365983118957 -2.2919549328526547 1.628825664193914
