17
## STRUCTURE-ID: 64568b6157df0f23787ffa74 ; CHARGE = 0; SPIN = 1
C -2.568682749810461 0.912775320773955 1.2375008802630083
H -3.004911115297395 1.734620959882636 0.6710040860990677
H -2.6252670216708522 -0.026275579435850092 0.686058423078943
H -3.0614347652902016 0.8242243664921747 2.2058524420232772
O 0.6585744765239011 -2.9180866204322187 0.010825618633421704
C 0.2500388464919702 0.8178206428471799 -2.5169449749064956
H -0.3311094557916638 1.6035878027684767 -2.0509858007351807
H -0.1486733768684418 -0.16262108967711236 -2.285509115045186
H 0.32810258048162855 0.9719869475696961 -3.586317930619118
H 1.1480652064952608 -3.7466869293324 -0.1818187153995582
Rh 1.4238852583241697 -0.1412056569274546 1.0912739762251236
I 2.261622922653743 0.9252008371276355 -1.6894873631623362
I 3.0430827015336988 1.2915891222638418 2.557088046282684
O -1.1942653388461515 1.26913299202567 1.4905508552479314
C -0.20678872958730218 0.5695371600476541 1.2822674777851124
O 2.624596836281999 -1.9780105690740202 0.6267720647335127
C 1.4031637243761113 -1.9475897069199115 0.45187002949580957
