21
## STRUCTURE-ID: 645679082f1317329d051b97 ; CHARGE = -1; SPIN = 1
H -3.4042663011844425 -1.671836900196557 -2.183531356765876
I -2.026653357437115 -1.9224949730533785 -1.423184673789831
O -1.110500309855487 0.130298388671283 1.6295802644751578
C -1.5097401549498635 2.150329744772366 -2.3379103773051053
H -2.4193229057409833 2.4436831311855634 -2.843895774407347
H -0.9462143670036121 1.475010877136994 -2.969865723659143
H -1.758909024589368 1.6498880652318093 -1.4107102079626435
H -1.9696745912838833 0.11870756332216162 2.1027193807268336
O 0.5256399413496684 -2.2408743044208475 -0.13247238882777426
C 1.3256452119979965 0.4512101518124962 -0.050690293935865556
H 0.48622685733874516 0.2872785707863973 -0.7271007771154115
H 2.26239580859909 0.5074360257654122 -0.6161721045585337
H -0.9130916624252322 3.0259512517086296 -2.1185901064801316
H 1.0684206909318221 -2.8883840958163516 -0.5942961439292697
Rh 1.4798350072208142 -1.1362900847889004 1.2371514159130768
I 1.0280535510665667 2.403504171286701 0.7613498708714881
I 3.8149500659529236 -2.383210844581625 0.7352572037054881
O 2.708960074704818 0.3252954989479238 3.526806359663434
C 2.249793524751748 -0.19583495810381482 2.6096050344369943
O -0.5894121390287472 -1.6870324096457274 2.820114581183128
C -0.3021359204154237 -0.8426348700205571 1.9858358177613165
