13
## STRUCTURE-ID: 64568c240f635171754d3030 ; CHARGE = -1; SPIN = 1
I -1.4687373674148274 -2.6839587960844264 -0.7333281568181279
C -1.115741814953512 1.0160888591974555 0.33449115570741755
H -2.0323511703490635 0.41913270338105485 0.23321186045505082
H -1.1386240251532478 1.781762904919819 -0.4410754388060725
H -1.1213418933656045 1.4811903079617517 1.3194019104762096
O 1.170558108494037 1.423205575511387 -2.834130794156231
Rh 0.2344356557846614 -0.7362229831629543 -0.022259346059415083
I 2.5148094256518667 -2.2001130242567566 -0.3371752176576175
I 0.19722996305601656 -0.1529214972229704 -2.610435815353932
O 0.21889978026921555 -1.9015416329084782 2.744773160366249
C 0.1927523691684665 -1.3906755301099434 1.7306769577929586
O 1.4526168013620986 1.9712406030305443 0.3587839630667571
C 0.8954941674498981 0.9728125097435206 0.2570657609867569
