12
## STRUCTURE-ID: 64568e29dc536a7ed8068a10 ; CHARGE = 1; SPIN = 1
C -1.515930887821614 1.7255092506071048 0.17792961096024365
H -1.4848054177619339 2.749959299316762 0.566650290043247
H -2.1691379903127146 1.0926605446665372 0.7896754199545449
H -1.974926808467728 1.7305708941640874 -0.8219131727592305
H 2.1355741327473643 -3.2894593685127402 -1.9224647863583533
Rh 0.6167790163757887 -0.6334393019349313 -0.2012565415231313
I 2.8070543096022185 -2.271078659347453 -0.9095192715890138
I -0.9600673119806826 -1.2740864241261598 -2.1224105128421815
O 0.9504797466435312 1.4818215782373882 0.11405675367822463
C -0.19661392900195876 1.1963513452233352 0.08541432554161013
O 0.9350830227640698 -1.442816207066642 2.653665007461402
C 0.8565121172136584 -1.0659929512272812 1.5901728774326276
