18
## STRUCTURE-ID: 645689394d39205cfd2c50cb ; CHARGE = -1; SPIN = 3
I 0.9281332666598897 4.252211400266898 2.185883892333791
C -2.207347355471801 -0.6346144897638599 -0.8828999083594482
H -3.051259107677943 -0.3156853867267097 -1.4853866013859283
H -2.1726415058175976 -0.05023386866492804 0.03540389671572428
H -2.2936636496135923 -1.6830580615236226 -0.6116687859447388
O 0.11437183040743591 -0.9625563332395386 -1.0202369225943
C 1.1723044343834828 -1.811601503879463 1.9006267306642988
H 0.971451534293622 -2.4812040707157514 2.727993038050103
H 2.2293232266856795 -1.5868556280520787 1.8138945421149353
H 0.776033019140623 -2.1859425001401767 0.9645542591110875
H 0.942711164179692 -0.8534591962021412 -1.5222272525543274
Rh 1.111952113693842 2.0430734345555916 0.6873800360938649
I 3.3100714790696615 0.8937886891974457 -0.2754874318894903
I 0.1391841232915239 0.05946046632650023 2.328254128623658
O -0.8312924863480482 0.16393261296477618 -2.6958433224064033
C -0.9323193055178319 -0.418970735757799 -1.638633918170752
O -0.17037279236837655 3.154866956625088 -1.7025368996493397
C -0.03663998899015012 2.4168482147296633 -0.8090694807527972
