20
## STRUCTURE-ID: 6456b727298166387e6a6038 ; CHARGE = -1; SPIN = 1
C -2.3840268770180595 -1.2258523221559823 0.8371514391049669
O -2.2487150102104096 -1.0218271591697246 1.9504037213939016
I 1.1404982613349002 -0.7018474077824189 2.6593348372691263
C -1.5290802080416546 -2.493224613698192 -2.0061808051779426
H -2.036540497715221 -3.432965385071465 -2.1890626755704083
H -2.2262801075319945 -1.705163952630171 -1.7383670119077361
H -0.9068767467745287 -2.205397105600677 -2.8457059809444263
O 1.9255253182006986 2.15579865684123 0.2901353588722369
C -1.2120204005950428 2.066640489231931 1.5490291516328927
H -0.18091313432297765 2.3314774426385387 1.749087170953346
H -1.5504798673684106 1.3110630922144324 2.250991399740687
H -1.8558979201616452 2.9361289405529227 1.5567943562152526
H 2.579585750969284 2.874760870736434 0.3875981543879346
Rh 1.2863133471032315 -0.5644259329204065 0.018712648324496185
I -1.281880150480407 1.214041190964541 -0.409998421483512
I -0.2348787073723768 -2.77386705057651 -0.28960099926967126
O 2.4918618286564667 -0.18939457530701628 -2.6816494116340555
C 1.924020343932551 -0.40817562563153115 -1.68705674049311
O 3.762526810303988 0.9029046329642876 0.34925486405869494
C 2.537257967091589 0.9293258143997566 0.24912894452733542
