21
## STRUCTURE-ID: 64567656f58daf4e0e40f1fc ; CHARGE = -1; SPIN = 1
H -2.155714891663311 1.9158200385343993 -2.4359606551472472
I -2.5632250874579756 0.44971259572563377 -1.9988117828147842
O -1.4874316613933056 1.8714009529267195 -0.06315061344413617
C -2.032886690890073 -1.557029207191287 -0.27339991731879626
H -1.9048614444960767 -1.2262989728486466 0.7542611524238987
H -1.5049447911121019 -2.4589379821006467 -0.5745448760324128
H -3.084229788864865 -1.671936991223072 -0.4939952497504185
H -2.222359015023929 2.3165997481515985 0.36319617829743756
O 2.060974148248503 1.1421316175172955 -1.2769982061530418
C 1.6993710694361184 0.6169054386659304 3.0784204383593408
H 2.595485015604766 0.29919858434081137 2.55608764011936
H 1.342827545930864 -0.18734415282999883 3.710524951115655
H 1.9100802267787818 1.4962200521792015 3.6740867448166066
H 2.29865652279767 1.8365645527385526 -1.9237769854351572
Rh 0.4610395166079329 -0.796926815207634 -0.20892297829312081
I 0.1691810833653634 1.1210555433965257 1.597270114441186
I 0.9459966280210644 -2.709590676339746 1.6352731768787896
O 1.459870843554605 -2.3419910093797554 -2.542845462025769
C 1.0095375753287006 -1.8160025995820208 -1.6135286406539096
O 0.1789901171932931 1.0580081900342606 -2.4560785109753978
C 0.8236430780340707 0.6424410924919216 -1.507106518408139
