18
## STRUCTURE-ID: 645689384d39205cfd2c50c3 ; CHARGE = -1; SPIN = 3
I -0.41281466666076655 3.305423730745745 1.74056770701268
C -1.9054088013989896 0.500740982384325 -0.49460374292660353
H -2.327535233940498 0.8778356148714684 -1.4265098937019707
H -2.3473947436115092 1.0685140856708548 0.3368211151796487
H -2.206162824463666 -0.5368072768693657 -0.3604944247729998
O 0.03383673917978114 -1.4078867004741185 -0.8352207831912365
C 1.6399827047582316 -2.045988005350318 2.0095962203871895
H 1.457887415122336 -2.897027883562568 2.6539843139519332
H 2.5697344802250144 -1.5450486590160764 2.2544546160459658
H 1.6152607837658277 -2.320078145901456 0.962256123381893
H 0.129221045636685 -2.0594043139341394 -1.5562055946929225
Rh 0.13551184078727108 1.2769120783793046 -0.013329688403253296
I 2.8045108723323957 0.8607295903318427 -0.16390707745162933
I 0.03115292418973472 -0.6339416392843179 2.332852555408278
O -0.17630760770531775 0.016428018605873264 -2.5406011555771233
C -0.167025413807304 -0.16716767505230093 -1.3347094638308927
O -0.8790183397130327 3.05284381128573 -2.1004273339804405
C 0.0045688253040864464 2.6539223871696658 -1.4645234928384432
