18
## STRUCTURE-ID: 64566ee01d580404fa7cab7a ; CHARGE = -1; SPIN = 1
I -1.1208435944828292 0.6109522882752749 2.2796806936253247
C -1.7824896334610254 -1.7067976976141133 -0.12870770014730068
H -1.954183228551763 -1.050881815845715 -0.9935896457478782
H -2.6312185201763056 -1.5690769899350094 0.5488716522438601
H -1.8374973021967165 -2.7352039249013247 -0.49901024303188946
O 0.6233906016273182 2.493587173560231 -2.737823608301114
C 0.7583496777079459 2.548739676821774 -0.03710204438524403
H -0.2286722009220744 2.9144495382361613 0.21507266817079213
H 1.2797345143933418 3.259016215828079 -0.6631481560052551
H 1.325309185336099 2.3115285032742796 0.8552869065308144
H 0.5113277767192349 2.1500376912765673 -3.624082118008485
Rh 0.12529930697071806 -1.1643019568960458 0.681044007654447
I 1.2647575972685727 -2.6135409459439045 -1.2771178934310488
I 0.5549631786581078 0.7935436454745153 -1.2156160981713655
O 2.772458848532072 0.19540358136901637 1.3236098261065863
C 1.817790494692195 -0.42759597829997154 1.1585511529593748
O -1.019423054642614 -3.40603502731726 2.3524634101342095
C -0.45905364747230104 -2.6038239773625635 1.7616171898041781
