12
## STRUCTURE-ID: 64566675154c7451432fdd94 ; CHARGE = 0; SPIN = 1
O -0.12596185783653374 0.5759758190413646 -0.030934497622475642
C -1.091493042169004 0.6315775659026723 1.0041390268005208
H -1.815011594750819 1.4261730593588626 0.8129806618126724
H -0.5540443171402853 0.8434528368761941 1.9260766351402734
H -1.6356246214170302 -0.31159699742215213 1.1028534262883851
H -4.595239087361636 -0.41781038644141466 -2.0287150502475515
O 1.8865077695839851 -1.0239603350647997 -0.844668518455935
C 1.2591746560637145 -1.0469264982361526 0.18491474708003755
H -0.5762772120075934 0.461624329771298 -0.878721105095046
H 1.6205750518382704 -0.5501934606998145 1.0962965699913498
H 0.4147397752204707 -1.7344278938695115 0.3421025251654757
H 5.212654479976483 1.146111960783439 -2.6863244208577153
