12
## STRUCTURE-ID: 6456692a500f4c3374493a70 ; CHARGE = 0; SPIN = 1
O -0.8089173187030196 -0.2221965304985783 -0.7489805817026196
C -1.7978512663244612 -0.12177597730910238 0.2928907100785291
H -1.7599433529366812 0.8477402507173996 0.789019197198395
H -1.5892828112083708 -0.9061444145896143 1.0172208788141888
H -2.776156598978675 -0.28842851751395604 -0.1540741773684156
H -0.9885929664291987 0.4602362102405314 -1.4298941718451939
O 2.8462154489166447 0.4345839126974194 0.4991166857949136
C 0.6668405018867397 0.016098840710982994 -0.23392433400825582
H 0.7095496801352924 0.9915988197676935 0.2212009605983243
H 0.8466620388090178 -0.7759942574829322 0.4731680633862001
H 1.2819288525806958 -0.0675474966509099 -1.1133446545707384
H 3.3695477922520207 -0.3681708400889329 0.38760142362466665
