12
## STRUCTURE-ID: 6456683e9cb1253c080b3f6b ; CHARGE = 0; SPIN = 1
O -1.9028965271966343 0.7536951219640526 -0.7122432732987743
C -1.6208806726141807 0.1981981025137966 0.4531754096923944
H -2.0797308422905143 -0.7652746749037473 0.6848521345971916
H -1.6592942267633448 0.9301018780632064 1.2613418225418138
H -0.3744182620530399 -0.10707188416071274 0.4907313269418117
H -2.144494358765389 0.12590701158079057 -1.4157320900987047
O 1.0932084517108072 -1.3375309375085416 -0.4095228882260262
C 0.8210435249796497 -0.521774056226632 0.6002860526437948
H 1.374387506204234 0.4172253458567117 0.6582274410484993
H 4.273630187503984 2.2757537326736443 -1.9592012456707006
H 0.7578193089615699 -1.0699862577048294 1.5416133507366667
H 1.461625910322867 -0.8992433821477288 -1.1935280409079752
