12
## STRUCTURE-ID: 645665e5b1015c4dec6cdb4b ; CHARGE = 0; SPIN = 1
O -1.6874058797869287 0.40258093496293623 -0.5199184397372354
C -0.7556232056317408 -0.29234698512861623 0.47335698356050937
H -0.2254739858607259 0.5292936328653649 0.9675317981485418
H -2.317845847222165 1.0144885469654137 -0.07324020774135169
H -1.3754193639487633 -0.8672420469838374 1.1658600201291345
H -2.1577496481113876 -0.2783338502083177 -1.0620235148697925
O 0.027608007353938844 -1.14028476987287 -0.21130324140371534
C 1.1718346933020534 -0.5705062671595582 -0.8455254315476379
H 1.713555385147915 -1.4007438794312665 -1.2891845572187106
H 1.8094682120628862 -0.06784429987050311 -0.1147364648168196
H 0.8787074625276052 0.1382602217994531 -1.62114335459368
H 2.9183441701673094 2.5326787620618814 3.1303264100908224
