12
## STRUCTURE-ID: 6456664264861161f3610abb ; CHARGE = 0; SPIN = 1
O -1.206637572437672 1.1246393259446241 -1.68971826851892
C -0.8173270363577713 -0.5823655320109195 0.49449242444032193
H -1.097099483469343 0.08853478709775581 -0.3873039410751406
H -0.6927487618508753 -1.602706077038606 0.14204577551198921
H -1.5748512345897407 -0.5191734786917819 1.267905571591896
H -2.138906783517762 1.2790163137990869 -1.8726433551821342
O 0.41665784612588935 -0.051251276091850956 1.0370118575026168
C 1.410627882459766 0.17886842668283698 0.015709949437470207
H 1.7587562870661646 -0.7554375118918878 -0.4223540578129276
H 2.2293934998849463 0.7346423927756338 0.46571702211940164
H 0.9303516631139662 0.7773255313743556 -0.759597830700373
H 0.7817836935724387 -0.6720929019492468 1.7087348526857957
