12
## STRUCTURE-ID: 6456657484d6e56b205ede00 ; CHARGE = 0; SPIN = 1
O -0.9072356969880198 0.2851947622612896 0.13792277768728378
C -0.6606158621060478 0.18758894866361112 1.5002696492327723
H 0.23924141461162726 0.7702171436035742 1.7252743721591013
H -0.5411958328887697 -0.8507487095123483 1.8224188700868822
H -1.4748086463784549 0.6631664296124319 2.048765127990771
H -2.7278369653764405 -0.023197324657982934 -0.09293297810400597
O 0.661682213303893 0.6138981134294358 -0.5430259569224972
C 1.1553637295493486 -0.5244131904189442 -1.2313184267536426
H 0.4296713503293682 -0.916141584753887 -1.9434617500604254
H 1.3924763934545896 -1.2845527417140172 -0.48935294710674554
H 2.0656464978829856 -0.2178016681293258 -1.752329888978779
H 0.3676114046059159 1.2967898216161573 -1.182228849230709
