8
## STRUCTURE-ID: 6456645b36dd301f25068a1e ; CHARGE = 0; SPIN = 1
H -1.100799563928866 0.22593720788363647 -2.4715364765305874
I -1.9896590095354083 0.4083044088240588 1.252510600297761
O -0.5277540446247777 -0.40246554987578176 0.09979165959174222
C 0.831856203308854 -0.06384389860607897 0.4335782367228527
H 1.052964495226788 0.9966713874957593 0.30909086698608707
H 1.4523435026846272 -0.6470597722323086 -0.25005961602912397
H 1.0105069225433292 -0.3758128510931249 1.463493753872052
H -0.7294585056745496 -0.14173093239617182 -0.8368690249107776
