12
## STRUCTURE-ID: 64566dbc3d160854ff750eea ; CHARGE = -1; SPIN = 1
Rh -1.3984956276649707 0.2547963784862281 -0.10001435057185576
I -0.34348210814489644 1.6862428919882528 -2.0694787626237394
I -0.5438369574273932 1.8759058558469237 1.820116124525985
O -3.0058705743397374 -1.0874138578868082 2.0278493888660103
C -2.3670687716523293 -0.5917865092175497 1.2053956139522986
O -2.8293801832646275 -1.2476150720670534 -2.2469017091242875
C -2.2553158858138134 -0.6936887456564559 -1.4139557515669812
I 1.2698657670366693 -1.4834276449658323 0.11114623694179096
C 2.7072361941813416 0.13618351438896242 0.16107477127916375
H 3.348266048068851 0.028552778196436167 -0.7046235595626641
H 3.25874712012385 0.05165558741991745 1.0888414925674703
H 2.159334978897053 1.0705948234669722 0.12055050531683115
