12
## STRUCTURE-ID: 64566af4ee55652c63068a21 ; CHARGE = 0; SPIN = 1
O 0.1300958409853035 0.5772928478043445 -3.1332222600386435
C -1.7372038627200623 -0.07472782836851961 1.7285098828212948
H -2.524325305925466 -0.5549329761376238 1.1618839900721638
H -2.0908944977039816 0.8779482141307737 2.100584705308528
H -1.4579807882445843 -0.7059706605845715 2.562035143997765
H -0.7777622365850309 0.8726051838812798 -3.0284510277224177
O 1.181049929617101 0.0980442011860435 -0.4090478819569399
C 2.2237673861898486 -0.38109634499821765 -0.058153210767432614
H 2.9648627623059394 -0.7582168618006598 -0.7757568996260564
H -0.8785890528755996 0.0835797529194231 1.0891000833685274
H 2.4963626101163907 -0.47049496720439554 1.0020122409583965
H 0.47061721484015007 0.43596943917212727 -2.2394947664151967
