13
## STRUCTURE-ID: 645673cbdc081a3d9515986a ; CHARGE = -1; SPIN = 1
I -1.8316982412482157 2.216929206541172 0.7490187238775508
C -1.291575813291103 -0.9002305866086904 -0.5726451494519348
H -1.5855901245417305 -0.7406167540746263 -1.6111555394418562
H -2.179126516652156 -0.8336574994036263 0.05707704036336995
H -0.8754404878842933 -1.9044530893958063 -0.47128166475248917
O 1.2276954921750363 -1.6679965956859304 2.786173690525124
Rh 0.13000843691576552 0.567626555051046 0.08304937344360011
I 2.2017284225077165 2.3188291402363173 0.8211792843961818
I -0.06961045978643333 -0.3423981442734204 2.5710331485639353
O 0.2057703995989614 1.944085185731463 -2.5807969599031484
C 0.17058340856392842 1.375279490880171 -1.5999376233405986
O 2.3861635409181474 -1.379432487917423 -0.12168859723873597
C 1.511091942724475 -0.6539644210805851 -0.1100257270410494
