12
## STRUCTURE-ID: 64568ed953e8a21a237cab7d ; CHARGE = 0; SPIN = 1
C -1.7444320344204862 -0.46872005492565605 0.016394516796347607
H -1.9847203574217887 -1.5290772274089326 -0.11882642462548976
H -1.9559977121719903 -0.1334623099726671 1.0317758976272318
H -2.24555033581706 0.15228995553192284 -0.7286283435276775
O 2.764636397828884 -1.6050780691876798 1.298958831240165
Rh 0.3180122048562205 -0.40077591556436665 -0.36407177932844864
I 0.28094464206542163 -0.7933623248603454 -2.8704891225667715
I 0.9956569121390683 -1.6034952425023519 1.8281706708176648
O -0.7148152755725363 2.349062227717494 0.15794427048184798
C 0.1516981939261363 1.5560945484705238 0.010417304719120625
O 2.653978305287176 1.2295389015142748 -0.1439241660975599
C 1.480589059300963 1.24698551118778 -0.11772165553642108
