12
## STRUCTURE-ID: 64566787bb77813ade051b88 ; CHARGE = 0; SPIN = 1
O -1.235379024191592 0.06265020934751235 -0.903720378715275
C -1.8145452907727675 0.2853513955076489 0.36679838545444154
H -2.005684956608913 -0.6572368738582784 0.8873161746836662
H -2.7460901885477784 0.8504550731687109 0.2840424610533651
H -1.0975084822353351 0.8696142159760462 0.9406203519522267
H -1.8625136807342046 -0.42333134650073473 -1.4528566972836239
O 1.467834123724315 -0.8704555634529125 -0.776847560360661
C 2.0568350423862305 -0.0441411053518576 0.19896247300222028
H 2.0607784922131716 1.0049808125411843 -0.11330553810216382
H 3.0858328717940116 -0.37950616891941297 0.3228934775272111
H 1.5392690086150627 -0.12904970915671507 1.1604176184827126
H 0.5511720843577959 -0.5693309393011925 -0.9143207676941274
