13
## STRUCTURE-ID: 645673bfd9b4a7479b1d80aa ; CHARGE = -1; SPIN = 1
I -1.7309128296172405 0.8999935819167812 -0.03886203631340748
C -2.7008732704990464 -0.9256503172590445 -0.7428015816500355
H -3.76063177398439 -0.7155481816622854 -0.8124439372679666
H -2.486442692200932 -1.7081149125007375 -0.024732571616754448
H -2.2721282940945984 -1.1690373366508247 -1.7074996937146465
O 2.6219786613062825 2.4285931210591567 -2.0748728172327584
Rh 1.2706910741016284 0.025694924346075048 0.4422529665103555
I 0.8022106017358467 -2.311851915925002 -0.6107882262514673
I 1.9745901261205219 0.6702748771400675 -1.980386708967666
O 0.8601428417354586 -0.9368279394698787 3.246577802984942
C 0.9931083198447735 -0.57494779339243 2.1660502285843233
O 2.457003579885625 2.668598446159387 1.1761203205196142
C 1.9712636556660554 1.6488234462388311 0.9613862544154821
