12
## STRUCTURE-ID: 64566785c47b016ce05b5c28 ; CHARGE = 0; SPIN = 1
O -1.7181757174227925 -1.5205811547860688 -0.3919417114034401
C -1.8203688093151742 -0.11802969394923271 -0.536150388351368
H -1.062304667335656 0.39919724918899446 0.05670044678086242
H -2.8133499208140167 0.2407706835431731 -0.2470610404434118
H -1.660924147322349 0.09804548728291466 -1.5913479717375694
H -1.7999069087467487 -1.7380504026001722 0.5440106652511502
O 1.0935014406601564 0.7776686644377918 1.0987935387627121
C 1.9016965391122862 0.21341671795222592 0.08773862871399431
H 2.825656467493314 -0.20284227431901117 0.49955163867290675
H 2.1480869775397458 0.9502773645567414 -0.6824821732585343
H 1.3230791232469166 -0.5896514447170793 -0.3657994215766498
H 1.5830096229042778 1.4897788034097361 1.5279877885893773
