12
## STRUCTURE-ID: 64566846703d4f738c630f1b ; CHARGE = 0; SPIN = 1
O -4.193432216850622 0.11990328901824053 1.1471528486332603
C -3.4101370562856292 0.890400177338349 0.6125126876524536
H -3.280821185012341 1.8734546715770126 1.0820978498193174
H -4.355023360422451 -0.7848414723052745 0.7690201127899005
H -2.843867335656131 0.6669213456373875 -0.29801490163223915
H -0.43575554225917923 -2.575615319998552 1.411963230917848
O 3.8560244046046193 -0.3741791414861056 -0.10729378451879926
C 2.961590442024182 0.22101574463849485 -1.0227590175972765
H 3.3778341674969394 1.1960766961767237 -1.2692937354751093
H 1.9692386706503244 0.3525168697586382 -0.582561795572907
H 2.871024934191068 -0.37540591459701 -1.9365216733620263
H 3.483324077519253 -1.2102469457579184 0.1936981783455251
