39
## STRUCTURE-ID: 6456fe3f454ec90e951dbeb4 ; CHARGE = -3; SPIN = 1
I -1.437411684408778 2.092417464162483 -2.758275436028149
C -6.295123755721446 -0.5138149623930901 -1.889742227028217
H -6.520615844322653 -1.5598691667119977 -1.7208797441958612
H -6.867025028854601 0.1490820571951535 -1.2519934821044307
H -6.4163059359224714 -0.25234555259685687 -2.9354903104158048
O -2.9899280310513308 1.8005236336640922 0.5882282332157381
C -4.651767083308632 -0.8616975413366189 0.5028877437952012
H -5.3862324808257895 -0.16220664369961596 0.8855885160692156
H -3.7656819876148706 -0.863225684732278 1.1263653504882778
H -5.055775857498057 -1.8630785650320987 0.40402226972587274
H -3.0820600456888636 2.5182469058235464 1.2475922945057372
Rh -1.3618269836291736 0.10608239674317299 -1.0113801715343225
I -0.8830825604479711 -1.8292025135888283 -2.770437728759864
I -4.068161213975369 -0.18325002085552927 -1.4566777813055238
O -0.830626827134038 2.0372459781715397 1.0510068072556908
C -1.6850839902457078 1.46865725082752 0.3485400374444031
O -1.3726146270379167 -1.411714306881181 1.541899868176695
C -1.3196404095951015 -0.933424686537241 0.4700085928165585
O 3.3917802606804703 1.3607679793785945 -2.6112796112174967
C 4.181018915219576 -2.083637280742572 -1.594949309477165
H 4.676139712347942 -1.7219749241194806 -2.488664819480976
H 3.103622643843327 -1.9734352433787368 -1.682234290031829
H 4.445733381273686 -3.1121128869492707 -1.3777553629201424
H 4.283618863307004 1.7247836555184848 -2.4627342409149353
Rh 3.607104827823284 -0.8936391456425457 2.495654967430844
I 5.550388172814942 -2.2658543762199286 3.600175368318148
I 4.789724485588162 -0.852341662851771 0.07867753032397605
O 1.3489428808511312 -0.8358536528129469 0.792125113913535
C 2.0008769298425673 -0.16214221379687113 1.6136795663684023
O 1.1120168401537724 -1.606215489044963 3.9558939063456457
C 2.1766082141102783 -1.4100893238627896 3.5023603447045377
O 1.4122156553998249 0.9567819564209343 2.1899677237746444
H 0.5826467133662856 1.2139417780081474 1.7272137271172976
Rh 3.587111452728414 1.4488270713417857 0.2771663328185204
I 4.940870265022746 1.6844221979063125 2.564336376507516
O 1.5427248818440207 0.7252822182104425 -1.6054233201456336
C 2.680050797414537 1.1423603845812682 -1.440026310121097
O 1.9086955607882323 3.894569947494068 -0.03141817007703815
C 2.6670728928633456 3.027132968340051 0.1259716446419614
