12
## STRUCTURE-ID: 64566a5e9e361c2e172cdf8b ; CHARGE = 0; SPIN = 1
O -1.0675338713152838 1.6996606215071768 0.019663942568066552
C -0.4706812237657321 0.6992256462528057 0.7843768368599467
H -1.208854245831551 0.163245392430484 1.3975669112497158
H 0.24999585262487206 1.2137824488630742 1.436899057779246
H -1.2793492598941332 -3.2068978291432044 -0.04616858111000054
H -1.7507652322946623 1.3103391963801585 -0.5436920178010765
O 0.1580940119102147 -0.2845968931568315 0.01874257829867076
C 1.3342619425274957 0.16194429490975967 -0.6362715739366166
H 2.101367276094966 0.4291873343070788 0.09791501958105159
H 1.1242025524744708 1.0288171877183947 -1.2683372214515738
H 1.6773958641950397 -0.6692654984461017 -1.2469488108392572
H -0.8681336667270744 -2.545441901622993 -0.013746141198457865
