12
## STRUCTURE-ID: 64566b563c3dbb348d7ffa94 ; CHARGE = 0; SPIN = 1
O -1.6371280564454092 0.283485797379583 0.1177090628694244
C -1.0629031032932112 1.5076371432000795 0.2009839009696644
H -1.3649344134384107 -3.0372378709513033 2.166817364147227
H -1.544618400403729 -2.282213769926044 2.121664652045614
H -1.113203127501602 1.8908968620377418 1.2105400108171633
H -1.5822405100404864 -0.044281413750078054 -0.7917951055589998
O 3.043717085907363 -1.790985720660156 -0.980079540845545
C -0.5027603628452288 2.1772197156590756 -0.7912703230371346
H 2.553618591883756 -1.3384530404022068 -0.28872099499866377
H -0.45786099217751225 1.7849852300584537 -1.7932213711203135
H -0.06874209725578807 3.1441366555940005 -0.6261916569319628
H 3.73705538561026 -2.295189588239155 -0.5464359983564635
