12
## STRUCTURE-ID: 64566718ff623f022d6dc16e ; CHARGE = 0; SPIN = 1
O -1.1745703682921291 -0.5675904918771428 -0.5550261165216352
C -0.9331945527480615 -0.32194656557368523 0.8123102105609286
H -1.6070101860284562 -0.9886088019542811 1.3589837266578224
H -1.2039516875243383 0.7162335636975232 1.0595815765327323
H 0.495133549696056 1.9703898044463257 -2.082733515107861
H -0.5222087656121026 -0.04930176510002441 -1.063354655591526
O 0.7417647980302244 1.0570010039512525 -1.9127433127751947
C 0.5154549692206023 -0.5817898230076194 1.2097845562676037
H 0.779226039779962 -1.6166797977763805 1.0062734319971072
H 0.6524986251680938 -0.38124615902942544 2.26832361453856
H 1.175035338647457 0.06533655392990319 0.6356073608569748
H 1.081822239662706 0.6982024782935524 -2.7370068774155154
