12
## STRUCTURE-ID: 64566af04881014d084dd541 ; CHARGE = 0; SPIN = 1
O -0.0533932466519044 0.8163802896859361 -3.01333734564839
C -1.6604621412586926 -0.27791104882231804 1.7605047860007346
H -2.4513001998340322 -0.6806258722678006 1.1412123496609066
H -2.0087633260846545 0.6222683870990022 2.249899019519244
H -1.3810674784498145 -1.0094425519979284 2.507545214993589
H -0.9001280550444166 1.2354499903239116 -2.840672770097034
O 1.1611664301105733 0.16001585522090336 -0.404321124859066
C 2.2424245754548973 -0.31822262710897303 -0.19881625030881847
H 2.9157532439394944 -0.6128615508745007 -1.0150138941485516
H -0.8032976779588658 -0.04453144308293856 1.1425562129541584
H 2.6199434990244668 -0.4884688128940604 0.8184509595128215
H 0.3191243767529776 0.5979493847187527 -2.148007157579612
