17
## STRUCTURE-ID: 64568ba19efa80106a233630 ; CHARGE = 0; SPIN = 1
C -2.1663502547102436 1.0774728197409995 -0.5412618753591965
H -1.7453270063769735 1.1861112902042907 -1.5469453542212481
H -2.7136437739357278 0.15432407342007337 -0.3566080200871309
H -2.7865852895101484 1.9335581604943088 -0.3186647084153699
O -1.9341661342602856 -1.8571530517993093 0.962663468703664
C 3.035562514591505 1.175228670578498 0.11931134185375628
H 2.6403465328779867 0.2873246612659075 0.61320137380621
H 2.9724500594544336 2.042341912630642 0.7668492103627119
H 4.046789840480298 1.0109516439565787 -0.2314124548006072
H -2.183191028524582 -2.5038925210163865 1.652444337324867
Rh -0.0942093069957203 -0.14302944044729127 -0.2715265935726846
I 1.7974671326462828 1.5636464937219228 -1.607128160914304
I -0.711282898205463 1.7274629764646257 1.381228730240378
O 0.22863117667145413 -2.5503316940115437 -2.0377663216861035
C 0.12519831831371744 -1.5975005454342879 -1.4045451343543662
O 0.1352360978476637 -1.9879746189360599 1.8116519819789814
C -0.6469259803641869 -1.5185408308329855 1.0085081791404427
