18
## STRUCTURE-ID: 6456728e6392e14edb5c71be ; CHARGE = -1; SPIN = 1
I -4.7743486553731715 1.0278703462581578 -0.08663205520711882
C -1.589959359671815 0.7138047499822319 0.34467388949640176
H -1.8516837891759355 1.7596010393089245 0.4930959482416276
H -1.8366546220454778 0.40169812943254996 -0.6717853585442333
H -2.08145241153451 0.08777465405479493 1.0828916173429188
O 1.6237833158586215 -1.1201000367817953 2.2749386216413483
C 1.2259728438694242 -1.1583119345693826 -3.129106885099945
H 2.1411151813205835 -0.5766336690837351 -3.0983432637904205
H 0.4094253906417682 -0.5713866867656137 -3.535508707299507
H 1.3552634134981307 -2.0901744212486513 -3.668200270826265
H 1.7078209816381122 -1.7548007548746016 3.0159760542669356
Rh 0.5187240054387323 0.47517856969981304 0.47476203013911106
I 0.6938016183727717 -1.6819408138001102 -1.0721416849631988
I 1.5362115222971215 2.111820212484355 -1.3441985989443552
O 0.6007022944025351 2.5974080575435767 2.5503160284685897
C 0.5578162915700425 1.7864281534576008 1.7421032550864377
O -0.5859594423519981 -1.2230376088353818 2.625739423096752
C 0.34942142124506687 -0.7851979862627352 2.0014199568949125
