13
## STRUCTURE-ID: 64566e316916245e08293420 ; CHARGE = 0; SPIN = 1
I -1.9247977096718678 1.0475744189118188 1.0272109066837354
C -1.9349903862700264 -0.8008404067413522 -0.7849491852908604
H -2.522748239428847 -0.17027811981510013 -1.4390073500852547
H -2.542578097326401 -1.4428087769778137 -0.16319599283309466
H -1.1880724816037518 -1.3700349679472503 -1.3515922806620817
H 1.7431703236128195 3.468511686744076 1.186310329252919
Rh 0.268093374830856 0.0258966935124728 0.020678028120763532
I 2.2129320875734355 2.1405455804463482 1.891952608548375
I 0.37852332075936856 1.7380340190092705 -2.0067046865677196
O 2.741995318156605 -0.9867277671555549 -1.3485005154146787
C 1.8004689048956104 -0.6403148751191822 -0.8089504757317898
O 0.552692453940512 -1.847521254516841 2.338219866796885
C 0.4153111305316975 -1.1620362303508607 1.4385287471828039
