12
## STRUCTURE-ID: 645669b3a9ef1136cc4ed2b6 ; CHARGE = 0; SPIN = 1
O -0.7099073128208679 0.49014933147335826 -1.3184407694280669
C -1.3310943644940607 -0.2307670223549341 0.5065034476923984
H -1.2498118446762194 0.3228377115057663 1.4292726044452708
H -1.0921480019494783 -1.2801504028653727 0.5532914746830657
H -2.258106856169789 -0.006208144913824427 0.0030079584243387918
H -1.046523896419054 -0.19465109490927437 -1.9091754874901243
O 1.6455136294605825 -0.09862705537666297 -0.8827802218004399
C 1.5141622064077123 0.11979961597787837 0.42597461193685315
H 0.38547002121553137 0.051470436693974296 0.6490580599170902
H 1.7977581529335356 1.139660971060511 0.7502191001993935
H 2.0239926976493767 -0.6249385780379231 1.0611778402675274
H 0.3206955688627394 0.31142423174650613 -1.2681086188473139
