18
## STRUCTURE-ID: 6456711fbc9acc24a973b9f1 ; CHARGE = -1; SPIN = 1
I -1.4768946984028257 -0.6254756792575134 -0.9067111746343927
C -1.6533284404838864 2.829634386133707 1.3665135452022201
H -1.5844363516271232 2.5521216406136737 0.3157583631482786
H -1.1307393237614405 3.7711255016834344 1.520646658022996
H -2.705472968095429 2.967131659925544 1.606575035986281
O 2.0818850191372955 -1.7527742686115402 0.0094898269588626
C -1.099360707374279 1.7363474664643817 2.243122351678615
H -1.157259248656347 1.9858319676655367 3.2981628170064377
H 0.029289681059042994 -0.651645166656769 -3.8758042122755847
H -1.5823989236143652 0.7854401003060055 2.0395648962569632
H 2.787094580561017 -1.344832565431052 0.5667014164990873
Rh 0.37991670132653954 -1.8330767054810173 -2.2382911385722304
I 2.224174504272821 -3.1789580392279397 -3.5009650281095612
I 1.0104473634561668 1.3905604649812 1.8627501504087325
O 2.180448153501786 -0.025050716393153472 -1.4396988043006387
C 1.7561426994067542 -1.0739329577268086 -1.0459807472756086
O -0.1624046912638376 -4.243041897759761 -0.6269814283626046
C 0.10289665055820701 -3.289405191227967 -1.1948525276379143
