21
## STRUCTURE-ID: 645674dbd3c45746377ccc2d ; CHARGE = -1; SPIN = 1
H -1.7299305840356745 -1.4799672160091992 2.299995913778793
I -3.997011616969707 2.107877173910792 -0.4342407418808015
O -1.2360775522878602 -0.7222542435168672 1.9664205279283593
C -2.2336389011559232 1.0517919493503096 -0.9846182256674172
H -1.4733947846081594 1.7714915814060543 -1.2690957327457633
H -2.479963964696823 0.40788656335099227 -1.8194698826822102
H -1.9108186198622925 0.4723324890603491 -0.1279326425549094
H -1.2671595312966437 -0.055033914095870676 2.665429513738121
O 0.5750529221853529 2.776048104863189 -1.7779471474944348
C 1.0244134980877548 0.053780787508873044 -2.049788037681385
H 0.8534938168547933 0.8316343266647922 -2.778341187590958
H 0.18647630050234834 -0.6331633771109636 -2.0152896793517217
H 1.9457854800829124 -0.4778595969579093 -2.2611576717431285
H 0.6606151331424567 3.6359316733076796 -1.365870682711641
Rh 1.437195174647496 -1.0149688600911941 1.4824312536857944
I 1.770411800441116 0.9220103008765363 3.181585566059209
I 1.2132704880089338 0.9981223168453898 -0.16462429938351583
O 1.3422471038182062 -2.9301349406929216 -0.8074839513282661
C 1.3688939422462936 -2.199832747318249 0.08661031894998421
O 2.1438750162664677 -3.175387619533783 3.4415542557770302
C 1.80626487862898 -2.3403047518180022 2.731832532898862
