12
## STRUCTURE-ID: 64566a87dd79564f804d91e8 ; CHARGE = 0; SPIN = 1
O -2.6761944625102436 -0.8320805270798542 0.8534753728706389
C -2.0199782747852786 0.1378088889658883 0.0617623675623742
H -0.9558273875057722 0.19481038846164256 0.3019825479752661
H -2.49197690652508 1.093440172698236 0.28408139425854695
H -2.140169776430191 -0.07726506674336614 -1.0053963360112688
H -2.215092479563981 -1.6723387718631069 0.7472579312719809
O 1.3722009771404884 -0.20199622638483122 0.5082750357104427
C 2.1590243808358474 0.3090171001238072 -0.545549612782858
H 2.5415771331670185 1.3068776441735224 -0.3113859319395984
H 1.509649324699617 0.37561275501086816 -1.4168265184397015
H 2.9972164422294267 -0.35496103459707323 -0.7765814889107678
H 1.919571029248116 -0.2789253227657319 1.2989052384349924
