12
## STRUCTURE-ID: 645665b24b02437fdc4b6a68 ; CHARGE = 0; SPIN = 1
O -3.0744377968683554 -0.1218619379878394 -0.40175290272767844
C -1.6630901392704878 -0.13402448464480993 -0.4013680845918725
H -1.2508239082139094 0.8615815553235214 -0.21419972862830255
H -1.2609469408200453 -0.5133915281359454 -1.3449916479527873
H -1.3589549522606137 -0.7989969265391917 0.4046363857672589
H -3.3797569823740217 0.459083213862556 -1.1085182891784189
O 1.9059267568938854 -0.1799181278149368 -0.5461349980885407
C 1.9522915014463604 0.2727156068266281 0.7891165242784656
H 1.313616805685516 -0.3331911353999003 1.4391723808639225
H 1.581117045089665 1.296034337986858 0.7857600017659878
H 2.974173339762544 0.26818937482614874 1.1803010658276203
H 2.260885270929467 -1.0762199483030903 -0.5820207073356601
