13
## STRUCTURE-ID: 64568cf86083ab64780b39c4 ; CHARGE = -1; SPIN = 1
I -0.4703893197893281 -1.8308779334112328 -2.0415444533704887
C -1.6254751124594975 0.8541664029554911 -0.2298689918343774
H -1.635365782955659 1.7940517149912059 0.32729836338812734
H -1.8557512322697065 1.0797261079451108 -1.2732843248831656
H -2.4231320279935105 0.21707848715376274 0.159663011521295
O 2.249689646427144 -1.1640644232753719 0.11423310932417251
H 2.5908153586057727 -1.44743955709566 -0.7403896575234661
Rh 0.2774319352067496 -0.11999905839777814 -0.1397794621014341
I 1.3462061430723513 1.6700868110564353 -1.8004020019160096
O 1.4443885123152491 1.7297631437161143 1.8781496063393357
C 0.9284530947539511 1.0423592575771412 1.1290184922718436
O -0.5285250721510146 -2.3649267545935193 1.635472979342233
C -0.29834614276251525 -1.4599241986217193 0.9814333294419444
