13
## STRUCTURE-ID: 645689b6a210133f410b39cd ; CHARGE = -1; SPIN = 1
C -1.299684568294918 -0.03009055983383383 0.43411874498163894
H -1.6490739097787925 0.9848886101988598 0.6174741344158291
H -1.95556461475112 -0.471059353418085 -0.3445400000276327
H -1.4476629607539384 -0.6238454391104704 1.3353404743303499
O 1.0109637615388942 -0.40344914978496466 1.8889769972960844
H 0.8136096626300218 -1.353973937966823 1.744733701008873
Rh 0.3789582505126685 -0.3390990335400063 -0.9110728355091502
I 0.3919453364877258 -2.8961929918997735 -0.27524735663793454
I 2.1613871494383843 -0.6527969773583007 -2.835222287623917
O 0.763566114950254 1.6159094398518654 1.055247305679551
C 0.5803604269322359 0.42254380631456545 0.9305278718923524
O 0.06313351237121491 2.3936181416360385 -2.053498351881417
C 0.18806183871737361 1.3535474449109293 -1.5868383979246377
