18
## STRUCTURE-ID: 645673607627762b4b41e58e ; CHARGE = -1; SPIN = 1
I -0.9692079978529422 -2.346144217740722 0.03787969575549143
C -1.2504274423070842 1.4219691645906645 0.18034736315290392
H -0.9143875007636848 2.4212398618227855 0.460917633557037
H -2.323681818038064 1.3329134463740837 0.3612644173119592
H -1.050560389289217 1.2468050689424246 -0.8840482298254229
O 1.3470987687955456 0.5256024083401083 3.2818004267609013
C 0.9113101292384744 -1.9313131884348143 -3.674072578780542
H 0.3969997197293132 -2.589761543339679 -2.985937198912143
H 1.670260585484359 -1.3576682275769838 -3.1573298464191604
H 1.3320447389943926 -2.4812386285308636 -4.50440618675442
H 1.8439882483913304 1.0662267746335274 3.9284165499624986
Rh -0.14938186197793357 -0.04652971631249301 1.1722910773435438
I -0.5265550420788121 -0.5569662826779446 -4.462273533806098
I 2.040870273668187 0.13595866859875513 -0.23049968583243954
O -2.2387431939428017 -0.37395037872117565 3.254802922221982
C -1.4704260929690849 -0.2286489153523012 2.4121189906488416
O 0.671743381082261 2.4839661731080924 2.430542011775593
C 0.6790554938356306 1.2775395322765972 2.3781861718395105
