12
## STRUCTURE-ID: 6456672800db6e3a1d1a5620 ; CHARGE = 0; SPIN = 1
O -0.7411938614233274 -0.20109232605786587 0.14074058109117438
C -1.1781878113429471 0.22684345490005872 1.3637509897706555
H -0.6642328500281266 1.1602436856080178 1.6609196952428955
H -1.011624756746236 -0.5148018339246462 2.170500167492945
H -2.2575866010252463 0.46166479669291405 1.3481783358602815
H -0.9118224830257647 -1.0607221292895734 -1.4682389191373209
O 1.8964642605160322 -0.534804232380906 -0.31414790725741165
C 1.1093227530403393 0.21258593282817068 -1.0615538213938067
H 0.7693210549068019 1.1774208335454677 -0.7174135676029416
H -0.1409247721301017 -0.6685379986781166 -1.6508344697858148
H 1.414973421863648 0.17076645845196908 -2.104819147226633
H 1.7154916453949234 -0.42956664169548747 0.6329180629459826
