13
## STRUCTURE-ID: 64568d00d9b26a3ea740f1ed ; CHARGE = -1; SPIN = 1
I -0.14863707237906734 -1.9787767344627276 -2.013676489624914
C -1.6975036701731654 0.39548616302061457 0.030419614265507586
H -1.9961597706508123 0.8907709031018765 0.9539812362826444
H -1.685756485468941 1.1457762235420763 -0.7704246421800509
H -2.452645610572067 -0.3405565967158109 -0.24437513787185175
O 2.474993883525984 -0.8511163943717774 -0.1027405966687969
H 2.78817856471232 -1.0554452351581263 -0.9910793982902675
Rh 0.4656432288167712 -0.13366963081742564 -0.19357311299563057
I 1.2677859578126023 1.760445787230994 -1.9870968559666076
O 1.6899692625952238 1.845306319288278 1.663743139510425
C 1.1252988908591295 1.115291916066608 0.9936204384491918
O -1.2133435810192952 -1.7231059483880815 1.7006833117147517
C -0.6178235980586929 -1.0704067723365247 0.9605184933756072
