12
## STRUCTURE-ID: 6456697d8fce6d102c4ed2bb ; CHARGE = 0; SPIN = 1
O -0.8355393066358584 0.5628280508084407 -0.5046441667788416
C -0.8515973480299114 -0.29839843728039 0.6600054189816953
H 0.1853103741038476 -0.21810636297862415 1.1325025036259773
H -1.0445299687849297 -1.3328653864568347 0.3886507617958472
H -1.6036170103424183 0.07966574478361593 1.3437564064032779
H -1.6598947690347234 0.4339144870357492 -1.028035381925024
O 1.7939888469527476 -0.023091939164627217 1.5380771156800803
C 0.307531274382563 0.316852957084834 -1.3512740384907553
H 0.2524624089109793 -0.6623794220558157 -1.8247757727776863
H 1.1876249088378414 0.3528765974087765 -0.7076371698137632
H 0.3529131421309043 1.1121902743509002 -2.090986028364011
H 1.9153474475089591 -0.32348656353602323 2.444360351663208
