12
## STRUCTURE-ID: 6456b683b28e987e275c71b8 ; CHARGE = -1; SPIN = 1
C -2.7987596951241778 -0.11873535309570762 0.9666242682458562
O -2.9342324889492426 0.21565535708392888 -0.11293971447179123
I -0.8232933005288066 -2.2605856015120724 0.9406665639218992
O 0.597072428596207 -0.4631704944179662 -2.0160936905849036
H 0.2659450867077267 -0.1885986388209284 -2.8997846170616413
Rh 1.0257845870475544 -0.3842614530257498 0.6540999994288326
I 2.777661324140664 1.6011082239859262 0.6250540219080625
I 2.84015923585963 -2.132447983819081 -0.054519233775329114
O -0.5197394787859467 1.2521642310357215 -1.0963933603279528
C 0.20416677122519813 0.2959581208108283 -1.0210191591719668
O -0.6055118298693434 1.436705385155978 2.359502569805008
C -0.02925264031946909 0.7462082066191209 1.6548023520839363
