18
## STRUCTURE-ID: 64568bc09db32b6fda399e3a ; CHARGE = -1; SPIN = 1
I -2.9474211429552875 -0.9331791872494387 1.6266824545492709
C -2.048834269488836 0.44571139590705505 -1.5744547714972077
H -1.9184022818826005 0.8681912208950575 -2.5698191601239073
H -2.678599807957308 1.0979866785134134 -0.9706039827718487
H -2.5358731147513685 -0.5268160327827833 -1.6484217631243718
O 0.14036206563301995 -2.7635825485924697 1.6421866435598116
C 2.8768635392659188 1.7052574667296718 0.2765797771774732
H 2.4087800404629087 2.516737533694797 0.8241399338023677
H 2.5243485007204827 1.6750775947246066 -0.7488917988872748
H 3.957074537230075 1.7567676151163831 0.3310687441697782
H 0.2603977815632934 -3.719840742334071 1.4808281736432605
Rh -0.5092159427461129 -0.2132610284215012 0.9315349011239984
I 2.261502407987559 -0.15523948772789117 1.1962990375050313
I -0.6997546396891773 2.3810321085993182 1.658921901926688
O 0.3549494159204819 0.39479124731724624 -1.5279253611226336
C -0.6958018966609918 0.2599095401169736 -0.9527350902073473
O -0.4572851572627571 -2.6788444975000645 -0.5189682777120985
C -0.29309003538930356 -2.110698877006309 0.5435786379890111
