18
## STRUCTURE-ID: 645671572b40080bf1293426 ; CHARGE = -1; SPIN = 1
I -0.3066839591921552 -3.3074102060274204 1.7485364475867413
C -1.5910931800898163 0.4519747500736018 0.13215012857724542
H -1.305867709545614 -0.5568698621891826 0.624250633244785
H -2.1804612022896417 0.19523167821028106 -0.7461703812121332
H -2.2268843520168273 0.9747946382838372 0.8467930639805377
O -0.48049560461586344 -1.6436832226064897 -1.6106673967529141
C -0.06509894049537478 2.4931520584134583 -0.8141041278219742
H -0.2550819491078302 3.3833208121970193 -0.22945014714223977
H -0.818087444473148 1.4568630936623295 -0.3305086611634298
H -0.2559280023256228 2.623619599404249 -1.8706749405465959
H -0.3160757641022959 -2.0786833706377252 -2.471617014119208
Rh 0.3141000802180988 -0.7671034587384408 0.9386709926639335
I 0.033337998436488034 0.5747385006964792 3.3068725071298917
I 1.8930098694490483 1.785659021130088 -0.48599553552629776
O 1.6998185462243036 -1.9577281975510947 -1.2819429318283262
C 0.6289254870560979 -1.552313837554798 -0.8689540713566309
O 3.1569154282901257 -1.1190510076958748 1.7324947598550207
C 2.075650698580017 -0.956510989070313 1.3803166744315756
