13
## STRUCTURE-ID: 64568c2f9f28846c0f3288ad ; CHARGE = -1; SPIN = 1
I 1.4390256824871202 2.0095359182884143 -1.6432708922276247
C -1.3274428637288227 0.08736055775811252 -0.05353101377158099
H -1.5673765725203956 0.3962050775510417 -1.0729857412756796
H -1.9024569307476689 0.6745662869522077 0.6597009481292863
H -1.6663666298784283 -0.9596629519233913 0.03860104959854016
O -1.0675783819374776 -1.1034532325411628 -2.909101160059812
Rh 0.7390046118949457 -0.5161670764401409 0.25215351778035044
I 3.0012221866909092 -1.8415828441418165 0.36952701388534137
I 0.4959228980007473 -1.7137850042606646 -2.0867179941063183
O -0.08105403789013702 2.2299266322456655 0.9142797012271093
C 0.23315547006664727 1.3372887429649578 0.21187382869434748
O 0.8714477997239769 -0.28665988883229854 3.229588300896091
C 0.8324967678385197 -0.31357221762048626 2.0898824412299204
