18
## STRUCTURE-ID: 645670f8dc681d3c9139082b ; CHARGE = -1; SPIN = 1
I -1.4590005458251873 -1.0746409870538955 -1.1247812755602722
C -2.903821864026284 -1.5284697416592516 0.46290193463453805
H -3.1735479546750502 -0.5917651507178032 0.9403482660676995
H -2.419845840031392 -2.2027016061609257 1.160712509998998
H -3.7625101185565977 -1.99456780577725 -0.004559923868981392
O 2.1558289303097213 -0.24931900568961782 -1.4582046939414022
C 1.1758510788459275 -0.2489882273050545 1.8772592649307214
H 0.8487044799020415 0.23860798924897994 0.9263111305049421
H 2.1849626695248276 0.06181652875092883 2.1159984010659647
H 0.49451866673630884 -0.010212358178996246 2.685309005642084
H 2.7844151884917707 -0.5967201252676698 -2.1205292547824452
Rh -0.13345361060061567 1.1527621292870374 -0.7261799296724294
I -1.8273749449982162 2.164198261375138 1.0430875164922395
I 1.1781411739270282 -2.359580000272702 1.6054523708019581
O 1.1711108647590693 0.6122656493442011 -3.26352524374335
C 1.1553945645709591 0.4742645418750939 -2.0423204470151197
O 1.6226990365907092 3.521334430906972 -1.155913171597809
C 0.9079282250549687 2.631715477294809 -0.9213664599573187
