12
## STRUCTURE-ID: 645667ef9c20ec5a404975bb ; CHARGE = 0; SPIN = 1
O -1.1162558251206711 -1.1498215004488375 -2.2081041707763114
C -0.7120089287483153 0.5774836885503856 1.1088180708210709
H -1.6954136469941277 0.11662571151936989 1.1630761262411613
H -0.8032594876687486 1.5938450653595517 0.7105193302791861
H -0.272212351848202 0.6249600675493249 2.1106805098303294
H -1.3284380690751039 -2.0690662568751375 -2.0291738900002265
O 0.06997253327629642 -0.2308575305097563 0.25593532178011114
C 1.388788053184031 0.24907950874037466 0.10467785471403564
H 1.3924392010671263 1.2530218755706768 -0.3335701661954168
H 1.899227342106545 -0.44178161809745514 -0.5621368320349756
H 1.9048859445374953 0.2790545007907893 1.0701300322783787
H -0.7277247647163207 -0.8025435121492797 -1.3908521869373438
