12
## STRUCTURE-ID: 6456676229d6205f4f3ae5e8 ; CHARGE = 0; SPIN = 1
O -1.4896570322451481 0.37685573714224607 -0.08395364719158241
C -2.032269741612464 -0.30356392281406913 1.027128100223686
H -2.235440274204272 -1.3527478487033835 0.7919721545624011
H -2.951585639596599 0.1733838188458032 1.3789804012974756
H -1.286135876435367 -0.2566692968727578 1.8184588273705444
H -2.141729502422075 0.3810315831108975 -0.7948063069357927
O 2.7863881189025763 0.8740409836947831 -0.38918854956360616
C 1.8524047231174912 -0.024618493350989503 -0.9534920326344949
H 0.8245813000550116 0.259480737299326 -0.7134653231725449
H 2.035392668797629 -1.0492243046288698 -0.6137920033321723
H 1.9927977914260653 0.018939507998360344 -2.032097757354003
H 2.645253464217146 0.9030914982786545 0.5642561367301028
