18
## STRUCTURE-ID: 6456b77ad085d956b81fea7b ; CHARGE = 0; SPIN = 1
C -1.3078629203713008 -0.7160621443578178 2.3897651403155247
O -2.216774823508906 -0.7135998690277294 3.1099599579296124
H -1.7863921170970154 4.533432621734592 -3.914717604686728
I -1.299647467350591 3.5790680733820475 -2.684179968639214
O 0.9729045769226002 -1.4679393886044936 4.303104971113629
C -0.7673594049978335 2.0396616337095277 -4.098946561396756
H -0.06065863420827134 2.4770160210047862 -4.797618115742814
H -1.6876226468539952 1.6997663086656303 -4.56390313703729
H -0.3121405927262755 1.2656921465914084 -3.4905564650559477
H 1.1831541261563894 -2.1738441435131817 4.946550230684694
H -0.23360882123018303 -2.2692580322172518 -1.7639906125097484
Rh 0.3610220966136171 -0.6937259094020157 1.595561878849442
I 0.19498762864139302 -2.9476624270428244 -0.3728884289441099
I -0.1939228323189779 0.9977892869140879 -0.281004511566451
O 3.267267571330616 -0.11947330980382165 1.9987032610603324
C 2.1728426469169815 -0.3402867742795439 1.6847533934132872
O 0.9167708540229231 -3.1813931863131604 2.886579225404058
C 0.797040760058776 -1.9691809074402171 3.0528273468084373
