12
## STRUCTURE-ID: 645664a6ce3e1502687c7c48 ; CHARGE = 0; SPIN = 1
O -1.2720781465839164 1.1544011515582593 -0.2651334917922791
C -1.7202011255416798 0.20641832436587854 0.6807521657745443
H -2.1894647125622213 0.6919279542057907 1.541563566357315
H -0.8422733828291692 -0.34178203631604626 1.0188911967789247
H -2.4273154801370027 -0.4985704565670208 0.23354721468613926
H -2.029556746196534 1.6612225437822639 -0.5814339173387599
O 1.9481727900078376 -0.5807693783069868 0.6236158464937587
C 1.6500977579124665 -0.6305633233856668 -0.757230567582902
H 2.5191471960328347 -0.35236203203050154 -1.3615276358574415
H 0.8099420107469514 0.023239296482224697 -1.0058892053102417
H 1.3805841242652845 -1.6617476541075384 -0.9800174426621348
H 2.1729457148850693 0.3285856103193212 0.8528622704532123
