18
## STRUCTURE-ID: 645689247ff4282e69159864 ; CHARGE = -1; SPIN = 1
I -0.02403469760924871 2.155127549201939 0.9158743929035069
C -1.911786183065119 0.2607313126763023 -1.4837347312066054
H -2.4486307007197574 0.9803828686996471 -0.8576523147728645
H -2.479927069264106 -0.6744438679892494 -1.4928205839036437
H -1.8898839577054638 0.6412279827469635 -2.5074032244530353
O 1.7915652641123252 -0.6888165895016418 0.44937979669045447
C -0.04670743181517644 -1.0949833088179852 3.083342304785782
H -0.007178628745315617 -1.9168479563853582 3.787419482215661
H -0.5485481564882076 -0.22588502413448977 3.494077369491225
H 0.9397332557787741 -0.8410242797798934 2.7087669692809393
H 2.4294804268411414 -1.2647635111450288 0.023294625129918468
Rh 0.0016445266630363236 -0.11439615539579333 -0.6681993901562083
I 0.37236277458310263 -2.0362306728308845 -2.4129546610619927
I -1.1784395153410514 -1.753955328675355 1.3660424098514348
O 2.5595754310197405 1.9418239270781663 -0.6261978902267379
C 1.3927927679223835 1.7940947264317075 -0.8362164659831043
O 0.4676631862317131 1.5803413362972538 -3.050841383555424
C 0.5803187076012166 1.2576169915237208 -1.8921767050293437
