18
## STRUCTURE-ID: 64567167b395a164d16f2cae ; CHARGE = -1; SPIN = 1
I -2.8287121269252284 0.044902379207664406 0.13122191838808825
C -2.5375966105821828 -0.9707503774288613 -1.715088621404356
H -2.6249805534097366 -0.24853494995056755 -2.5170785194244405
H -3.2873480504249146 -1.7459149595304053 -1.8011492749275444
H -1.5398909541438448 -1.3911173922119078 -1.6844524724724455
O 0.10396375848494012 -1.145406175230692 -0.04171633570483868
C 0.17859959001583547 0.23132169987739654 2.9814255464471584
H 1.0581024971404298 -0.16694070535697939 3.473402468165579
H -0.1783489129621694 -0.44209237972070375 2.2096337051074615
H -0.6086285193479339 0.47214205431257295 3.6827488256199112
H 0.4790746892198373 -1.92719350736819 0.3775735551899974
Rh 1.4969318336244317 0.2623257069860618 -0.6021126147008544
I 3.3553425278791473 -1.0042351303702508 0.7539935166826279
I 0.7563136050767563 2.0497155159401186 1.983992207618753
O -0.42302740953079543 1.442540820847288 -2.563553372529174
C 0.2769144913790336 0.979982378187174 -1.7684798732174982
O 3.5652266321504578 2.1261115782129956 -1.6773280730083762
C 2.7580635123558475 1.4331434435971975 -1.223032585830121
