12
## STRUCTURE-ID: 64566701ae46ac5fb573b9e8 ; CHARGE = 0; SPIN = 1
O -1.018017739754537 -0.463875102210392 -1.4961863368800292
C -1.846182951781738 0.4463934509833524 -0.8124670023327026
H -2.2875370469786818 -0.006462769217770919 0.08123635253190899
H -2.645016672989472 0.7279829563282139 -1.4977288392141914
H -1.2958566325524519 1.3477110965489183 -0.5215246514436586
H -0.311392150808409 -0.7459396169924181 -0.8867477148065984
O 1.0524095285645663 -1.0471489923117272 0.3839048818875463
C 1.5550324262109632 0.10360161232481378 1.0337440543358847
H 2.1733380397913176 -0.16482524540945037 1.893774359639423
H 0.6927430259666892 0.6690852230874569 1.3823692225718522
H 2.1367529958891147 0.7251234860878149 0.34728688155798637
H 1.7937271784426452 -1.5916460992188082 0.09233879215258012
