12
## STRUCTURE-ID: 645664a37f0bc612642a1570 ; CHARGE = 0; SPIN = 1
O -0.9617241534959785 -0.2868120020072629 0.43970891133937473
C -1.6255651793622852 -0.09005399356024565 -0.7958540573334764
H -1.5135122084867674 0.9356898886014314 -1.1534940420448854
H -2.685964855444739 -0.3310801696109865 -0.7026249748071741
H -1.1690828848661283 -0.766569412883355 -1.515108186242323
H -1.347690855517953 0.3078175172224567 1.0995101129897533
O 1.4214242028449402 0.10568717130122772 1.5171775577367521
C 1.1951560681078532 0.13148754333357687 0.26692395039998784
H 1.1590105556916446 -0.7518820001783484 -0.3482054221767201
H 2.9582712506781004 0.43479931349866247 -0.5334199558707544
H 0.905553577191814 1.0804663376795116 -0.15384277826303255
H 1.6641244826594908 -0.7695501933966687 1.879228884272506
