8
## STRUCTURE-ID: 645688271697102bfc6a602d ; CHARGE = -1; SPIN = 1
O -2.8312760666856773 1.0447070209857336 -1.4088901009897776
Rh 0.05243915125244964 0.035840176116955405 0.30848023058969354
I -0.6901287958986532 2.1126058334144844 1.6360217599358229
I -2.461708107962387 -0.49067395703325584 -0.37108244280129005
O 2.8739676456077206 0.7470546595723606 0.9815772214516385
C 1.7975482370723475 0.458119974695837 0.7201025696515252
O 0.7493765423130248 -2.4221096422160615 -1.2420836818299736
C 0.5097813943011599 -1.4855440655360477 -0.6241255560076382
