12
## STRUCTURE-ID: 64568f022f4ce350e05c71a4 ; CHARGE = 0; SPIN = 1
C -1.6440176074447987 0.1011231608985056 0.2712268454284377
H -1.6539203173590087 0.3011143275176044 1.342158403824976
H -2.034969413586136 -0.890605699204874 0.046894692262834055
H -2.1784529699727497 0.8816716783106966 -0.28487465192204137
O 0.42631599408836757 1.8993188806116668 0.734012013095639
Rh 0.29808002411088536 0.3340337941843296 -0.4885921512029528
I -0.033761177133633066 -0.6520184175092012 -2.83226382473313
I 1.3840657695262806 2.92374121502456 -0.6006889570505085
O 2.9564217650130407 -0.4455520759995269 0.1672815847746449
C 1.8240093141955496 -0.7528744244871264 0.2539033476621233
O 0.037284451087978884 -2.3187175190721545 0.9136310292291457
C 0.6189441674741379 -1.3812349202742749 0.4773116686307134
