8
## STRUCTURE-ID: 645676a03723aa24746dc154 ; CHARGE = 0; SPIN = 1
H -2.30441988674795 0.16861361774219732 -0.2690055086659105
I -0.9648462474738998 0.21479819390272178 0.7725501698148786
O 1.0425656392155485 0.17041523045282853 1.652837334025992
C 0.16596734792081044 -0.1895915054492609 -0.9857839364107596
H 0.126139584715125 0.6852601014975622 -1.6219081649631888
H -0.27160835713405984 -1.0524332476030467 -1.4709347422564245
H 1.1762760172394984 -0.38624874403935594 -0.6588708820917489
H 1.029925902264932 0.38918635349635444 2.5811157305471633
