21
## STRUCTURE-ID: 645674badcd2d0744761a6dd ; CHARGE = -1; SPIN = 1
H -2.983957789581501 0.7140921284248807 0.7936906162853661
I -2.1053981849294425 -1.8117295801855098 -1.667011195959886
O -2.2189617884789734 0.11453738385861965 0.820024334886449
C -1.6290693150178537 2.0715686706065393 -1.4318802509779662
H -1.230633113284053 2.284334075033727 -2.4260803346515796
H -2.551747569862062 1.4980512884904302 -1.5554264835395675
H -1.856230830735328 3.0196512932065542 -0.9432446581637116
H -2.1342141429119295 -0.16857970228036911 1.7444143574419637
O 2.425333907723378 -2.0002244581987316 2.9972110041729687
C 1.8049252286222688 -2.1453851766474683 0.3387624829738108
H 0.9496308237678619 -2.7884368356300566 0.16609542065888863
H 2.575186016645335 -2.6786023169041564 0.8734488079854736
H 2.1791514146866664 -1.7474309960995527 -0.5987349621499372
H 2.4232276548838434 -1.6669214298984791 3.8939154172544463
Rh -0.31365014198328317 0.9068846348451515 -0.21073377831418372
I -0.20524146002618018 2.571393565180609 1.892929373100341
I 1.2104785052346563 -0.5277343704340587 1.5629176528282738
O 0.5734045142793431 -0.8003772273408449 -2.3467374066463504
C -0.2640693355601164 -0.48309201726996653 -1.5661325604327008
O 2.1654914192349732 2.0234077240853865 -1.387677667912133
C 1.1863441872923703 1.6145933471572922 -0.9497501688399543
