12
## STRUCTURE-ID: 645668e6f0875b1f540b5358 ; CHARGE = 0; SPIN = 1
O -1.5141463404674542 -0.7218632422947892 0.816053510390136
C -2.053285852936763 -0.00348150578601248 -0.26808251121609805
H -2.0350670660747046 1.075419049944667 -0.08303206215406284
H -3.088029525701257 -0.3250542623600995 -0.3819389099825381
H -1.5133507682830791 -0.21613386666709136 -1.19704429481035
H -0.5937571394069266 -0.4284304523075239 0.9459725485695551
O 1.2105207422920532 0.1437900700716685 0.9376754946304292
C 1.8360159213328577 0.17749624270865488 -0.3299535142490815
H 1.1608423666585905 0.7074491271499914 -0.999395428434058
H 2.004943849340102 -0.8312971593135801 -0.7169843122809253
H 2.7865453553718234 0.7148323776213753 -0.28916404154610575
H 1.7987684578746355 -0.29272637876717444 1.565893521083211
