18
## STRUCTURE-ID: 64568ba360e8d44e232abdd0 ; CHARGE = -1; SPIN = 1
I -2.3948991403732003 -3.1781962104915795 -1.3531299717387753
C -2.312731111923882 0.23951527749867962 -0.1319441660848226
H -2.5669316365300205 1.134346095556714 0.4392512971645851
H -2.6678439873345208 -0.6329939590337071 0.427617818163831
H -2.8293717109249443 0.28822921053527545 -1.0937291932619448
O -0.08811487055291146 0.11487127207080922 1.7389626083101908
C 3.0195180833660604 1.1780710800181893 1.3165986773161225
H 2.1971838240544503 1.0878064022622032 2.0192087556567238
H 3.047873358201511 2.166500828131964 0.8712559572292468
H 3.966135924960055 0.9040264823759948 1.7654979357343714
H -0.5250446198070359 0.8362322618032572 2.1982060068713367
Rh -0.25273127340332807 0.02336526819706068 -0.35014210432140563
I 2.6025340790054656 -0.24548443899420402 -0.2658940193777901
I -0.012344055334749708 2.6155232410495235 -0.565973645725348
O -0.6528276421470538 -1.007548143272192 -3.1896613368202864
C -0.4658050917918423 -0.6999759518702893 -2.057022437182207
O 0.4362105759002579 -2.7454812029068676 -0.7282011048458115
C -0.5008107053643502 -2.078807512930818 -1.0409010770879896
