12
## STRUCTURE-ID: 645668ae0fb9b37b944b65f8 ; CHARGE = 0; SPIN = 1
O -1.641283524921565 -0.3399748798958722 -0.8529923877558614
C -1.9843504423303089 0.5193046707053576 0.20916854182663924
H -3.0512779933005527 0.3921839515623791 0.38814037512549804
H -1.7887112324645968 1.5661788470153353 -0.0441502866519734
H -1.4377281788108374 0.2655478594771116 1.1229238396013463
H -0.6867124225148719 -0.25277110712703005 -1.013584326846014
O 1.1999927709948472 0.09002877965455904 -0.7765555052866163
C 1.7946876174350341 -0.6124654628159651 0.29502424651944986
H 1.949046529467512 0.03862853656076844 1.1604485302853014
H 2.7493181019015642 -1.0559076642978515 -0.0002334458990332167
H 1.1053950373933104 -1.409539107661763 0.5684124337757404
H 1.791623737150474 0.7987855768229696 -1.056602014694478
