18
## STRUCTURE-ID: 64566ebf7e49237ab56a6038 ; CHARGE = -1; SPIN = 1
I -2.04010871095054 -1.1272256726044756 -1.011958890905069
C -3.9270890620413543 -0.21268085453301053 -0.41839672148382345
H -3.689721059322158 0.7016436354583041 0.11557388117611538
H -4.44273404905017 -0.9226658514505615 0.21578707792327173
H -4.479804062537605 -0.009292277345565179 -1.3268733689420689
O 3.0350384266675614 2.3642367235138977 -1.9060141789256295
C 2.8612846628434387 -0.22691340900327553 -1.0319028115068378
H 3.424551012860646 0.19275518891772517 -1.8504873906004686
H 2.3284003438212735 -1.120705838033551 -1.3406626534714534
H 3.517863138091155 -0.4439081441417304 -0.19591227480243675
H 2.79227863422606 3.28326609032934 -2.0168945684423654
Rh -0.09848268748871204 -0.1150342306985564 1.215118184132802
I -1.2811585110825898 2.219570457023406 1.1864566796329172
I 1.4622851817421156 1.2363444437709585 -0.43759127871366527
O 2.003714781625022 -2.243080960470471 1.3332977646131545
C 1.1695399792892258 -1.4438000845270993 1.2803043579770281
O -1.5570445795387846 -1.3046081009222623 3.55890153541483
C -1.0788134391545323 -0.8279011152843155 2.631254656925037
