12
## STRUCTURE-ID: 64566a81b2f024556c242a38 ; CHARGE = 0; SPIN = 1
O -1.696126459392915 0.49565157869256593 -1.5674596788263293
C -0.38890467489463193 -0.1136393670935983 1.354143658171832
H -1.2268575916199413 0.12807783806154624 0.69791565086944
H -0.345040436311507 -1.192821507085437 1.4937808793922702
H -0.495830708149517 0.4038949180622723 2.3041302421108085
H -1.8164195701200878 0.22272872561782817 -2.4828004633018574
O 0.8005584503947507 0.3882312750551591 0.7075251428315422
C 0.9011235469878041 -0.042585423424656696 -0.6720323254789117
H 1.1026387136548028 -1.108085164882219 -0.7446109070132793
H 1.681076191212584 0.5418982127608164 -1.1473264632007394
H -0.10945787717337246 0.1869802939973119 -1.153347630736813
H 1.593240415412007 0.08966862023838382 1.2100818951820689
