12
## STRUCTURE-ID: 645665be8e847d713c4609e8 ; CHARGE = 0; SPIN = 1
O -0.8714707718325583 0.654995425488117 0.03004444124634989
C -0.6986245242703714 -0.19049150652182664 -1.1301084494665985
H -1.0623648979247367 0.3547521191274491 -1.9968056342279212
H -1.211997755181571 -1.1426683841006322 -1.0144707062287255
H 0.38018173490998136 -0.3763623120778685 -1.2173909360860777
H -1.8275062490236458 0.7086100280869408 0.25701397707788903
O 2.216495487074394 -0.539945172956317 -0.22530163077054746
C -0.1180052194424567 0.18405405285531937 1.1752201544959173
H -0.05580604681136207 0.9984408132930567 1.888680542668012
H -0.5672423416484694 -0.7000230775611824 1.6185815445118483
H 0.9108738084303444 -0.0821786514442901 0.7797854128611785
H 2.9054667757204657 0.13081666581123086 -0.1652487160813151
