16
## STRUCTURE-ID: 64568e0327627b042361a6d4 ; CHARGE = -1; SPIN = 1
H -2.0655607449528643 -0.9631215132674081 1.9449447644020221
I -1.4209606184155184 0.3405553921746272 1.0536540715218004
O -0.8921798137339856 1.8416397264290287 -0.43916910210676113
C -2.193854388767718 -0.7808717705184743 -0.6165646040476432
H -3.2754374097192 -0.7072857582919867 -0.5940973401089943
H -1.8572031834837888 -1.8044671395712226 -0.5070812107975026
H -1.7841883241540344 -0.32515421615698 -1.5082168264536968
H -1.5157634571410963 2.5671096775341975 -0.4882125611691736
O 3.509063016676536 2.6902141147205523 -0.1062124711325763
Rh 1.4318278620772253 -0.18179401606619 0.52723408801103
I 2.119114565527289 0.1997559345127002 3.0392651900076975
I 1.6477759981273403 2.397149847179429 -0.09090573874211988
O 1.8559853412711234 -3.122660028461611 0.8444885474544025
C 1.6381005928437944 -1.9998046418225488 0.7320905207705557
O 1.426519405024108 -0.026978956585021332 -2.471070213067874
C 1.3767611588207709 -0.12428665180910585 -1.320147114541141
