12
## STRUCTURE-ID: 64566dc99df6a14679399e3a ; CHARGE = -1; SPIN = 1
Rh -1.3774627298456055 0.351307177133332 0.12925534243480583
I -0.5458932780938328 1.6720711957164256 -2.0165481989888194
I -0.1448511277177741 1.946673463286479 1.8508610454885417
O -2.8363342118714896 -0.7564625304126457 2.486546616579439
C -2.244362751994638 -0.3578980146236353 1.5803563163381682
O -3.1189743640132774 -1.214838188093262 -1.7205184883724924
C -2.432064847525932 -0.6219770047454644 -1.0087824230260545
I 1.1878283929127276 -1.5562914742023106 -0.0039940787543754856
C 2.707452508693032 -0.03964586203310691 -0.29140266126187164
H 2.2062607977700304 0.9082416338459091 -0.45031890987378165
H 3.28673408641733 -0.31988079845443446 -1.161952168516845
H 3.311667525269405 -0.01129959741733837 0.6064976079533089
