12
## STRUCTURE-ID: 645666ba8d6d8e01804ed2b8 ; CHARGE = 0; SPIN = 1
O -1.0948511043311782 0.42361874138583633 0.1266835918745282
C -2.4378653831243877 0.006784661549580981 0.22839624305742318
H -2.7556475437800234 0.22290773890994225 1.2471794308449538
H -2.5400677040728166 -1.0675038567228516 0.04529270247983526
H -3.0821621024674264 0.5515312798701394 -0.4677522837098202
H 1.5876812502660436 -0.9773582159726227 0.5005189792464239
O 1.7061341468950932 0.735012787554344 -0.6669989759983046
C 2.3180872812206297 -0.373520918620885 -0.04452112972503902
H -0.7876778596979808 0.28381195280827076 -0.7784574986472149
H 3.109182833417321 -0.05812547950619748 0.6433790116336568
H 2.760806150871156 -0.9743566942182277 -0.8373994445363763
H 1.2163800348035754 1.2271980029626788 0.003679373479922108
