19
## STRUCTURE-ID: 64567aec048fe97d682a1581 ; CHARGE = 0; SPIN = 1
H -2.8636076113948925 0.16404111734476046 2.498454788389565
I -1.5742852072150306 0.9390954010477428 1.8930354444064963
C -1.8991989051086495 0.1422546227426879 -0.06457788986632917
H -0.9554356398783238 0.3417031018515964 -0.6397091198430965
H -2.079007474836154 -0.9255636268599671 0.03824816950748928
H -2.7415318386145517 0.66577090020535 -0.5053036753439056
O 0.4310731682292087 2.3509325246334747 0.688994803153929
C 0.48411884653501747 -3.005174690041079 0.9257775071498779
H 0.07019900337808295 -3.116092575731312 -0.07192402050572652
H -0.2826760556964052 -2.982787536646866 1.6918102136815514
H 1.2117061224953398 -3.782880717401334 1.1244535103643174
H 0.648285215122128 3.161960232074716 1.1909896064316254
Rh 1.12399530501097 0.3455974961470839 -1.1730561639066428
I 0.47954347605715714 -1.7060744344811436 -2.7333918244300017
I 1.5434731581411836 -1.0832800710138926 0.9874409867295997
O 2.5487965216526263 2.5641414452312707 0.03264270371365253
C 1.515706623775531 1.916096294725998 -0.06675116505863689
O 1.216825645001701 2.4244011417832447 -3.3063864394456943
C 1.122019647345102 1.585859374387686 -2.510747435128137
