18
## STRUCTURE-ID: 64568af53964d51b4e6dc160 ; CHARGE = -1; SPIN = 1
I -1.052441575297295 -1.8733065310923342 -1.8206584367387266
C -2.4876402214197997 -0.2221433352359251 1.074504916504033
H -3.119308382419606 -1.1191348699193495 1.0916839105735208
H -2.824224883437864 0.3946928312478889 0.22683992874686804
H -2.7077443709265205 0.34069243112480596 1.9910820980751514
O -1.3643769332607507 0.9573540769764518 -2.138968805190452
C 3.356336253708869 0.6095047979678893 -0.1687242746909316
H 3.227521070918785 1.3429817647380884 0.6192119522048021
H 2.9493870490419662 0.9752001761075234 -1.1043735292576244
H 4.390764774546957 0.30763827016873646 -0.2717353611813886
H -1.1280932480074743 1.8701771156018114 -2.4038484305527352
Rh -0.437790420495388 -0.5849633295072759 0.792513300365034
I 0.010134557159429198 2.116332546947723 0.858762551587366
I 2.2151217126009817 -1.1581305794311838 0.3795385156787183
O 0.8322176706371944 0.4184306262701119 -2.138632717185096
C -0.32485976940284705 0.18832986352084563 -1.9289987173748073
O -0.8474190169073177 -2.641391409455817 2.9215649423606425
C -0.687584267039311 -1.9222644460299956 2.0202381560756257
