18
## STRUCTURE-ID: 645671de2e3fd24363462264 ; CHARGE = -1; SPIN = 1
I -0.30230869762941365 0.1486424871364454 -0.7350232972409373
C -1.0921027796639848 -1.7801086883593316 -1.3095496679327983
H -2.086081121655924 -1.6174363455166723 -1.7087065505262011
H -1.1240705481970492 -2.404293985434508 -0.42427934694643155
H -0.4250157361072557 -2.2172148049751637 -2.0446226230680273
O 1.818423968197876 1.943255058634637 2.8500883279163047
C -1.2075802570512983 0.8110450584122206 -2.6893624324649505
H -0.7989889435292699 0.17899129049988025 -3.468238199667755
H -0.9037421932308416 1.8421278201116311 -2.821558695185262
H -2.2843622783589366 0.7294807206596535 -2.609743846293594
H 1.8121525538525058 2.9210296839655063 2.8622159989569202
Rh 1.1975734008950578 -0.48570874920789153 1.544864951585906
I 1.1836514287569415 -3.1637402455277233 1.3534942033756336
I 3.51219259058673 -0.1818216512440712 0.30096038391403757
O 0.6957214581626023 2.2691010643729195 0.9555108865026322
C 1.2032203697584347 1.4664908177703029 1.7395238824729684
O -1.004560151262039 -0.10677275164946878 3.5020492938272194
C -0.19412306352415518 -0.3530667796482952 2.7023767307743105
