21
## STRUCTURE-ID: 64568e0a59642a73d67b9244 ; CHARGE = -1; SPIN = 1
H -4.496817095517118 0.9830126246829185 -0.997288995717695
I -2.8248154817222324 0.44312103581546397 -0.7870322845805757
O 0.8538968668460889 -0.004424646567089224 2.5292777641368183
C -4.314916012094095 -1.3392428692071987 -1.2284209829157358
H -5.031855088590323 -1.3327337607849234 -0.4008783604262697
H -3.677823919785642 -2.2260147614918857 -1.2198314254525815
H -4.729197513043943 -1.1258319899213876 -2.219208512389828
H 0.8531679782646953 -0.153133550509936 3.492880245319116
O 2.04723922671888 -0.2693940834914655 -2.1751937515701663
C 1.6023226187432995 2.4211577818880756 0.06960560393025342
H 2.3179969629704353 2.1089781329370827 -0.6932569269090592
H 1.973095476894229 2.1434034485320352 1.0595928367943372
H 1.4818606245114185 3.5036095809891457 0.024737538014689604
H 1.9670800113974496 -0.9700193072968473 -2.8293429741544873
Rh 1.6661597788341918 -0.8263201733477757 -0.04943162647610669
I -0.4225039965178854 -2.215293346463079 -0.5516266714926313
I -0.1507799703234964 1.4562439819969846 -0.26738047842886126
O 4.098402015726785 0.3967594246759856 1.1873299681275948
C 3.185591955935029 -0.0627231607116879 0.5777347603454009
O 2.077320527657535 -1.876381597198013 2.611551852896846
C 1.524575033094764 -1.0547727645264215 1.8661824209489783
