17
## STRUCTURE-ID: 64568bb1e239e01f364b6a5a ; CHARGE = 0; SPIN = 1
C -2.285973405403016 -1.0038494048366575 -1.6711649736405787
H -2.2127239256266393 -1.7379454803341197 -2.4762682256688238
H -3.3360857206154515 -0.8791256211023053 -1.4085403073501996
H -1.867909831288854 -0.057585825679731945 -2.0219244902122346
O 1.9778016934074842 1.1421667540451508 -0.4901342443780476
C 1.4066040374159727 1.2001061318350335 2.8532419586080713
H 2.1447340666659485 0.9838139003733068 2.0873182132076593
H 1.577283741411017 0.6095203485011772 3.746108172446921
H 1.3667289142863426 2.2590829465210076 3.079996838430032
H 2.391670969985571 1.905920760327171 -0.9429850478415082
Rh 0.18271883695949698 -0.7883111419932324 -0.07073792594379598
I -0.5380269560791129 0.6297230848071407 2.0584853564032173
I 1.5338723181763592 -2.3623796446976773 -1.6011755788599873
O -1.813790705037538 -2.427117779339541 0.25990286870328844
C -1.5570650579785665 -1.5464246259829235 -0.503476542275163
O 0.2059743160698454 1.3003002410138802 -1.891112956126844
C 0.8241867076511232 0.7721053565423114 -1.007533115502021
