12
## STRUCTURE-ID: 645667276b9a3050fc3eadd8 ; CHARGE = 0; SPIN = 1
O -2.0265006958549527 0.6947019362172755 -0.5756323203112774
C -2.1514649680896727 0.08819104839963574 0.6917997286722822
H -2.0206460172731995 0.877815285760999 1.429707437871627
H -1.3837721082075916 -0.6758426831183926 0.8470540028978367
H -3.139543595558265 -0.3618467296441647 0.8265863714153272
H -2.1475957759958555 0.02133514277485521 -1.2559326364951786
O 2.062449398324307 -0.5047340723986197 -1.3324971603974567
C 2.1546214454335937 -0.1629307345271463 0.03330504486926671
H 1.362938047729788 0.5325229219470455 0.3277305700451274
H 3.1281968819961574 0.27747138345452477 0.27078938189804924
H 2.0417985901292677 -1.089019080876082 0.5945976595579557
H 2.119518797366434 0.3023355820100655 -1.8575080800235637
