12
## STRUCTURE-ID: 6456681fbc1c0d13c06b0e1e ; CHARGE = 0; SPIN = 1
O -1.6505393546317648 0.7031119407494174 -0.4589498521172541
C -2.034812079024078 -0.10159443842856028 0.6302449433422569
H -3.0493908763401323 0.18973731038176533 0.8999323513823212
H -1.3803559770903568 0.05542687954918072 1.494562461965154
H -2.0270769210014348 -1.1638528969779764 0.36639283437431114
H -0.7572122368735524 0.4291469852485075 -0.735051900320729
O 0.9990115293522064 -0.19915455452698697 -1.0552589327703905
C 1.9471377360437074 -0.014938027136042196 -0.022929002995867493
H 1.4594509756463956 -0.3021011131341179 0.9068293269323066
H 2.2612296104170957 1.0300757833629233 0.04728859430530733
H 2.824352380601258 -0.6493004910818605 -0.17280460134473913
H 1.4082052129006626 0.02344262199375187 -1.900256222752677
