11
## STRUCTURE-ID: 645678d9ea9a220e65399e46 ; CHARGE = -1; SPIN = 1
O -1.3622957535313536 0.8340595698650308 0.9850155349536531
H -2.312512139470279 1.0338666108701422 1.142073481057159
O 0.7722696350526149 0.9697756656327624 -1.6558454974701289
H 0.6180679614244715 1.8344848524297095 -1.26497721296987
Rh 0.6756483851454222 -0.603428813370562 -0.3535659297058442
I 0.6195089555727139 -2.62549942740912 1.3578073803306128
I 0.8337564211044765 -2.1660302951406254 -2.447065096506025
O -2.0375886753962877 -0.6532889338350033 -0.5499130734873977
C -1.1724691230009832 -0.09720170304690176 0.07497953916256991
O 1.9862396732621266 1.0423942901338656 1.7334909741637832
C 1.379374659837002 0.4308681838706711 0.9779999004715072
