21
## STRUCTURE-ID: 645675d4b59d79104037419e ; CHARGE = -1; SPIN = 1
H -0.7838152216010227 4.258153213477536 -0.2927880118490236
I -1.529731106019408 0.5527379882269378 -0.9591371825966707
O -2.5125791854768136 1.9357283688385327 -0.0016671600930019004
C -2.579386911516209 -0.9114483617675468 0.25735710763516195
H -1.864287392576029 -1.5531208677373871 0.776730652922579
H -3.225084423187565 -1.507373826822232 -0.388984451511765
H -3.150876119626328 -0.30918288024982005 0.9555806648650804
H -1.9068490185036049 2.6516297982473636 0.08510439595979231
O -0.11124537383980843 1.6045697150164937 1.544280084012908
C 1.8539117185514629 -3.2779684643850797 0.17391746652138382
H 1.6254254905946783 -4.078332392753185 0.8734256401514775
H 2.921161725241007 -3.1235922107361613 0.0654224271536962
H 1.3433474364010303 -3.421226585444565 -0.779783300517152
H -0.1943862098354643 2.54614522176122 1.6884346438450606
Rh 1.027915223522782 0.9830436455423396 -0.08779627005483234
I -0.7659365873503376 -1.8324774990861163 -2.1568337654158785
I 1.0212282316978258 -1.419649852968929 1.125348949521358
O 2.306971184463885 3.4898152029769403 0.9136424495165083
C 1.96295926389719 2.558524612786807 0.3269464501274451
O 2.5717196187406435 0.3344596324605405 -2.5429178320544494
C 1.9895376564220593 0.5195655426163092 -1.5762829581396909
