12
## STRUCTURE-ID: 64566525b08639269132dfd6 ; CHARGE = 0; SPIN = 1
O -0.6585490397254806 0.13356958266943386 -1.2027425364575315
C -0.9878961660608793 0.24863505385822085 0.030198083172938307
H -1.096007772569168 1.2477638946571823 0.48133666295414823
H -1.3416043089159575 -0.7633963004253567 0.6916289123636483
H -2.1868735558067693 -0.14376302449801842 0.19138360103641391
H 0.9791726401032611 0.4167695293110721 -1.4239308743526045
O 1.956489361400712 0.5786034686479697 -1.4691609051565215
C 0.07307787024695488 -0.4928082600514706 1.1237742540641422
H 0.23014625787871767 -1.564793144964684 0.9972083071521753
H 1.010035086496031 -0.023624236361461493 0.8288105588878163
H -0.1410142538687577 -0.2312370110010813 2.156180841290309
H 2.1630238808213353 0.594280448158182 -2.4046869049549167
