33
## STRUCTURE-ID: 6456c1f659ccc44f61610aaa ; CHARGE = -3; SPIN = 5
Rh -3.467393297964165 -1.8479590453040335 -0.44232733040072
I -4.0301158118713785 -2.7616845852766874 -2.8908649725043984
I -5.716682042189095 -1.7567740449655602 0.9363713566046048
O -1.3929216762074013 -0.4391117509574294 2.0935781421226487
C -2.001726678645037 -1.5703594836254589 2.1307496629244476
O -2.3134092927539367 -3.715701639516609 1.0706363129371113
C -1.986241067400682 -2.4543897883577337 1.0196473514996622
I -2.89480905064958 0.7947969039252222 -0.5308394929052611
C -2.611048472896545 -2.036053378227604 3.421057602578502
H -1.878127891118635 -1.9483747804883542 4.221041664294296
H -3.475576743491004 -1.4180898430766367 3.6684035572546025
H -2.923858962560448 -3.071170383135107 3.2987285976177776
O 4.564368033434803 3.505858713867389 -0.7610503078023094
C -0.2667175762313531 2.9489031229329217 -1.5479492783390851
H 0.36934868614641564 3.6496622045206397 -2.076672251095322
H -1.201576219697838 3.408278925169744 -1.2493755681866412
H -0.4809224323308009 2.091450606681212 -2.1776706713790435
H 4.763765520875177 3.565330917806984 0.2041487597094971
Rh -0.46173204523531114 -0.17453793166864298 0.10908950733341355
I 1.6834251786659045 -1.3360919756483967 1.0744583795261529
I 0.7521847822950294 2.2928286516514373 0.20583654678787874
O -0.531324977673449 -0.3659109301856063 -2.686383588152677
C 0.21699793791656852 -0.20606004880426773 -1.720471977312739
O -0.7744408028200133 -2.748329854088277 -1.032864967692208
C -1.247624831926566 -1.9965500230101825 -0.16158905775300816
O 1.5589026767436136 -0.10324600436363239 -1.9764485759345196
H 1.7664162891246222 -0.20689918673086705 -2.9257452796547865
Rh 3.151570341757697 1.0514182231917906 -0.03947983988609073
I 3.011246886868893 2.3980132118346513 2.3258486391515754
O 3.5032182406015715 2.3726764180678477 -2.342300059572324
C 3.857352265601998 2.512676224077906 -1.195868474864126
O 5.670904911289726 -0.5718451980405236 0.03290845695241183
C 4.78654812234165 0.13724575174398823 -0.05460284385930838
