19
## STRUCTURE-ID: 64567a2fa2c406318732492e ; CHARGE = 0; SPIN = 1
H -2.6896380669081013 2.3745303366389443 1.859708212413065
I -4.22861307553622 2.7671557035434877 1.9187945074441723
C -4.636369408296096 2.1579315704451574 -0.11296365266670652
H -4.569827133665193 3.050241168596549 -0.7271868994707086
H -3.839513109386978 1.4417630402281407 -0.31883833908033876
H -5.628983316821794 1.7173794680314927 -0.11983241966033684
O 1.9042114587016938 -2.9541760933289667 2.6321188823167088
C 3.139125038796858 -2.4152057119214483 0.2911962066866488
H 3.311863221503165 -3.181226051648064 1.0304481362822797
H 3.9797158014991987 -1.7266480696751534 0.26557424372819854
H 2.9886914028038785 -2.863552384005577 -0.6874771824964173
H 1.2861014014444316 -2.925798877496834 3.362323872785078
Rh 1.064143939527538 0.29824497424948304 -1.0400514190099401
I -0.8792898533280326 0.6799519098861975 0.5195381428072171
I 1.4225316450890162 -1.3949119732056092 0.8651322999866514
O 3.5824484760530857 -0.6638965929826681 -2.3304908434197653
C 2.6005162694821897 -0.27220360297445756 -1.869467614751549
O 0.51845978355274 2.328455155252497 -3.1926831460992355
C 0.6744255254886341 1.5819660303668417 -2.3458429877950278
