13
## STRUCTURE-ID: 645673b5d59f540f2a2eaab0 ; CHARGE = -1; SPIN = 1
I -3.888894439476092 -1.1416401170975123 -0.7985544518071737
C -1.4611436140103176 -0.10973168762562589 -0.5484707382525604
H -1.9704733374174497 0.5834126619622152 0.09567351044585716
H -1.5365686997757142 -0.051584678336877535 -1.6183183439341648
H -1.139717349152698 -1.0525226025661256 -0.11647420341315776
O 1.3165006688605325 0.7095991994054511 3.976443267990883
Rh 1.1457947679037062 -0.06829474360100382 0.2846176020890177
I 3.0536836624850525 -1.3625295190808795 1.4964852267792477
I 0.11934301348302756 0.7759996460331977 2.5418942955427317
O -0.16457913854891695 2.1452267519992594 -1.1690317816934972
C 0.026754329709846758 1.1328578939362595 -0.6411365173935984
O 2.5377121573445303 -0.9473381858097977 -2.215337413353428
C 1.9615879785944659 -0.6134546192185787 -1.2877904530001951
