18
## STRUCTURE-ID: 64566f04e45bad4f371dbeb1 ; CHARGE = -1; SPIN = 1
I -1.7123880724005802 -2.1701909494207725 -1.8255643963580304
C -1.1916622955357778 0.9169091924193223 2.5865121388556522
H -1.9442006807906522 1.6971558470659447 2.665492760965856
H -1.6332041620257258 -0.025171717127281227 2.901684996217714
H -0.3678669871481603 1.1548150343927068 3.2555284518115015
O 2.0014491428634082 -1.8902440023992935 1.1733643777240952
C -0.6921164110201572 0.8111029076345257 1.1536870068819287
H 0.08185100771729922 0.042272421173202145 1.0804407750423566
H -1.5107700434662106 0.5488970806840043 0.4806684932715028
H -0.26391945876566425 1.756862037629245 0.8198680946254043
H 1.8752998934060736 -2.733216092720553 1.6121840415441133
Rh 0.2874460870123434 -0.4519124695344596 -2.005968156089974
I 1.978468519549016 -2.2076573531610397 -3.85330108539471
I 2.002498977693049 -2.131637842442045 -0.8669147075706138
O 2.2489034423668515 1.7334412594383404 -1.4455216106640565
C 1.5043756474837608 0.9008567663541912 -1.7204166502405864
O -1.732386094150192 1.36337938914118 -3.237462936638491
C -0.9317785127886086 0.6843384908727962 -2.7742815939837016
