16
## STRUCTURE-ID: 64568d992b1bde2a9633a734 ; CHARGE = -1; SPIN = 1
O -0.752389785903415 -0.9100455529463698 1.5661633450439731
C -1.575329806385058 1.5666954158025705 -0.8269732460697343
H -2.2555539760676977 2.2682355715394906 -0.3481382608303962
H -1.8541340297580386 1.4612852784160475 -1.8723433552844388
H -1.6807211841216134 0.5961970107888068 -0.34156346424951123
H -0.9650435967935387 -0.5031376386097354 2.4304454094379233
C -0.1614558230936506 2.084734259328879 -0.6950633073251676
H -0.011892254971699736 3.0197615587390674 -1.227995961274202
H 0.14246802718431337 2.1880512379273256 0.3444772650769883
Rh 1.3665608390934598 -1.5956595029178489 -0.3050795747234985
I 3.047231712562618 -2.535022923170831 -2.1322394382338867
I 1.290676285023879 0.6728135691883196 -1.5599385576364213
O 1.2935380393500624 -0.20860089030093715 2.09603300516912
C 0.5733942334232516 -0.8072777784207252 1.2922570117988275
O 0.6072017819140612 -4.130573098102059 1.0727148839091625
C 0.935449538543082 -3.167456517262006 0.5072442451912608
