18
## STRUCTURE-ID: 6456892aaaf57f2ae45a8523 ; CHARGE = -1; SPIN = 3
I -0.30873210469264034 2.8995192989981917 2.089910206768121
C -2.0665868260547415 1.1573913477087525 -0.5289631056621954
H -2.3459707572789816 0.6222865967919646 -1.434422253230187
H -2.6597293670137763 2.06741899608106 -0.4471190967821143
H -2.287803504241265 0.5378380455975101 0.3495952938466353
O -0.17041272959934925 -1.4719982451478646 -0.8901993354058854
C 1.741198223533078 -2.1661306506407274 1.9409130405245598
H 1.6501102542343487 -3.1308685820767788 2.423496872343382
H 2.537753737956489 -1.5731748972791901 2.375520146371072
H 1.8820590008719935 -2.265853351521179 0.8716540127865966
H -0.17127750140070822 -2.139264785664204 -1.6070347488618466
Rh 0.15890965884850894 1.1284889578631048 0.09349904666442582
I 2.801265145491223 1.0311991362895676 0.11384562564023498
I -0.1131686715813608 -1.102114846351535 2.257147977548475
O 0.5559505943398279 -0.0767462308410267 -2.4645877338793865
C 0.22058091894774276 -0.26254883528435585 -1.3126448456137443
O -0.8360828776471125 2.42053473369208 -2.4884057881974857
C -0.588063194713177 2.3240233117847593 -1.342205314860612
