12
## STRUCTURE-ID: 645666d7956dea066e7b9253 ; CHARGE = 0; SPIN = 1
O -1.0441275391401612 1.1186975413475484 -0.6316993649881689
C -0.9711400384601707 0.9511089955227942 0.7652182257171328
H -1.8246583473015108 0.4448344502132409 1.2276887976951305
H 2.1422692913624832 -3.9241093243543963 -0.25493067164805355
H -0.744280981505397 1.9151614453007433 1.2443529117220442
H -1.8133733487848476 0.6901556455921446 -1.072242949618026
O 0.2518840673719148 0.13829587138333874 0.7746875041680147
C 0.47701540093207373 0.14388298983044986 -0.6310917113987295
H 0.18547665728405588 -0.6822517212102985 -1.2609928662726182
H 2.0003091880121957 -0.9402942740416675 -0.30809385994048943
H 1.1414858643108026 0.9130214372236971 -1.0103441378245308
H 0.1991397859185733 -0.7685030568076092 1.1574481223882978
