8
## STRUCTURE-ID: 645663f3c200525bec068a18 ; CHARGE = 0; SPIN = 1
H -1.5430784177146721 0.15093292728463967 -0.8207023844459466
I -3.1274998113477888 0.10858803991219507 -0.9227269472624121
O 0.27295197163855356 0.10238368817677614 -0.6572582677763869
C 0.8069764174139648 0.029595437520111696 0.6518287428223705
H 0.743022885681875 -0.9864957208051089 1.0495937039008094
H 0.21054882799113558 0.6945102695697019 1.2738278013599387
H 1.8461165871857892 0.364284756253582 0.6690917020303099
H 0.7909615391511385 -0.46379939791190433 -1.2436543506286903
