12
## STRUCTURE-ID: 6456675bd2e5502daf530d66 ; CHARGE = 0; SPIN = 1
O -1.4801061800907482 0.422527829300527 -0.9661762961682916
C -1.380642406811243 0.326489503714642 0.3889446147989714
H -1.6396360599808677 1.262460196946918 0.8862643822969941
H -0.23688092162966543 0.08282582930703873 0.5723716700156304
H -1.913196119373113 -0.5312304999019853 0.8178600913122687
H -0.7213250652554603 -0.24933437299342642 -1.2698556622390937
O 0.5111997249977033 -0.997233063859769 -1.1454774509831516
C 1.2464669480588937 0.02284271859640669 0.5453600716715344
H 1.1100052840154573 0.3969640194374938 1.5586450285623807
H 1.6322916698664465 0.7808632230041395 -0.11486821962891333
H 1.8010455953869602 -0.8999925581038031 0.5500423764311969
H 1.0707775308156453 -0.6171828254481732 -1.8231106060695332
