12
## STRUCTURE-ID: 6456682380a1726798399e43 ; CHARGE = 0; SPIN = 1
O -1.546375808580013 1.4034458836466266 1.0287432060114337
C -1.850580370276623 0.03518888367562632 0.8787075862447117
H -2.624653093659869 -0.12777220046129284 0.12291770518811401
H -2.1592071333159124 -0.4179837496056848 1.8251573574295399
H -0.9146523542284903 -0.44545613680389773 0.5428155346946375
H -2.3344121861682323 1.870795446963345 1.3299389554146581
O 1.9847474413510626 -0.49829370297424685 -0.24493212130206343
C 2.3695969597420334 -0.5281012671834522 -1.5765261419353633
H 2.273004692962579 0.34922724472489514 0.1360023745289857
H 2.0254465038719416 0.33176893544487857 -2.16292181362885
H 2.022793389696694 -1.451405315915261 -2.045458179329213
H 0.7542919586048361 -0.5214140215115449 0.1655555366834148
