12
## STRUCTURE-ID: 6456649c9e591b3d87248ae0 ; CHARGE = 0; SPIN = 1
O -0.6500112026086416 -0.690822251641492 0.4610975283190793
C -1.7495664645602693 0.1630199251339682 0.187155499967662
H -1.7378435013649745 1.0549534366991133 0.812850254856062
H -2.6603539367857585 -0.41240065297431117 0.36972384350153775
H -1.6960970615429793 0.4473149515744411 -0.8620301628281316
H -0.6198441415897987 -0.9105449297715347 1.4160832574705846
O 0.8440943695663723 0.20529573258206843 0.41086974582803704
C 1.4454520304186504 -0.2257489006391112 -0.7633397295461762
H 1.253150215929815 0.45513035508152405 -1.5973649491116941
H 1.0709807356188608 -1.2303521642583144 -0.9878114547545024
H 2.5189037716676888 -0.33135097837077593 -0.6008482479267669
H 1.9811351852510355 1.4755054765844209 1.1536144142243094
