19
## STRUCTURE-ID: 64568eaad69f9937694dd52a ; CHARGE = 0; SPIN = 1
H -4.458705764916014 -0.7931919448936097 -0.14039916301995273
I -3.8022512471332917 0.10286463797742601 0.9941811677086477
C -0.9382476713894784 -2.5312994455875977 0.9641356022739155
H -0.4186196324270438 -3.2244609919472587 1.6262304444311395
H -1.9409262666791303 -2.337905677913423 1.3476416073327977
H -1.0451632796027113 -2.996408628775956 -0.02043994436996366
O 2.542218413207357 1.8177881788584034 -2.7793073861182034
C 2.1858225312758757 1.6329733204442975 -0.11379124914465263
H 3.1533886129072335 1.730928509895418 -0.5828283530848787
H 2.2065591683634143 0.9034331823531714 0.6859984433275718
H 1.8342477139020288 2.59693373544333 0.23162476959070508
H 2.4011068617175595 1.7176448074160025 -3.719437900824059
Rh -1.1038389883600475 0.23789313340592413 -0.008863734810807178
I -1.7476021760444738 -0.8576610236296793 -2.2579346670199865
I 0.9120729288964956 0.9346448077883336 -1.6393974490074048
O -0.1886567195486983 2.1594458160200083 2.09402555962967
C -0.519302260423973 1.3738893213451806 1.3299573873041874
O 1.0362440102803256 -1.164006993277913 1.1464347790989788
C -0.10834623402540981 -1.3035047449220334 0.842170086702315
