13
## STRUCTURE-ID: 645689d71e705d29d773b9da ; CHARGE = -1; SPIN = 1
C -1.433507046706415 0.10530550948473293 -0.3529640429894953
H -2.1907291382201763 -0.5445985429055928 0.08091828786738624
H -1.8308071217817348 0.7272931129403478 -1.1506358272349053
H -1.079935695316064 0.8176802312196121 0.4734195034548959
O -0.1745340724359392 -1.922273644670626 -0.2861834441513739
H 0.5019433299531304 -2.4778041041289893 -0.7124404947245834
Rh 0.6022164832920959 0.5400167434043623 0.9822267574605275
I -0.4849169461789684 -0.7189067153224173 2.997187279491339
I 3.0682798650875127 0.31752482596773235 1.8610870927857075
O 0.36894474965189306 -0.43908284470503606 -1.882162738427405
C -0.2697815496381818 -0.7063579534761546 -0.8712571006935217
O 1.6700501977972162 2.5568842950693997 -0.9217128381950959
C 1.2527769444956283 1.7443190871226426 -0.21748243464348171
