18
## STRUCTURE-ID: 64567018cc09d9262f6aac5d ; CHARGE = -1; SPIN = 1
I -1.961683954675871 0.6247369436872213 1.4952846948742586
C -3.8630887602795574 0.7085985248076757 0.4343521359394146
H -3.642213044740389 0.6833813000705709 -0.6277213536590786
H -4.344401937905767 1.635742556633658 0.7188192432762243
H -4.440261230531306 -0.15460496400282844 0.7408099238752722
O 3.326993329593224 2.4177026938778967 -1.2535798167460226
C 2.957865126034944 0.46442469847627427 0.6350503439802802
H 3.6345429549857187 1.3043414002519944 0.6235577317035482
H 3.4963051108796868 -0.45583436131880045 0.43398569222017175
H 2.43145653879253 0.3991725400664911 1.5819964537776223
H 3.132574755322875 2.969802573789991 -2.010767486942308
Rh -0.2356264346704893 -1.1032808121780449 -0.4553814986394078
I -1.30154928815846 0.13480318513003506 -2.4997773088807462
I 1.557519425550017 0.7863149634510315 -0.9098190018953399
O 1.7353611513632785 -2.426221010538837 1.3688591545915192
C 0.9515646354846858 -1.9193369338449973 0.6861590735762398
O -2.0269758209109394 -3.5178714572399588 -0.4882964252695509
C -1.4083825561341887 -2.551871841119405 -0.47353155578213646
