17
## STRUCTURE-ID: 64568b52ea601f38f32cdf7a ; CHARGE = 0; SPIN = 1
C -1.5466760490509441 0.796586836854903 1.3402924030317744
H -1.8602949176868682 0.6962778694844205 2.381298965682134
H -2.2361794061195837 1.4737805311782044 0.8370521421085504
H -1.5661701551844096 -0.1908834921707401 0.8727943827733211
O 2.2523931851730894 -2.036690513408192 -0.05405195091226509
C -0.49604047345046365 0.30129750434748576 -2.5125155828512087
H -0.7349676738299004 -0.5718865048152448 -1.9136458403492689
H -0.2892399347164404 0.035090803385174035 -3.5424471164037254
H -1.2723528368615915 1.0544910849061027 -2.4491048655625316
H 2.213787417423708 -2.9541089189015515 -0.3937498217489259
Rh 1.326544580691524 0.30631792060483426 0.814441542445592
I 1.3274273129751504 1.1705168342071968 -1.692173798443668
I 1.820798023786792 -0.5126514352551652 3.209833405959909
O 0.1861531759251731 2.496597354034929 1.617767485810765
C -0.19380689200896323 1.3993715332523886 1.338537932621279
O -0.009742561344791343 -1.967936678120499 -0.029836269204232248
C 1.0783672042785062 -1.4961707295843596 0.17550698504236437
