9
## STRUCTURE-ID: 6456647209725e04a22cdf85 ; CHARGE = -1; SPIN = 1
H -4.492660400145108 0.07391799743947237 -0.1493623887231212
I -6.0404573469993545 0.11814174363642574 -0.37167208986890427
Rh 1.1370374633090514 -0.13554567134144768 0.33526475142803974
I -1.4195354075082935 0.009990852303446651 -0.02816284171327299
I 0.9277902111238693 -1.1131390926516076 2.7374256401178085
O 4.0979358476612555 -0.24550718987894704 0.6945986597709978
C 2.9559478876631387 -0.20550209426450075 0.5541902911358363
O 1.4876259470532454 0.9590146797055318 -2.4177943454122217
C 1.3463157978422076 0.5386287750516313 -1.35448767673515
