12
## STRUCTURE-ID: 6456654a6e10ce6b105eb02b ; CHARGE = 0; SPIN = 1
O -1.18269853393756 2.4319513665152157 -0.5279099050580457
C -0.6927637545749783 -1.1222066353380844 0.5512740032024993
H -0.9941817256293953 -1.6237547965470749 -0.37486825445751776
H -1.5731519427436333 -0.7407370548297872 1.0630575415041805
H -0.17517572551626717 -1.841753193089092 1.194650229297264
H -0.9841510154958881 3.0164523003077046 0.20763377785866255
O 0.13226406189352596 -0.010265031714223053 0.2775896408543695
C 1.3243611340274897 -0.36406042865311455 -0.3901315074177801
H 1.107879197859057 -0.831366007602462 -1.3570650638697455
H 1.918949869077054 -1.0562484962174041 0.21564052313844678
H 1.881538999539058 0.5566876599584687 -0.5460633442969272
H -0.7628705644984686 1.5853003172098417 -0.31380764075539774
