12
## STRUCTURE-ID: 6456649ac12b5e09ef763458 ; CHARGE = 0; SPIN = 1
O -0.374478108052651 0.9681966296543598 0.9760306302883391
C -1.3761347516446063 0.03485870198466994 1.324073679144622
H -1.8225207015443783 0.27266876560857684 2.2931628666296615
H -0.8911097297646916 -0.9376613217591637 1.3884661032512065
H -2.1619491670551287 -0.008199191936962174 0.5641025881050464
H -0.7665224254915664 1.8485329395868113 0.9291601071252926
O 1.8511839832244796 -0.28594130694672515 -0.35706441335361666
C 1.1921587053034712 -0.4814708105592133 -1.5866429490589509
H 0.23102943690775946 -0.9864778973366093 -1.450300696449981
H 1.838393889690304 -1.1095596345790348 -2.198482636649496
H 1.0252266141553272 0.4685085520345944 -2.105101770623071
H 1.2547222542716752 0.21654457424869764 0.22259649159095893
