21
## STRUCTURE-ID: 64567772e4e8a13de9087707 ; CHARGE = -1; SPIN = 1
H -2.001947220144336 0.5218214613475214 1.402763503405085
I -3.2297082402878083 -1.2165124785724943 2.7201597559698856
O -1.6536548682645815 1.2453229240627541 0.8440032830815352
C -0.671776985286318 -1.7850174178104468 -0.5357081803661808
H -0.5428717398544121 -0.7201364456664674 -0.32891519662618246
H -1.7223980792294846 -1.9574456810957426 -0.7578022813581523
H -0.4112279078555556 -2.3418377598111877 0.3623280159081605
H -2.2356515372151877 1.9996119290020216 1.0032447018535566
O 0.007580365008757378 2.7191708117014484 2.770095287023057
C 0.1999381159031365 -2.216109596907533 -1.7037972949385178
H -0.04701580017478768 -1.648676923573727 -2.5987291615709576
H 1.253142551689162 -2.0588116404128254 -1.479771245579944
H 0.05661807508419345 -3.2723523554553813 -1.9188770338970702
H 0.3509856056632563 2.40104416329534 3.610444974620125
Rh 0.7033153670954155 1.8610004119687027 1.1352771892202493
I 1.802641081409069 -0.030844889821127517 2.576833054892349
I 3.520957367552856 -3.1765548114736055 -5.82281403868076
O 0.6255867018540824 4.616093047317164 -0.02155155649839441
C 0.6180630356862622 3.537141022437853 0.3399583927031223
O 1.9516453203181157 0.49429210247389693 -1.2280278364430106
C 1.4257787910481594 1.0288021269938499 -0.3691143327180441
