12
## STRUCTURE-ID: 6456671c7d128f1512248ae8 ; CHARGE = 0; SPIN = 1
O -1.5841318624506648 0.3536328582136918 -1.8857463580040044
C -1.788818476303455 -0.010358084188563509 0.39800987667460536
H -1.2476731570015172 -0.5012548617482837 1.2040375683487876
H -2.7792064040539426 -0.4566356265242015 0.27659789700017656
H -1.8836858324440016 1.059216887713609 0.6000098450696161
H -1.3708598394882572 -0.27405452258726554 -2.5944185377731364
O -0.9845759313209469 -0.24228934264823213 -0.7341891205828875
C 2.32738089637261 0.013788244462021263 0.5471805287502489
H 2.972652194744299 0.6437009598208964 -0.05097359277900365
H 2.8150502658433934 -0.9358613317522173 0.7243185083080544
H 2.128769874794218 0.4996172674356221 1.493522522104806
H 1.3950982713082634 -0.14950244819705416 0.02165086288272577
