12
## STRUCTURE-ID: 645668e1d31d4501b0671008 ; CHARGE = 0; SPIN = 1
O -1.475583642525372 0.45168746518377717 -1.0733226940928413
C -2.0544779471474786 0.10058339085778302 0.16100686485693808
H -1.555707416411373 0.6068092421024431 0.9944680077027735
H -2.0184768264864683 -0.9809579684778515 0.32704783989602126
H -3.095551249199558 0.4198297368641013 0.1278642095361878
H -0.5508697177031121 0.14446320456431785 -1.0690128402879318
O 1.234435635061157 -0.420303905473869 -0.7928847022519301
C 1.8124348327829902 -0.08787866941595109 0.4540095772941594
H 1.9947851392960545 0.9875796637808842 0.5324688968171999
H 2.7489161713397605 -0.6277838597716725 0.6131844414845865
H 1.0989855859177091 -0.38511190719194527 1.2206852032576743
H 1.8611094350756967 -0.20891639302201337 -1.49551480421284
