12
## STRUCTURE-ID: 64566858ab5ab46055051b8e ; CHARGE = 0; SPIN = 1
O 0.020544865316067876 2.0793877026525625 0.5824929594344713
C -0.6354242030693859 1.4800339640587301 1.6762968844508772
H -1.3076380236091276 0.6803246956180963 1.348941171585206
H -1.2207374879699389 2.259956435589895 2.16115291787188
H 0.08038585847227171 1.069864974337476 2.3952025344992727
H -1.673383368839835 -2.179734438833012 -1.6289102427754782
O 1.1957898743164146 -0.4694756524221665 -0.34635535736213896
C 1.2705966738691552 -1.2126113862743302 -1.2875177702704041
H -0.9243407982789297 -1.9605674892042464 -1.5545570196690475
H 1.5044976178758376 -2.280740700232615 -1.171096406821943
H 1.1368099137100947 -0.8633247333395452 -2.3220184430572357
H 0.5528990782073775 1.3968866280491559 0.14636877211455748
