12
## STRUCTURE-ID: 64566b526aad622f894609e0 ; CHARGE = 0; SPIN = 1
O -0.9393304241105795 0.04265792012526875 -0.9614491912745091
C -1.5710378528815185 0.3527664363417338 0.3012495816987964
H -1.4048544520625217 -0.43419257271740247 1.0363557720752201
H -2.6325681082529444 0.5016924984010332 0.11466056560642113
H -1.127598446563116 1.273701667414451 0.6749138368184602
H -1.3563747684968486 -0.7685495364191152 -1.3345507700345403
O 2.5506406494036513 -0.0603259236209799 1.53948194196881
C 0.4819443499557726 -0.18914150626215837 -0.8466795251621697
H 0.956263624248795 0.6846345094328501 -0.40557342019403425
H 0.7212080492623899 -1.0216941275578086 -0.1875229903211955
H 0.8796293900019256 -0.3562014970938522 -1.8436186458989765
H 3.4420779894949796 -0.0253478680440007 1.9127328447177199
