21
## STRUCTURE-ID: 6456749f598d1f53121f8be4 ; CHARGE = -1; SPIN = 1
H -1.2034681674624723 1.281228519854634 2.246903817239123
I -0.1523815931990156 0.44897253470727205 4.607424724175541
O -1.4746356742450142 1.5033903342453196 1.344941144566333
C -1.3920378985189013 0.3583897274227363 -1.6165173393837509
H -1.8293366913308247 0.6450048434722162 -0.6638583530287733
H -1.7625820868201754 0.9834186839957383 -2.4312367500739125
H -1.5763544136481193 -0.6948518764161464 -1.828522412812988
H -1.9986133000117476 2.3070311127822003 1.4192972800430668
O 2.0959869456108047 -3.4571226044217136 0.5750283249612361
C 0.30198782220984605 -1.5738365943536832 1.3143391836546618
H 0.006044636827048127 -2.562895789825524 1.6324900453206996
H -0.5436411044219237 -0.9033529279951571 1.2344474191419266
H 1.0468169398351752 -1.1862140473896756 1.996958964354699
H 2.617494929717434 -4.024597092637983 0.0073662463691886
Rh 0.7135622994532147 0.6261923701191983 -1.5384792387802853
I 1.1529677283960447 -0.5481047294467707 -3.800011572093426
I 1.1920600857472483 -1.761576129195639 -0.5887421987081555
O 1.328728724293166 1.6407086348292828 1.1637325367164775
C 0.8462965302539641 1.2726687745914465 0.19949181959315523
O 0.07663043373444567 3.271615485378188 -2.889661202167152
C 0.5544738535798096 2.3739307702840624 -2.3853924390876755
