18
## STRUCTURE-ID: 645689c39d2cf05a314f733d ; CHARGE = -1; SPIN = 1
I -2.5724800065373765 1.4163438998923594 -0.5380637960603959
C -1.6873648647574488 -2.339817079689025 1.1688609915597592
H -1.6635250259257632 -2.1398198006179605 2.24520825625325
H -1.3533235677248376 -3.3697907901964976 1.0050683274519654
H -2.7276202393784774 -2.260689083707536 0.8264123542636406
O 2.067953738374088 0.9852483949705639 -1.9031291520036855
C 0.6286843974711662 2.8173054609945747 -0.408397337642357
H 0.7710956542945254 3.58380048559091 -1.1612605156481772
H 1.5587755943650397 2.5951603799583536 0.10199169462924482
H -0.1506959617108811 3.083296892568562 0.29573318541222016
H 2.2120503405342817 0.6411004188605542 -2.785044202035238
Rh -0.5894616918016294 -0.9742825203871726 0.05813678906799842
I -1.3013069129660808 -2.0332931253527553 -2.3518965751191856
I 0.13202333500582475 1.0202635179678816 -1.42532758561844
O 0.8292284282734746 0.712135675167414 2.1323029308566825
C 0.5962734404581914 -0.2691667305718021 1.430265896225756
O 2.0665423805805476 -2.1269785289153744 0.5176340302901928
C 1.1831509614453701 -1.3408174665330517 0.7915047081167683
