19
## STRUCTURE-ID: 64568ef1b3b52b71232b66ad ; CHARGE = 0; SPIN = 1
H -1.75056473721454 -3.100183742683001 -0.028013419841347264
I -1.4003612594947652 -2.427633761125073 1.3616188848171973
C -1.868457942946139 1.5199347036634854 -0.014810643379793454
H -2.1343165427188366 2.2492268912524658 0.7490552975459633
H -2.4991057670677033 0.6280924022852923 0.1470150995818724
H -2.135357621941368 1.9054219876278418 -0.9975930692518548
O 0.19421183899097755 2.4156411317857973 -1.4901697568706826
C 2.2446755976054305 -2.8656625898963513 -0.44277813619871725
H 1.7207900943911034 -2.7735642396607463 -1.3894737193076505
H 1.701399682400257 -3.4855266135652068 0.2626372195316072
H 3.2571981272427197 -3.2255693476857 -0.5861732754415008
H 0.6169485293691529 3.276266589761107 -1.6722010712208224
Rh -0.11190516689430355 0.26359746903323134 0.26338089992880637
I 2.4014259046406083 -0.8695997639631411 0.4222010972165667
I -0.4343629268479736 -0.6550438054375429 -2.189641487414125
O 0.001786690136521973 1.099779649467429 3.123414071705814
C -0.0230729865390787 0.7759231961326046 2.0283784047652693
O 0.2547070113695973 3.0466954742426045 0.6484017021350096
C -0.03563852448166084 2.222204368764945 -0.19524809830157092
