12
## STRUCTURE-ID: 6456658f75002324e82eaab8 ; CHARGE = 0; SPIN = 1
O -0.6612319558785615 0.7651863073009725 0.5025907464165893
C -1.5251703379374013 -0.047125608254049066 -0.2595636682363924
H -2.1298535291980047 0.6240658483452103 -0.8656379064996613
H -2.1776835994876467 -0.6439092059111389 0.38894888168985026
H -0.9555521543809757 -0.7222254296850968 -0.9085537782333057
H -0.3973385097539755 -0.5808322201930197 2.0578940656517193
O 1.8536977035858029 -0.17356114817188076 -1.6123106390497322
C 0.18541188421245264 0.013300892606831571 1.3443221263249272
H 0.8225108655128623 -0.6582196909433854 0.7579443588691379
H 0.8010549617469039 0.7291830745649608 1.8844126359625368
H 1.427521899925255 0.6665134477150167 -1.417601686967531
H 2.756632771653287 0.027623732625575832 -1.8724451359281276
