8
## STRUCTURE-ID: 64566412036d2368ec7ffa80 ; CHARGE = 0; SPIN = 1
H -2.903364137406034 0.6507883732465456 0.018851328223945682
I -2.324189341841593 -0.5652753243678665 0.8394813513147606
O 0.4167520082183548 0.07130636736744375 -1.144776942656933
C 0.491840965480806 0.03997892751166263 0.10487389983625463
H 2.7069903343469797 0.45335357261652676 0.5013702333041626
H 0.7081340493991769 -0.8509458570303685 0.6779684879042996
H 0.30918731642012026 0.9671739273765183 0.631257637559651
H 0.5946488053821866 -0.7663799867204587 -1.6290259954861452
