12
## STRUCTURE-ID: 645668c5acd5652c3732dfd0 ; CHARGE = 0; SPIN = 1
O -0.4668041385203226 0.6073842581143902 0.5810067227036843
C -1.4047075600961412 -0.3999300694900505 0.7604613440558303
H -2.0422688834338913 -0.15505166324471628 1.611244178175116
H -0.8699643047363814 -1.3161050493269533 1.0332459477578257
H -2.0097655770358087 -0.5603052003025106 -0.1363060808516518
H -1.3840254018910803 2.217538302976232 0.7943261005904881
O 1.0026043343487063 -0.25195160443740794 0.2232425223088606
C 1.3297262084302668 -0.12110745936885724 -1.151380469883559
H 2.322304707866032 -0.556057397905753 -1.291042336455372
H 1.3274217660914311 0.9202421110829249 -1.4721074881299614
H 0.5951601537005323 -0.6854291706532487 -1.72279111732004
H 1.6003186952766235 0.3007729425559231 0.7701006770488087
