13
## STRUCTURE-ID: 6456738c940f43026261a6e0 ; CHARGE = -1; SPIN = 1
I -1.1380895432925422 0.7941452051349595 1.7456484234657936
C -2.1253104190675147 -0.2585785607696924 -0.5189804135296018
H -1.6841256436772776 -0.6600936441334748 -1.4322108279499783
H -2.710822292231131 0.6290701706234576 -0.7040668784273646
H -2.649458160435185 -1.0083560993862966 0.051158257174369344
O 1.4211684053309426 1.2939008538466055 3.0711173240045087
Rh 0.4566276200373471 0.1252643405031378 -0.229439222099506
I 0.16910859439805537 2.413274053414384 -1.532362386632223
I 2.6718741242172857 1.2994738850034337 1.6450296887599503
O 1.1083802186934693 -2.266684627180828 1.437379734682259
C 0.8223756006165845 -1.4069249513743596 0.7368652911190529
O 2.177181432323425 -0.5885540615612249 -2.575505838423788
C 1.4810900630866701 -0.36593656412034975 -1.694633152143471
