18
## STRUCTURE-ID: 645673ed07455027cf1dbeab ; CHARGE = -1; SPIN = 1
I 0.1252718807731168 1.733056905743681 3.6587740793966135
C -1.8263465335048057 1.768994147736637 2.7666226952763417
H -2.4681726988667094 2.3685672193273484 3.3976832991811605
H -2.1795246823078838 0.7479856321794555 2.709616407339919
H -1.7340137228268433 2.2023005880871427 1.7784246988791623
O 2.0674542330403476 0.41423998493169284 -2.0918089566318137
C 0.6935263310404242 -0.5153604682822537 0.40236695249264975
H -0.35280367671953405 -0.4019916307395516 0.6887500577227312
H 1.1771448257259671 -1.2534639081843058 1.0485350575790717
H 1.208056514716877 0.44609926531022615 0.49249698417672166
H 3.0181600642860085 0.28266649281632295 -2.013956652599838
Rh 0.9175565227550907 -1.1062558680240793 -1.5732246187633758
I -1.0612936637027548 1.9643665053634436 -1.3399828162528062
I 3.0078763614385555 -2.7504658976429006 -1.4692692451978118
O -1.0132029978125767 -3.371840001439355 -1.4012549045530414
C -0.2598865827760718 -2.501391751251405 -1.3730690937394117
O -0.8710957627115863 -0.09524564012312665 -3.3905073761841753
C -0.4487064125475021 0.06773842419083557 -2.290196568121923
