19
## STRUCTURE-ID: 64567affdfbe165fea33a748 ; CHARGE = 0; SPIN = 1
H -1.8264146606836318 1.9615170680265648 -1.8115689861374715
I -3.0153524433124352 2.9810080604884583 -1.5085434631137438
C -3.4593464289416938 2.173475436416535 0.4524667885005972
H -2.563426664602251 2.314662122673925 1.050461136203227
H -4.306126113173273 2.7367486351035875 0.8381742993090605
H -3.69765181513923 1.1251679012716034 0.2971155543918529
O 0.8379789412360389 -3.1511086827512553 -0.9635795493281775
C -0.2425549914387264 0.35423535201798034 2.069565149650623
H -0.44604041748930284 0.5397360358777096 3.1175123931972353
H -1.0713899770935986 -0.1398823585937674 1.5758944268554234
H 0.04899730737515115 1.2569306005171563 1.5450399045023897
H 1.2119177682962254 -4.032099200141792 -0.9290853741241566
Rh 2.07576485837172 -1.5029444417293978 -1.0607898644817773
I 1.4707182584830112 -1.0242008887166474 1.9826972741221176
I 0.00209930364702876 -0.05423520223412964 -1.5775804116715928
O 3.998996980845349 0.7346166083141538 -1.4727785211394862
C 3.203829244727535 -0.08766189590596112 -1.2815715209142244
O 4.29974027356021 -3.499168772523548 -1.1998911973510948
C 3.478260575331632 -2.686796378111356 -1.1235380384708473
