14
## STRUCTURE-ID: 64567b16b656595d0c61a6e3 ; CHARGE = 0; SPIN = 1
H -3.9480786835585446 0.5645820260705163 -1.1530095764496688
I -3.8018233904376286 -0.7166439811579832 -0.22992619842808112
C -1.2497392713794648 -0.35037424165669606 -0.1821666053675078
H -1.0631978712332635 -1.313162714644096 0.2761975303432698
H -1.2493465053769741 -0.2652754207340802 -1.260955345649816
H -1.3810357971226033 0.5251601850733902 0.44409813379159124
O 2.003089373161521 1.2962652175397174 3.3650715695221467
Rh 1.2138406468544622 0.3215867411765131 -0.15327419629091368
I 0.5104118459151952 2.3808921567299253 -1.5592483597731397
I 1.3694935724225503 2.034781156496797 1.783611605909417
O 2.319530360250689 -1.5706074244081303 1.8788627312684345
C 1.8550068254764167 -0.9244444298705402 1.064525774812847
O 1.885360216423804 -1.2733458734748786 -2.598661664386357
C 1.5364886786038316 -0.7094133971404676 -1.6751253993022122
