12
## STRUCTURE-ID: 6456689655ea56307223363b ; CHARGE = 0; SPIN = 1
O -0.9127958499451829 -0.8021105594204608 -2.4670766785255105
C -0.8424406992277942 0.3705013208912685 1.0843476540620542
H -1.8002688495020622 0.6696522043623502 0.6653644451582592
H -0.5200513903005034 1.1064364612333641 1.8286546373085262
H -0.9419090127549806 -0.6070379501309631 1.5687532739264176
H -0.9745892921987942 -0.020872060583880706 -3.022118332293934
O 0.0709881602914826 0.3109449247027848 0.009926363146907672
C 1.3701644438054932 -0.06235517516610624 0.4160436171022182
H 1.3676992266354178 -1.060132077534632 0.8684846657359877
H 1.773594786694095 0.6559088857937816 1.1377894111155362
H 1.9885165266614646 -0.06847359645685862 -0.478473039288215
H -0.5789080501586262 -0.4924623776906478 -1.611696017448246
