21
## STRUCTURE-ID: 645675d57cc7417af52c50ce ; CHARGE = -1; SPIN = 1
H -2.545556601508058 2.223443454467664 2.456919005815082
I -3.1527339047318295 1.7682780283051993 0.968725545042055
O -1.7873246905421922 0.2969590894366164 1.7076124231392171
C -3.150648943321116 0.3787118117565432 -0.735788771842531
H -2.1208736929592673 0.1478390341895357 -0.9876681034104111
H -3.6391397927461857 0.8959786025974873 -1.5506731091058212
H -3.688929380796495 -0.5224324979028847 -0.47091245614215116
H -2.1246731938598566 -0.5890280961042446 1.570539029552384
O 0.20064580872475798 -0.8689908530385521 -1.078273077309216
C 3.3093308489191284 -1.1540780448512606 -1.9656514247125918
H 2.223806385567443 -1.1355839566010062 -2.0120997016286606
H 3.6632761721073837 -2.098475300942058 -1.5706247626173055
H 3.747929667652073 -0.9329688580873372 -2.92934189437016
H 0.08175102079963344 -1.824358470378494 -1.0458279243215731
Rh 0.8812947837354655 -0.10303517846408276 0.7307319482685803
I 3.899846672858271 0.3928712388692234 -0.5934221904665721
I 1.465435354221792 -2.5234826706852895 1.5727796192041041
O 1.6079805961941036 1.0629570108150432 3.3772338861173243
C 1.3800583043720072 0.606946022247876 2.3374860281765515
O -0.44029007979417545 2.460882725579169 0.0010946914873179855
C 0.1888146651070843 1.5175669087908428 0.2171612391242982
