18
## STRUCTURE-ID: 64567325f78ea92bbe2726b8 ; CHARGE = -1; SPIN = 1
I -3.1887811759569065 0.9590359702656183 -0.5541600894200319
C -3.6376813771172407 -0.014159061652526249 1.3203430689048492
H -2.9551793131379647 0.3734830345774121 2.067576816364322
H -3.4872320140103192 -1.0787713239860104 1.1860054808987905
H -4.6651649321739646 0.21266231085378826 1.5720778779656603
O 0.47619126658561883 -0.0008935885085683649 -2.039317348297017
C 3.3057751520015692 -1.3080805089830245 -1.1642744408630736
H 2.446985052888085 -0.9335352482504543 -1.7166480971459332
H 3.1362633580359303 -2.3228664223281577 -0.8259016578518649
H 4.211090277580997 -1.227574357114065 -1.7505358722255022
H -0.04643968796343051 -0.7619053791402487 -2.3133111902189762
Rh 0.16392663035586386 0.48417909807271026 -0.04772720286358627
I 3.5263663432536556 -0.06698441342772975 0.5729952538552727
I -0.3409345221274171 -2.030750658496264 0.5101826247022124
O -0.2526227993968822 1.2535156167845038 2.8056099980188525
C -0.07175277753915657 0.9470795580182658 1.7028178872130213
O 0.8164898087383068 3.2998184051662105 -0.812216802176261
C 0.5627007099832633 2.2157469681485127 -0.5135163068607062
