19
## STRUCTURE-ID: 64567aaef20c8b31fc5c0b0b ; CHARGE = 0; SPIN = 1
H -3.0240102119601113 -1.4394405608640204 0.6967220100242613
I -4.08017804497381 -1.1708638758597472 -0.5706381655619328
C -3.2498419962617744 0.7906364183314214 -0.9165773374729206
H -3.5551716205576547 1.0971437736316314 -1.910911254798914
H -3.650652158120833 1.4470908626552548 -0.15180661544100033
H -2.1606860160106196 0.6878648515551271 -0.8459233484791608
O -0.24063709622654597 0.01315080378961078 -0.6092101487079526
C 2.9141610001834697 -0.9352638922859828 -1.4335116189242103
H 2.0220418887226743 -0.3550680281124056 -1.647405541116791
H 3.136719492545669 -1.6327960638161325 -2.2306453223084426
H 3.7578807705151656 -0.2871516915401756 -1.2306843378659158
H -0.4523589957871528 -0.919271324292544 -0.7416814637278505
Rh 0.581262870908741 0.2883176501883488 1.22916809363064
I 2.5193630489341152 -2.0749218518997963 0.34959023665312455
I -1.2617240691483584 -1.3065045138133218 2.2684004050836495
O 1.709778069235795 0.8432082887745468 3.941722432751
C 1.2716715758840558 0.6146101759936421 2.898770831181019
O 2.2016073644274816 2.625545598703684 0.30761255723237163
C 1.5607741276896647 1.7137133788608687 0.59700858784901
