17
## STRUCTURE-ID: 64568e7d5268e81d3f5eddfa ; CHARGE = 0; SPIN = 1
C -0.6530150165607694 2.890045174696245 -0.03538183736291794
H 0.3175320507342743 3.30145902272521 -0.30390005221778477
H -0.9720367122097633 3.2619486552471755 0.9381428405034381
H -1.3658131393476358 3.204270695051167 -0.7975814370475154
O 2.1612242620337825 -1.5657792394507446 1.8540619441914183
C -0.32468534123085324 -2.6073444687151524 1.3115147878903552
H 0.1968445798608889 -2.9500824403224954 2.196663196598214
H -0.7916265623121095 -3.4217587866164476 0.7688994146676846
H -1.0302736513132735 -1.8162275085056534 1.5463930581372256
H 3.0151101308670665 -1.1413184354095092 1.753433361029392
Rh -0.032115057800982255 0.07266716824938697 -1.315344220281998
I -0.5484063353757369 -2.439552250324936 -2.2358629817144937
I 1.206548190551863 -1.7571799533570736 0.09669076647420048
O -1.0390091898628504 0.6795710197408819 0.8523398732928994
C -0.6031634267152753 1.4016705840924872 -0.027947823232511996
O 0.3261376485801975 1.7150663734104759 -3.7998466517828944
C 0.1367475701011663 1.1725443894889789 -2.80227423914473
