8
## STRUCTURE-ID: 645663a9a57aa254f15b5c28 ; CHARGE = 0; SPIN = 1
H -1.136393496446413 -0.2994409835916842 1.302433465459412
I -2.55280987353943 -0.24447054128347442 2.0189150403832046
O 0.48446613455614285 -0.2562325181932456 0.4651451854217806
C 0.5007737257271263 0.09961729583965936 -0.9050420452742858
H 0.3856650837677102 1.178704605669869 -1.0357334299474772
H -0.3407532162725343 -0.40776774947705785 -1.3731684905586496
H 1.4252379403954714 -0.2300468352116658 -1.3833133453597393
H 1.233813701811939 0.15963672624759517 0.9107636198757759
