12
## STRUCTURE-ID: 64566ad1c514b411a12726bb ; CHARGE = 0; SPIN = 1
O -0.5952580213250261 0.6063276510514932 -0.9432501976853397
C -1.9499696921469798 0.20219889567949736 -0.9427159100515946
H -2.6149855534749404 1.0494656900432768 -1.1285080548362947
H -2.1575586359359615 -0.20074217286908078 0.04660819978195372
H -2.1331845716308484 -0.5751383869981938 -1.6893495294656502
H -0.3811436179830429 0.9778124357742524 -1.8078161926922023
O 1.3699331607524907 -1.0528906950078663 0.30188447751968367
C 1.844297286229876 -0.26191818824327917 1.3658990138226041
H 2.2787984922744084 0.6756366271179565 1.004553128517232
H 2.6171108303177464 -0.8397410214246915 1.8718585135730859
H 1.0471249814339478 -0.03137900535903316 2.079966834436823
H 0.6748353414883365 -0.549631829764333 -0.15913028292030149
