18
## STRUCTURE-ID: 645673a19ba847094b304576 ; CHARGE = -1; SPIN = 1
I -4.434470514028274 -1.9914747053576978 -0.5324731302364752
C -2.6210225822907156 0.09753289990254375 -0.4634175531187259
H -3.435825290511851 0.682668131284468 -0.09231837532651191
H -2.566027259164446 -0.09850992759331617 -1.5139321027094943
H -2.1077118027441477 -0.5545534228570778 0.21337053233737102
O 0.2575850191579404 -0.879343868088358 1.0568954389861338
C 1.9730709545421032 1.6482205606585372 2.16103811049219
H 1.1786410044873408 0.914692803365945 2.2511164787074995
H 1.570669187870066 2.6373594465537056 1.9791122736663136
H 2.638358458009121 1.627572909962383 3.0142931363057395
H 0.33197804165592704 -1.791418938991617 1.3416818267715875
Rh 0.7235594409292337 -0.33255472627290034 -0.8610010863914377
I 3.116311590971819 1.0846161471567688 0.42054795699997155
I -0.8748614984356179 1.8347608481802675 -0.428165530869274
O 1.22615303296804 0.40539964953529095 -3.712586439894677
C 1.0562503732352027 0.14726651116341727 -2.6033189103313052
O 1.0066181147009952 -3.2911219866220356 -1.1082821834975536
C 0.960723728647233 -2.1411123319803194 -1.1225604418913202
