18
## STRUCTURE-ID: 645672abdc6fac272d750efb ; CHARGE = -1; SPIN = 1
I -4.137341944077912 0.718922497444039 -0.6544907511745235
C -2.095001962521787 0.5561281372244391 -0.055971727279114016
H -2.0210361557949357 0.8708710686891472 0.977804364280922
H -1.5076381172616322 1.2042673748584765 -0.7019583071938479
H -1.8011433366856482 -0.4862582181867674 -0.17667644430336987
O 0.21582078558533632 1.8361880040874905 -2.3368677546094907
C 0.6682455546025895 -1.5791128884230845 3.244784613810845
H 1.255285161011226 -0.670752185618563 3.327346701873908
H 1.0719928673277257 -2.375012655590012 3.857864050810743
H -0.37269413884944835 -1.3874343001124294 3.47545682417413
H 0.44822018573332795 2.51546446839125 -2.9993986631013714
Rh 0.9845562237558714 -0.24086675539762334 -0.5964939276998327
I 0.7757352813416257 -2.2456797791022405 1.1618370088010403
I 1.3506858550703624 1.5970481874093667 1.2043263760337217
O 0.6797193494770027 -1.6557762004163095 -3.2024726347598707
C 0.7647833542685949 -1.2059572008121624 -2.1294302296288263
O 2.400167523670159 1.412849801573352 -2.4558459893658626
C 1.3196435133475801 1.135110643981657 -1.939813510669209
