13
## STRUCTURE-ID: 64568cfe1b4ce852933ae5dd ; CHARGE = -1; SPIN = 1
I -1.4119820176769817 -2.5740344657047074 0.293138414957842
C -0.9397242117858473 1.0271539971329422 0.5727479902995736
H -0.34235292584898624 1.6318281075071515 1.2746649485908055
H -1.4152966426298599 1.6846806131235688 -0.15355473693735647
H -1.6976727930418662 0.525625228670622 1.1729905837785413
O 0.7442726785802164 -0.7015644701909128 1.8273600323077857
H 1.4044283931868573 -1.3403882204255355 2.1129058044542472
Rh 0.8039590823917769 -0.08406900082438841 -0.04852084293682065
I 3.1490792004284005 -1.2228001066816734 -0.39046120326453104
O -1.6197032681163546 -0.3533142426236692 -1.621419385937985
C -0.9382464447033781 -0.5836338206099981 -0.6754791543153641
O 1.237301663744523 1.262050408609136 -2.6809474812654646
C 1.0259372854715014 0.7284659720174522 -1.683424969731272
