12
## STRUCTURE-ID: 6456670e4dede909ab111df8 ; CHARGE = 0; SPIN = 1
O -2.3863362935214174 -0.3705458149625508 -1.6688256643236676
C -2.0022389161500254 -0.22405745154772913 -0.3163448096658687
H -0.9183106938777783 -0.12759562865432467 -0.21734313939686328
H -2.332895313413397 -1.123450601750861 0.20041980149342042
H -2.4870251137641737 0.6453894105552256 0.13969248503224319
H -2.040678325445332 0.38047863683170785 -2.165245813369341
O 1.4323055284394213 0.22024054145316416 -0.22976921206746198
C 2.0632666162944737 0.18574353648947822 1.0319333520424854
H 2.3051790848901716 -0.8387275940933693 1.3299651139840085
H 1.3561928216651835 0.6036287164391229 1.7465083275585913
H 2.9751685477329155 0.7900195811614702 1.0395617977554357
H 2.0353720571499636 -0.1411233319213321 -0.890552239042985
