12
## STRUCTURE-ID: 64566b8e470ead5b91224151 ; CHARGE = 0; SPIN = 1
O -1.2285989204874241 0.9520312511740898 0.006485889567855882
C -1.9312650837356127 0.8226792314236999 0.9687506806020745
H 0.9458428490008604 -2.0940787419536626 0.030812045038926515
H -2.5871851566010498 -0.04918213388874237 1.1037470365722626
H -1.961528712262682 1.5673339027069444 1.7769181111408123
H -1.1453118794042685 0.3742922056268552 -3.287413188419588
O 1.3138878458905967 -1.6314146908874758 0.7931624508020299
C 1.8293401129626647 -0.39023232605628444 0.3607048428684979
H 1.0408212569328228 0.24721915984159354 -0.0505656460258334
H 2.6152403828562236 -0.5223308044493443 -0.38866831981733285
H 2.255027744848067 0.09307135777102209 1.2385045731868074
H -1.1462704400002837 0.6306115886912028 -2.5524384755165146
