12
## STRUCTURE-ID: 6456686b5fe88f495b3dae58 ; CHARGE = 0; SPIN = 1
O -1.0533865516587733 0.9580061414782872 1.2028854506170885
C -1.90267906089879 -0.08768244718050025 0.794092076095671
H -2.908844082379403 0.17082880647747567 1.1222920142412978
H -1.6142980960017037 -1.04061619913315 1.2497200598907658
H -1.9046763516147454 -0.1986196402582799 -0.295561670400314
H -0.144072235351557 0.7292866176563736 0.9363895226438189
O 1.5082525859812617 0.1734852949676742 0.2142120158182982
C 1.4638974746881719 -0.2761939779482905 -1.125614985352974
H 2.398737994942817 -0.7651811563726473 -1.410242619632489
H 1.2588778835561665 0.5479534336084975 -1.814847256846285
H 0.6541447076220417 -1.0011526449053634 -1.1870509759024304
H 2.244045731114551 0.7898857716099017 0.31372636882751476
