12
## STRUCTURE-ID: 64566a86dd79564f804d91e0 ; CHARGE = 0; SPIN = 1
O -2.8990496769024316 0.010823607064981299 0.35088924020159135
C -0.5756111405334996 -0.23905295241779473 0.33008035550952414
H -0.9180293377325944 -0.8618151812567065 1.1386006051858675
H -0.8225194267519391 0.8010801519067247 0.4633086296285579
H -0.8761549891838116 -0.6122731255221374 -0.6343768484710663
H -3.3059653549262755 -0.8447636884719519 0.16890297066969354
O 0.9989727020081254 -0.37740566624631205 0.3510480963507765
C 1.6523847765355952 0.4164893067391799 -0.6571273466405668
H 1.400474547512515 1.4723110886659245 -0.5605798597869381
H 1.3178723028221575 0.052886016650119674 -1.6262871324794732
H 2.726015194050715 0.2656087741202934 -0.5609540608326598
H 1.3016104031016038 -0.08388833123225521 1.2364953506650258
