18
## STRUCTURE-ID: 64567333f98bf5781a73b9e6 ; CHARGE = -1; SPIN = 1
I -1.1419673732613052 -2.3134365908274126 2.3343333960536174
C -0.1165918579989073 -0.4130344859744915 -4.085219097274153
H -0.7761909689134976 -1.2318281497579011 -4.333568075041469
H 0.9120554331172029 -0.6139928769170173 -4.361486837477251
H -0.48521204702013665 0.5398819150162526 -4.44623559043798
O 2.268571982972353 -0.12150440893228412 2.6531103360011983
C -0.5747916663965301 -0.7508679803186545 -1.9178819257460722
H -1.64572011013456 -0.6043235434086336 -2.013098171617438
H -0.27297170519704383 -1.7931335779334105 -1.8860002195296939
H -0.020244677596934654 -0.21688405564008834 -2.8980736120623627
H 3.0748079677310973 0.32077899207103105 2.368099515594226
Rh 0.5215395258082687 0.9779018810875391 2.569560338106518
I 0.1659032821771039 0.3197263144360587 -0.01490123076761145
I 1.8101779411333998 3.1303976565930998 1.7122620416671477
O -2.076020268891977 2.238544366917351 3.2703641465510724
C -1.0687631475186905 1.8044957306319773 2.869627302612726
O -0.31929564488349876 -0.7308123245783696 4.678041352790775
C -0.2552866651264214 -0.541908862465066 3.5010663305767693
