21
## STRUCTURE-ID: 64568de947097a12033d7d83 ; CHARGE = -1; SPIN = 1
H -3.9266644535158877 0.736795920429805 1.7289782038646868
I -2.6687837480292216 0.3733304085841721 0.6941493893915812
O -1.0897264984596233 0.0986634478883486 -1.0086574503564862
C -2.9204898114338618 2.3968991186235633 0.026436203389165584
H -3.925195774827052 2.4967941758832852 -0.3677495558709126
H -2.1679873114778396 2.5710697850388717 -0.7327904378194775
H -2.729291591983764 3.035368669684951 0.8828940130219308
H -1.468742526925817 0.02838901858782443 -1.8881156305802531
O 1.0968048554682732 -2.898668859325411 2.7859709838392606
C 1.3521304833141958 -2.60270596786354 0.11283535103636622
H 1.0203159102117856 -3.5109589923211817 0.5921403959199438
H 2.4260204905558025 -2.62293856528733 -0.040281854057910925
H 0.8395729010258121 -2.4336977883533764 -0.8303372238781586
H 0.9305146141594484 -2.6635682449153886 3.6986312938403274
Rh 1.036847429396433 0.7623126051785521 -0.5832763350521815
I 0.4252775163458271 2.333302640737876 1.4351018405519809
I 0.9130653841030406 -0.9837579430451464 1.4018334022817485
O 3.654047319763629 -0.45552459109546106 -1.2920241137378516
C 2.672570239353297 0.21954489814088818 -1.314317841961199
O 2.5418928557534453 1.7157615694166466 -3.1694989968673055
C 1.9878217172021126 1.4035886940119777 -2.1319216369552683
