17
## STRUCTURE-ID: 64568b92bb03520a81230d64 ; CHARGE = 0; SPIN = 1
C -1.7969992347031032 0.47181179257202693 1.4333725528555188
H -2.60331735006174 1.0983694576512646 1.049160020743098
H -1.9179700036241436 -0.556873617869102 1.0169174822672402
H -1.8525173364152874 0.41698178155732823 2.5219034976287595
O 0.8514002285534625 -2.8148614088470736 1.249226702493749
C 0.6939057765087414 1.188088965625715 -3.2506892353317833
H 1.4990220366303881 0.47920932611468153 -3.4062997391885723
H 0.9950494427302984 1.9676875857470968 -2.5607575147323924
H 0.32909476077047883 1.5949706278395783 -4.185366684056701
H 1.0114059293748296 -3.4795411845870263 1.9490825837663537
Rh 0.15257919106781936 -0.5332181028109612 0.13992948568251976
I -0.940584240645143 0.12107992074251435 -2.3327952463791437
I 2.683255784423972 -0.3177086636921428 -0.36112680815158493
O 0.039070519867194765 2.1108349796550145 1.1599573869094195
C -0.48117156049483745 1.0559661944594023 1.0422230352204196
O 0.6628572218407558 -1.2216508100289056 2.8418980685671835
C 0.6749188341763389 -1.5811468441294938 1.6933644117058488
