12
## STRUCTURE-ID: 645668b2e2b89f3ee5623199 ; CHARGE = 0; SPIN = 1
O -1.3163383414162073 0.70658067753239 -0.08994066269358668
C -2.1522318006458354 -0.3073744354044123 0.42363550936560884
H -1.9055215052965793 -0.425274823253809 1.4766926271298408
H -1.9911158024582252 -1.254413322268246 -0.0959028915655527
H -3.2020058182329554 -0.019613090460446195 0.3299716043940795
H -1.5105478837269306 0.8367111164876035 -1.030056060029434
O 0.5790353476285236 -0.07066000715037117 -0.425892710612199
C 1.4226806108763077 0.2753150173821422 0.35312499309571266
H 2.3441157429968147 0.9893736499489874 -0.15912678284595114
H 1.6984169950582233 -0.22652079407700912 1.2808637697583964
H 1.6485325005640692 1.5433348083151934 0.4042577726856182
H 4.384979954652826 -2.047458797052009 -2.4676271686825366
