18
## STRUCTURE-ID: 6456748f418b2513f332bad4 ; CHARGE = -1; SPIN = 1
I -1.8481945394271055 0.8362631948892634 0.10997612738826948
C -3.0639168555635314 -0.9823587622876555 -0.07151523602679058
H -3.8130288937206545 -0.7989535619004664 -0.8322776709098931
H -3.511601154073586 -1.1723678019914514 0.8979307889196162
H -2.40031554758819 -1.7969440888359836 -0.345409802522346
O 2.103377426283449 1.4689622572983103 -0.30481722066599026
C 0.7148670621778956 -0.668042317872099 -2.4226517931766276
H 1.0802191889208657 0.3256046713047812 -2.1946849120453513
H -0.34185644280013594 -0.6512911321768438 -2.6626534280254877
H 1.295167829995748 -1.1299449431527542 -3.2107274179852867
H 2.565933768986112 2.2749663811163225 -0.6067637581946129
Rh 0.3197421421139288 0.21354825872876532 1.5302223387119347
I 0.9746311254518176 -1.860317176346517 -0.6315761372532905
I -0.9917022530113281 -1.5751022548127454 3.0633263255753884
O 2.733040727440251 0.4998218923990308 3.261570767123386
C 1.7746689730365817 0.32661061142519265 2.616698943001655
O 1.1630649735466112 2.9346569092722015 1.075960912960273
C 1.2459024682312831 1.7548878629426528 0.7273911731251617
