12
## STRUCTURE-ID: 645664a35f91c423f61dbea0 ; CHARGE = 0; SPIN = 1
O -0.9617228061046306 0.2868370014731611 0.43969971707477973
C -1.6255655858930345 0.09004685629946878 -0.7958568006947748
H -2.685963971330491 0.331080480220058 -0.702632527258209
H -1.5135180260671681 -0.935707969773618 -1.1534677315672186
H -1.169080710459751 0.766539605002721 -1.5151312281356315
H -1.3476887099284371 -0.30777517841831814 1.0995170510060424
O 1.4214168509371103 -0.10570847369335716 1.5171773600622744
C 1.195154770924971 -0.131479934051276 0.2669217610248737
H 2.95826783220849 -0.43480699028720593 -0.5334190839244555
H 1.1590261481802295 0.7519031539108822 -0.3481893502421706
H 0.905537817437206 -1.0804446858810883 -0.15386611543309772
H 1.6641363900955035 0.7695161351985651 1.8792469480875804
