13
## STRUCTURE-ID: 64568d4b06b74637124dd52d ; CHARGE = -1; SPIN = 1
I -2.2417182281230015 3.6023147263592126 2.0258301773758762
C -0.9366731813875947 -0.8532341144892567 -0.6362543273615409
H -0.6408141140992981 -1.8256713614561995 -1.0329196084092596
H -1.5208290117035168 -0.3435103771749335 -1.4069103601788675
H -1.6385540230846487 -1.0310468745714167 0.21014288746039894
O 0.3062369552855525 1.2870859080441077 -1.676040799130844
Rh 0.4251077483760806 0.10618008666514109 0.7484352708372697
I 1.8202495769666742 1.1970987863017584 2.652292632118859
I -0.8150202277623992 2.287600925152173 0.04911948955541006
O 1.4578612693531994 -0.6141134266133164 -1.752515286502713
C 0.6341468867823973 0.1420431759449944 -1.2670865690537536
O 1.858766259046815 -2.4725253026453635 1.0952806493082283
C 1.291240090349739 -1.4822221515169074 0.9906258439809491
