12
## STRUCTURE-ID: 645665b34b02437fdc4b6a6b ; CHARGE = 0; SPIN = 1
O -1.7979713464024576 -1.9156343644656033 -0.4174816293899806
C -0.24744423683364802 1.435350260821245 -0.2906694986597244
H 0.5607852766189728 2.1701929522142485 -0.37100577980159866
H -0.9501634699537457 1.574410149274354 -1.1089700246268253
H -0.7626737692365179 1.5739330169493155 0.6657908511665657
H -1.3908566809620866 -2.6919792229117334 -0.809168643674367
O 0.2563368680133796 0.12172027436457228 -0.4045965280159515
C 1.1857144177196106 -0.1958115602113599 0.6108149560969572
H 0.7082326216429085 -0.18725356773725507 1.596688096695848
H 2.0186277494382656 0.5144123167625819 0.6127820345777605
H 1.5594000353191844 -1.1936587921610655 0.39437029975475607
H -1.1399874653638375 -1.205681462899264 -0.4785541341234715
