13
## STRUCTURE-ID: 64566c7d46ece5280129341d ; CHARGE = -1; SPIN = 1
O -2.457884438034031 1.6813300726983853 -0.5798545283566098
C -1.8520359212149848 -0.5470845675280552 0.9171397476148531
H -1.3541492480285857 -1.3561396071127412 1.4395386157918977
H -2.8995481026648573 -0.7606019330658877 0.7564649219472135
H -1.7554510425052279 0.3968803653450313 1.435857729433538
H -2.6118944166948044 2.168785456466804 -1.3894861682510369
Rh 1.5971020454228004 -0.28826126932966645 -0.6772981676335624
I -0.9470374538642871 -0.3172935352158957 -0.9992457469801646
I 1.759603031012537 -0.82580887175601 -3.199140056720638
O 4.584047663859476 -0.23461530737185107 -0.4824801737871086
C 3.439722230162941 -0.22495540643148063 -0.5557660138358271
O 1.1366542277502396 0.2684818422035341 2.219594869013751
C 1.3608714247987839 0.0392827610978423 1.114674971763691
