13
## STRUCTURE-ID: 645673b175ef1109ab4b6a5a ; CHARGE = -1; SPIN = 1
I -1.6171633841987998 2.210634379245453 -0.7522658576797894
C -1.3753883685967874 -0.7738672255408747 0.9183255604219392
H -1.129003051632796 -1.0829321208457288 1.9385334275870267
H -1.517239606414938 -1.6889177018005073 0.33188130263523397
H -2.333565057202796 -0.25159786100605075 0.9546586935934855
O 1.3489796757298853 -1.4250005862373374 -3.0608130315674558
Rh 0.1667167663828805 0.3734448193964522 -0.012768111146788627
I 1.9019062896769379 -1.590437313834558 0.6399033076845114
I -0.24605135090232855 -0.6878960581026984 -2.4531296230311646
O 2.5005523919672483 1.1885065771631296 -1.835678882538361
C 1.6415227835696544 1.1126809708645038 -1.0905445045197046
O 0.3527323292884587 1.5132118436868434 2.740255626146158
C 0.3060005823333861 1.1021702770113584 1.6816420924149178
