19
## STRUCTURE-ID: 64567aaef20c8b31fc5c0b03 ; CHARGE = 0; SPIN = 1
H -4.998678758627832 -0.6438523984263882 -0.0884279766656927
I -4.767422459189792 0.8817810700518907 -0.4651040475876274
C -2.461056363954142 0.6764795225022421 0.11239642571334252
H -2.149492643876865 1.7080795904367805 0.022040454027122538
H -2.585715474538847 0.2914769771130413 1.1159056250915764
H -2.1422416725551896 0.0020488535719433345 -0.674093035921265
O 0.17100538698265522 -0.7903077718415183 -1.1117942596611683
C 3.3609854312801373 -0.863943455429517 -1.3490073629241177
H 2.328993465336059 -0.7786147341319639 -1.6807388212250725
H 3.8240844273355634 -1.7655901086637085 -1.728319525148288
H 3.933500168254308 0.01621850455166346 -1.6126343336946563
H -0.07532923989234164 -1.721141618006516 -1.0813502882578991
Rh 0.17940918741012926 0.07231032778180471 0.725413595937942
I 3.313958554892584 -1.002148380302656 0.7975275306452239
I -0.7639336307014548 -2.1304711059994434 1.8228494706425031
O 0.3800769402059545 1.190187784704347 3.4928220098779676
C 0.259943427456596 0.8049340150490559 2.417417248699021
O 1.3502935137439107 2.4698783967836735 -0.6160556433033387
C 0.8416197404385466 1.5826745302552732 -0.09884706624556254
