12
## STRUCTURE-ID: 645664bac22a8f3f2c5b5c23 ; CHARGE = 0; SPIN = 1
O -0.8995784215916063 0.18142011250370219 -0.8426659680685396
C -1.9046595707531933 -0.1917133619146011 0.11453802134745274
H -1.921569878371861 0.5828078633844833 0.8768981572389875
H -1.684578576434805 -1.156136108438237 0.5697690450466505
H -2.8687767285076378 -0.2242878971569228 -0.38933851347552856
H -0.8552699693668553 -0.4824746452668671 -1.5557168751814454
O 2.07770330023563 -0.19174885190509425 -0.5054194628380759
C 1.4015683161274421 0.3596781760511337 0.42199444757817595
H 1.4897865257834921 1.443462642342209 0.5806566764610972
H 1.203173724402382 -0.20400925011187737 1.345513230597079
H 0.23437956598119394 0.25683687836065605 -0.2967966257400126
H 3.727821712495829 -0.37383555784858935 -0.31943213296586265
