17
## STRUCTURE-ID: 64568b9dc859b005cc7ccc04 ; CHARGE = 0; SPIN = 1
C -2.6965557306579906 -0.2188401306828974 -0.6086193910771169
H -2.7512700884521393 0.6525152340069253 -1.2788061591994186
H -3.385770865132268 -0.9738390595501798 -0.987447739544936
H -3.0027790479698178 0.052412462505850806 0.40205770006139574
O -1.869084802555316 -1.949186162046793 1.3366990645864107
C 3.6573251645091744 1.4070066387538702 0.279142321810415
H 3.371101290731959 2.1145767006448084 1.0491741510406483
H 3.7270090674800715 1.8889329968568813 -0.6892787087877573
H 4.584443665475045 0.9037468478561808 0.5335422765267491
H -1.5992504967299839 -2.5724549969309973 2.0397028751517685
Rh -0.06363853061272425 0.8973673652110399 -0.7032076575541675
I 2.124059812983478 -0.1330587207088918 0.16714360383370572
I 0.43918506241171074 3.332284089838201 -0.30810316130330145
O -0.5762275246943684 -0.7485410745114276 -1.6806891336157812
C -1.2807564686928627 -0.7502659426800613 -0.6137716246792899
O 0.2121934437678498 -2.2062977766775274 0.5757180799373579
C -0.8899839518618108 -1.69635847188486 0.4867435028135086
