18
## STRUCTURE-ID: 6456712d36b47a74d32726b3 ; CHARGE = -1; SPIN = 1
I -1.9203056626932258 0.7225044788719946 0.5045902460622687
C -2.492904326128408 -1.0997647323702269 -2.459780910386215
H -3.2477916045315975 -0.4646056466545745 -2.0419530138854913
H -2.321224771292115 -2.0602686297680632 -2.0159563707698425
H -2.1023832602938755 -0.8779888308615521 -3.4334921269954535
O 1.3300284363828514 1.826845071238862 0.26969108133664976
C 0.4809637068568946 -0.6337940514167598 -1.8281937148595424
H 0.9560337850361749 -1.151432735941731 -2.653143311549159
H 0.833403782169386 0.38757387590522413 -1.724595599659217
H -0.6203840021023063 -0.6626575306834631 -1.9069409904684322
H 2.1288249014026093 2.330430819577565 0.0897120411054308
Rh 1.317135988314356 0.60054113338798 1.9092223287549546
I 3.9945681893085325 0.7161199598479394 2.0865990141064605
I 1.0343095207485888 -1.66224484809424 -0.0027346523168238998
O -0.9943626403754245 1.9251552414048994 3.0166134565022698
C -0.49131009069031856 1.230358942898321 2.196188556021778
O 0.9717513359528527 -0.8029124589795194 4.518686914913814
C 1.1436467119350104 -0.3238600583626568 3.47548705208655
