12
## STRUCTURE-ID: 6456673f40779f1391623190 ; CHARGE = 0; SPIN = 1
O -0.7451191368300625 -0.18264764656311816 -0.2727014046396014
C -0.972637900092767 0.45950635457140276 0.9754247871720024
H -1.9461411244756832 0.1536527922446786 1.3582100759799147
H -0.920773635918758 1.5454931361432478 0.8823500960616225
H -0.18601968103635338 0.09872966794115902 1.636650769287014
H -1.4172929819741944 0.12240308120364539 -0.9174505650570189
O 1.235536043587363 -1.3810228486534113 0.47146442395139376
C 0.9127105761971485 0.23941126928283407 -0.9648406532645962
H 0.4193980102471137 1.0658946134695755 -1.473233066891
H 1.2376555905940365 -0.5413059406650083 -1.625958910952129
H 1.6569854073081702 0.5634708135833919 -0.26226694641643594
H 0.7256988323939629 -2.1435852925584147 0.19235139476887458
