13
## STRUCTURE-ID: 64566c6b86a351118f64e480 ; CHARGE = -1; SPIN = 1
O -2.6633045271451965 -0.8963442960266247 -1.305102740819057
C -2.0801682896008664 0.5707345267284882 1.0484713107138215
H -2.322163866538398 -0.4773788566908572 1.161608279666498
H -2.9737945142011726 1.1302739142288654 0.8065902952360519
H -1.5707316668754656 0.9706297399138916 1.9168777415963834
H -2.6997610802074163 -0.9852932607288333 -2.2580570365000576
Rh 1.614994634227615 -0.07145381069154938 -0.018994962728050634
I -0.7729527996762141 0.7329941227207265 -0.6434304428549831
I 0.8874908105572169 -1.0940733803612785 2.253540671582512
O 4.308384286993787 -1.1869500845716487 0.6429080943949924
C 3.277778318588475 -0.766853976634629 0.3556171978091096
O 2.7171828339731747 1.2930299024475644 -2.443825567146021
C 2.2770458599044616 0.7806854596658762 -1.516202840951206
