12
## STRUCTURE-ID: 645668e36d611676273ae5eb ; CHARGE = 0; SPIN = 1
O -1.9609685610745307 -1.1007639651293477 -1.6377965473411262
C -0.21086591789278758 0.2277359212100018 1.3444365361184805
H 0.5970319640360692 0.08885705222153345 2.070867217023398
H -1.0572459023392213 -0.3995037540647733 1.6142527961738795
H -0.517308800914968 1.279464974249638 1.3480687382869028
H -1.8490982999648617 -2.0517179302708857 -1.5642368980054793
O 0.19938467043236435 -0.1738694632824177 0.054903167425076914
C 1.2972909432319109 0.5704222118718755 -0.4266556413414598
H 1.5329074831490375 0.1792371205944003 -1.4135596429061117
H 2.164759873294475 0.45511625366663455 0.2320669192244874
H 1.0466822360537738 1.6342670153514847 -0.5026803098071103
H -1.2425696880112826 -0.7092454364181339 -1.1196663348509523
