12
## STRUCTURE-ID: 6456669eb2eca123eb4efcbb ; CHARGE = 0; SPIN = 1
O -2.816978471580798 0.7728019454996067 -0.8889082903389995
C -2.409919189379162 0.1433334775685059 0.30614051094049993
H -3.232120761545002 -0.5003885302303109 0.6136569111587449
H -2.2151960964134063 0.87292154855473 1.0978603767338182
H -1.5160525451449298 -0.4689623109549081 0.15183503113570646
H -2.113930851077249 1.3624723518061468 -1.186181280351155
O 3.4576143700581623 -0.2276878659776561 0.014885189172333434
C 2.047139623980869 -0.22172878676656813 -0.0029189943386046273
H 1.7408927670369723 0.8143262795987111 0.13042517692097894
H 1.6328625773771395 -0.822741836381093 0.8125269815899425
H 1.658444900359374 -0.5893451773395181 -0.9577743894597903
H 3.7672436763280337 -1.1350010953776528 -0.09154722316347333
