12
## STRUCTURE-ID: 6456690812d62b7709351d76 ; CHARGE = 0; SPIN = 1
O -0.7873784532918519 -0.520858874386456 -1.2942996153288469
C -1.1646431166667146 0.01960361689788491 0.7054728128171845
H -1.8592721739681444 -0.7843949074589989 0.5314469612047129
H -1.4881815821448565 0.9833419166439716 0.350789370322285
H -0.8637645344325888 0.05181099967294738 1.7513444343715876
H -1.3318400302275275 0.12271952539952692 -1.7483033371369283
O 1.4270708842590534 0.4920391549257871 -1.0129470149586937
C 1.4484824731232258 0.00656286130123293 0.25955877121743903
H 1.8675045263643193 -1.00344550467562 0.34682066174872783
H 0.3043907785210531 -0.12568143505495752 0.5313633755563739
H 1.9117432265771543 0.7058301379718984 0.9573813405769956
H 0.5358880018869087 0.05247250876254808 -1.3786277603906243
