12
## STRUCTURE-ID: 64568835bccd851a741aaa04 ; CHARGE = -1; SPIN = 1
Rh -0.676753582239751 0.42111747777529746 0.2557879948771686
I -0.7979005883444235 2.686522370346986 -1.0408969230894103
I -1.5381716130050764 1.4613008568058186 2.5825107750171665
O -1.018614421427206 -2.2290215458746827 1.5610524229477345
C -0.8238700687240647 -1.2047764443502027 1.0864686310813525
O -1.9003891794638434 -0.7298458471521446 -1.8704456242582943
C -0.8065140737618054 -0.5025633623477714 -1.4593453725481822
I 0.8463013931752615 -1.3051767095100952 -2.7084200882351253
C 1.4085714265129452 0.34041673935563443 0.3778996480835944
H 1.7989896886452803 -0.6726185841145115 0.48573866782713876
H 1.6826140626967592 0.9400824592056722 1.2541248283489719
H 1.8257369559359398 0.7945625898600226 -0.5244749600521283
