18
## STRUCTURE-ID: 64568aca5ef6042c25112990 ; CHARGE = -1; SPIN = 1
I -1.9927761419204864 0.34294740892297976 -0.6354917662255612
C -2.78142753566468 -0.9873998614358309 0.8457071821337573
H -2.6214978725543245 -2.000328989378564 0.4954023716842469
H -3.8337680437421846 -0.7676016926816245 0.9658119051935132
H -2.227652336669957 -0.8121098329577341 1.760588796771239
O 2.164844829109408 -0.7015995572531131 2.1617253540130172
C 0.9467961114185506 2.662381213877984 -2.5844802981583173
H 1.3823264985445576 1.9819741922377194 -3.307829753375116
H 1.252970299046958 3.6860308811384073 -2.756771782285927
H -0.1335783967427322 2.557596322152931 -2.5597705532018464
H 2.284052836256812 -0.3408987215920425 3.063084936088862
Rh 0.7899217106122989 -0.42105362960572895 -0.26298558989458354
I 1.4901181499019198 -1.2788164591489453 -2.729726679046187
I 1.6840247455689417 2.0694480320236384 -0.6205484540423215
O -0.0018911987103813546 -0.31501650723141367 2.577538723184575
C 0.865162387993509 -0.6715024399388501 1.7795975975006841
O 0.21676769443588229 -3.0284702236834704 1.14110607952554
C 0.5156062631159275 -1.9755801354463265 0.6670419301344058
