12
## STRUCTURE-ID: 64566b80035cf1389d3dae5b ; CHARGE = 0; SPIN = 1
O -0.37070332042339144 -0.09850699743331214 -0.13651048704592741
C -0.9419444172195712 0.6416048952290879 0.9203594908169324
H -1.7708397082261278 1.2603329345234138 0.560456634294315
H -0.19551919990573344 1.288298762276477 1.3953836752180329
H -1.3142418669224123 -0.08189140202120787 1.6419483177048382
H 0.5482995489310213 -1.7846933187012073 0.16839002098114444
O 1.1349735950790523 -2.5349126714596015 0.3429357389107894
C 0.1336405861325407 0.717362016907737 -1.1718556314575728
H 0.5146597926305565 0.047150752452709985 -1.9390930028636362
H 0.9428657757146962 1.3595528152977374 -0.8059797118711065
H -0.657026802903762 1.3466844761864307 -1.5940120568770315
H 1.9758360171131313 -2.16098226325826 0.617977012189227
