12
## STRUCTURE-ID: 64566806edca5c7bf60b3f6b ; CHARGE = 0; SPIN = 1
O -2.2676606306809304 -0.19010299964269406 0.7276137080720725
C -1.1607593920833177 0.7484189062000363 0.12295550440248044
H -1.0776033479063638 1.5418214892654944 0.8941164780318221
H -1.6575131011551723 1.242927839511371 -0.7425058315999568
H -2.268145359639419 -0.9713574323644136 0.14399858766370421
H -3.161056161458094 0.20855733136949517 0.7589415771124185
O 2.6474329277776953 -0.3900815107489845 0.5036850501018004
C 1.8550461866404973 -0.374252880018934 -0.6730630010635029
H 1.714893379942447 -1.3916052036058637 -1.0550332668707385
H 2.405935602642751 0.20496898484026002 -1.4125464195998663
H 0.8723513307433135 0.0926723768931276 -0.490275731626369
H 2.097078565176593 -0.7219669016988935 1.2221133453761306
