18
## STRUCTURE-ID: 64567129899fb41ab06cd4b3 ; CHARGE = -1; SPIN = 1
I -3.5284129431868743 1.5740501778659926 -1.180030150719472
C -1.3319123613618442 0.049325569928325104 -0.9580679982207658
H -1.5134991297261204 -0.2181099879587205 -1.9854053767464466
H -1.9085160646651402 -0.45621354677045006 -0.2004211286748269
H -0.8400108316704163 0.9839627326815491 -0.7493964342427528
O 1.6461737673618488 1.3480218079931605 -0.48061676568644407
C -0.3262927189931648 1.0380188717800451 2.3914923588970685
H -1.3973049485123294 1.107775027515419 2.2373169638308545
H 0.21029464825502803 1.6383461738049618 1.665667390988517
H -0.055149561738863824 1.3008169436350343 3.4069356273627074
H 2.434293296462524 1.9245170005732304 -0.4265349090889051
Rh 0.572108076750714 -1.2686538331584476 -0.6149583490724032
I 1.2117687648057514 -1.2448102353952009 -3.191132997671
I 0.2572129109112309 -1.0350709566225689 2.0737505202383946
O 3.092294415023484 -0.3442377714308217 -0.1994450188318864
C 1.9652613253288196 0.05273237173486605 -0.4213114917310349
O -0.8118128577849612 -3.1486247522789177 -0.7934760827594084
C 0.3235042127403162 -3.301845593897444 -0.5743661578721875
