13
## STRUCTURE-ID: 64568cfb968fc61d4a3d7d7d ; CHARGE = -1; SPIN = 1
I -2.4329927258456396 -1.0947494646622271 0.9705748702900543
C -0.45197878483721976 1.8984850197503438 0.5057735281630811
H 0.2948755391735921 2.687471911814542 0.3987512912093487
H -1.4561076836761466 2.3119530062258113 0.39349139456013615
H -0.3600183596193003 1.4609178323233734 1.5167537832422011
O 0.5684251130433952 -2.4846160000790265 0.45257059295926805
H 1.521356977278594 -2.642413068513289 0.41912864887115353
Rh 0.1427367671883321 -0.6132124191156808 0.511500213331926
I 2.6404246676066796 0.06753736208036498 1.0450643623007876
O -0.43014744486168455 -1.9942903508380585 -2.1536426034806393
C 0.5014348288372759 -1.5312151894840063 -1.6760195950709191
O -0.30262698765983714 1.036367954542321 -1.7831525549562488
C -0.235381906628043 0.8977634059555414 -0.6007939314201596
