18
## STRUCTURE-ID: 64568b8c94dc107b332c50bd ; CHARGE = -1; SPIN = 1
I -1.5758760723365752 2.6059251306742204 2.053261721935836
C -1.5825230190329163 -0.9883774106169317 1.1029299465977234
H -2.1666372824619384 -0.33404795584964014 0.44735132754426127
H -1.954364429767048 -0.8615071190197825 2.119915530182626
H -1.7483698738035338 -2.0123647498072015 0.7701061808761523
O 0.3762037279913278 -1.4064355447200643 -1.0665436077621813
C 0.5572161032467398 1.1127638720975026 -3.116009290923674
H 0.5600700058905907 0.029734690450558165 -3.0488425205081833
H 1.5677080153702605 1.5058359147572868 -3.1252559664444695
H -0.019721390432143146 1.462142316024288 -3.9627021666011295
H 1.1784047575546623 -1.9285415241496404 -1.156662544900697
Rh 0.3617164557938003 -0.10890004205673545 0.5800994848529861
I -0.40226010860453293 1.8020167334582138 -1.310868892198037
I 2.9546503274170237 0.4775209807766209 0.15662840680640513
O 0.9441866019685757 1.2818889492685297 3.0821808398699915
C 0.32005394081137695 1.1201188594667015 2.101473036405721
O 0.348881671978779 -2.295036324248223 2.585781632192887
C 0.2806605684155402 -1.4627367765057069 1.7871568820737824
