12
## STRUCTURE-ID: 645668636dce7d426a333bf1 ; CHARGE = 0; SPIN = 1
O -1.3508830673918122 0.36231624605507595 -1.0662915000723785
C -1.0400843271693354 0.8571184834605352 0.20518595812294158
H -1.8088965161731307 0.6547171475162646 0.9672787400431915
H -2.5313679265150513 -3.546575833766023 0.8713151045789101
H -0.9145447606733133 1.9575379449477708 0.19850170773099435
H 0.34949186830632617 -0.7795647709028322 -0.9084019893287847
O 0.8305497114637579 -0.5609898259203588 -0.06207882652376361
C 0.2175368635667352 0.25947681262809874 0.6432146843416972
H 0.6744769165061825 0.5490776466807789 1.5892840516240605
H 4.10614201366335 0.22655703893130558 -0.7627768845151108
H 3.7631540877012593 -0.38588340823271533 -0.4286456413907302
H -2.2955748632849726 0.40621251860209684 -1.2465854046110223
