16
## STRUCTURE-ID: 64568d6f4365af599b351d7b ; CHARGE = -1; SPIN = 1
H -1.1363481581005326 -0.26330367057856086 0.9241152637398704
I -0.8230016843414735 0.8059159083680729 -0.2260297977831976
O 0.8556742101174749 -1.5325025196792326 1.2049036670773154
C -2.937280330983648 0.22774010349875318 -0.806507180201476
H -3.5724711659770083 0.3990026447493 0.05323603711691718
H -2.900367832615984 -0.8159783664790627 -1.0917184844038699
H -3.236577901365257 0.8514436149335494 -1.638357520419217
H 1.1149202884290734 -2.4273494994755795 1.496129628627203
O 2.3636689649213354 1.2297662607245974 -1.4601317247658516
Rh 1.650498176845425 1.1155166173744502 0.6019207921503678
I 0.7924996571581241 1.7621500629114835 2.9644898982067067
I 2.018385831684094 3.1212967253159696 -1.1565659646401338
O 0.9623007572626495 -1.298060977208301 -1.7333214604375444
C -0.15625794861636713 -1.3189073430127751 -1.4819988042340788
O 3.0692432011547672 -1.1472957123298848 1.2706626750430114
C 1.9351139344266541 -0.7094338491134436 1.079172974924971
