19
## STRUCTURE-ID: 64567a3b3874ca31256cd4b9 ; CHARGE = 0; SPIN = 1
H -3.5744003909132878 -0.4725608701566909 1.5441146985159573
I -4.039449751039665 -0.9414033485257818 0.11072551493201642
C -1.2555161058389577 -1.1315674053474818 -0.634249468240699
H -1.2751872328027898 -0.04697092753203137 -0.4875244680908543
H -1.2275421042604229 -1.7757496655274494 0.23075807180122498
H -1.6090255019365378 -1.5275171655986413 -1.5721722482944231
O 3.4158969277903255 -1.9700926846607756 0.6656269418967308
C 1.347281145165098 -1.0558710330833598 -0.8987251962049873
H 0.19731210731420845 -1.2236382788523748 -0.9070263816521742
H 1.8451689718023896 -2.014502009196121 -0.9723351096020585
H 1.5969191034543548 -0.36947377223982103 -1.6996800580189015
H 3.752096611931564 -2.329292909884936 1.483545220845574
Rh 0.09246812582170484 1.7846205619513817 0.6986929291422402
I -1.153891785072378 1.0072612046792868 2.8227744771940038
I 1.7942881620473352 -0.22361930239694502 0.9973772244840026
O 1.7807088249547207 2.610470975355339 -1.6273882735140859
C 1.0987717428043127 2.27708699172399 -0.7665875963193388
O -1.7318929521539377 4.159856719385137 0.47037264353912284
C -1.05400589906804 3.242962919907282 0.5417010775866616
