33
## STRUCTURE-ID: 6456be0868278f75916cdb4b ; CHARGE = -3; SPIN = 1
Rh -2.4412092658955853 0.6620150711040526 -0.5640144463271849
I -3.939382443005461 2.2852133964502905 -1.9947922716614463
I -1.1747851501155702 2.597563189418339 0.813468693712607
O -1.4935746222805317 -1.330369448231198 1.2447299021003664
C -1.2701934429835164 -0.6649381141385222 0.27824639731038364
O -3.3381787120588458 -1.9387024619183544 -1.682141917182818
C -3.0160544011911576 -0.8688996516989711 -1.3412671431375633
I -4.66609585106304 0.6788365775671181 1.6108891485984425
C -5.352241026240943 2.7632110170279556 1.5304020142539552
H -5.943128193739733 2.9385379459724468 2.4201011517836193
H -5.928351758682319 2.875708144235709 0.6190056035458653
H -4.464274614268115 3.3864439509365467 1.499723131678684
O 1.8029434865387737 -3.2782208243769206 0.5819293893398042
C 4.579046300192968 -0.2855074724535655 -2.1008884495067757
H 5.587858143733498 -0.5749080170625903 -2.3636673884691644
H 4.515104133232508 0.00983410935241069 -1.0597614239521884
H 4.204430964499096 0.5038151234140235 -2.743221084079779
H 2.4599700345126467 -2.547864044576185 0.6031077941363875
Rh 1.4618797234189607 1.7900754903544582 0.5092946894590731
I 3.8159574425802556 2.959976736910436 0.12746282636602074
I 3.3000934766879637 -2.0226059750805137 -2.356280323942301
O 2.7821760497604626 -0.7782520825377298 0.8011439880187867
C 1.5408615926049851 -0.5329074386148172 0.8059546268516511
O 1.9859650657615189 2.0339238345980624 3.409182596058167
C 1.7769138235685187 1.979752024202256 2.268440725326695
O 0.9721907908733585 -0.6464235643903474 2.09445589967217
H 1.672576832238924 -0.8862513814085541 2.728875676686273
Rh 0.5191817639608362 -1.071710362345485 -0.860747465526513
I 0.9822969715475187 1.305532286010108 -2.090747004626261
O -0.3301053590993689 -3.6211694276317257 0.16425400207224972
C 0.6035706419025996 -2.8313860598822553 0.06350346229517201
O -0.8650633849089292 -2.855287659704081 -2.8212380037064504
C -0.3403790120822712 -2.035034911502429 -2.1954047971478974
