13
## STRUCTURE-ID: 64566de5668e585b363eaddb ; CHARGE = 0; SPIN = 1
Rh -2.2014635082780885 0.7556275342201736 -0.43069816412240747
I -0.5848240554998767 -0.1440574654679904 -2.2384753620813833
I -0.41700555022022634 0.5843789502114409 1.4195287461802215
O -4.0970886484985805 1.7871402029658021 1.6310789226687725
C -3.363564207640759 1.38939647777892 0.8370000387287604
O -4.338114423148603 1.0014044391273558 -2.5023480166975753
C -3.5065698303711055 0.902628710421583 -1.7104443504425915
H 1.9836086350836155 -0.4268227236394542 -1.3210269303551958
I 3.514688829338294 -0.3511732757152001 -0.8577706070379102
C 3.2754894975303963 -1.2775155474136979 1.0850103687221049
H 4.2497253660285725 -1.2279219067997642 1.564889488997804
H 2.526985289895878 -0.692128119281889 1.6165983278527412
H 2.9581326057804525 -2.3009572764072965 0.9066575375866838
