19
## STRUCTURE-ID: 64567a91c821f46017662c66 ; CHARGE = 0; SPIN = 1
H -1.1558067892127304 -1.4189508382355227 0.003241550822104617
I -3.559531074528162 -1.1626082244223517 0.45567344584725483
C -0.8491343776785758 0.276830920174055 2.408374590916375
H -1.5294998517015408 0.5919682195473706 1.62808035063746
H -1.0042275642065617 0.7986303963210863 3.343938092037561
H -0.781527067769316 -0.7960899572533046 2.5271742290664427
O -0.18739232737126563 -1.3516806348694066 -0.16537999125056876
C 1.34015483066884 1.0716551926901219 1.546671158249905
H 1.932101673422921 0.18825650516626538 1.3092585294996784
H 0.2470182593592427 0.623171725470398 2.0004293588017807
H 1.728064132416094 1.7041452029652426 2.340342806535489
H 0.2003912354336535 -2.2177259327157244 0.0362184399312969
Rh 0.50894219581599 -0.39527131194904785 -2.009236382899276
I 2.897035615282409 -1.1842606812328873 -1.360974645630232
I 0.882775404190067 2.189540113694081 -0.18430328506958593
O -2.21197002713045 0.17195573172333709 -3.1248801260694736
C -1.2122637722494236 -0.055946607896120826 -2.617879824970203
O 1.5943615141260676 0.6847226023038938 -4.558768717059595
C 1.1605079911326914 0.28165757851852 -3.5779795793964175
