12
## STRUCTURE-ID: 64566ad72c22981cc628a81b ; CHARGE = 0; SPIN = 1
O -2.0110894469765754 0.3069503995170092 0.01888023387885433
C -2.5256827061534914 0.5996357099645826 1.2996917625934652
H -3.59122159248355 0.8440069454215633 1.2584851815708498
H -1.9792299852972866 1.4673345611310802 1.6652522036718078
H -2.3729537121773516 -0.2342266497672464 1.9918319969462808
H -2.491255108851363 -0.44669850703217295 -0.34478191519516665
O 2.5800582627438375 -1.4417362293584721 -0.6209564076070971
C 2.60101260863622 -0.1611494598167868 -1.213480742515425
H 1.6208353662115058 0.11104760963130603 -1.615968947635565
H 3.3208597450416035 -0.20682276440247813 -2.0289240867610263
H 2.9215796866883217 0.6035338710814031 -0.49915855898888806
H 1.9270868826181773 -1.4418754863697767 0.08912928004188536
