12
## STRUCTURE-ID: 64566a5d6a0612289373b9eb ; CHARGE = 0; SPIN = 1
O -1.9774224004277234 -0.03057823262843474 -1.2969194540441193
C -0.4256925755001628 -0.04056845003272905 1.0331457412198717
H -0.8006884469148827 0.591537060148362 1.830469135554879
H -0.2689545348270046 -1.060148296273754 1.3749650588816598
H -1.1571524589147395 -0.0430267116229748 0.15489685835320055
H -2.899152173421602 0.17662975429434868 -1.1137363441437182
O 0.8007935546279884 0.5507673328586501 0.5381633553844817
C 1.2374247213482275 -0.04949048371760358 -0.7001805769877442
H 1.5600964267290083 -1.0795257411167125 -0.5552974505059021
H 2.0391823802458693 0.5635564698293158 -1.1045384492915735
H 0.3787056570541547 -0.03691115843728074 -1.3729198659148654
H 1.5128598500012205 0.45775845669879656 1.211951991493674
