19
## STRUCTURE-ID: 64568ef5eeef492ac00b5350 ; CHARGE = 0; SPIN = 1
H -2.5706400802483746 -1.7218414712692802 2.424730958973697
I -1.662063445005516 -1.5572203158998583 1.0595178638761336
C -2.6757587465753416 0.26119485335509135 0.632438388850105
H -2.1001536954407687 0.7757525164193418 -0.13028000586253316
H -3.6638288142124535 0.01759914773880715 0.2620669241731627
H -2.7120979135807293 0.8373459663042215 1.5481788986125078
O -0.4678087832455403 -1.1445248544002298 -0.8956716662416201
C 2.293776768170717 -1.4091703941892348 1.2532768378966825
H 3.162719040891201 -1.8478218232448738 1.729134739451546
H 1.482684741911604 -2.123978461236209 1.1613578459424605
H 1.9720994805493295 -0.5078726253564196 1.7648197278316449
H -0.7618912332757203 -1.758952397317703 -1.5756027582238765
Rh 0.6659359600230967 0.5512575700665168 -1.5675352057419356
I -1.2706359098290396 1.2056471244578417 -3.2596951791957323
I 2.886700351544169 -0.8274752805834296 -0.7562506511949841
O 1.104231987982041 1.8179653394836077 0.7944782711413068
C 0.7332166418120704 2.1577500014537163 -0.2690396014200923
O 2.0736861499350767 3.1168498873357238 -2.2622770528341327
C 1.509827498594175 2.157495216882372 -1.9136483360343362
