17
## STRUCTURE-ID: 64568aded3bb687c891d80b0 ; CHARGE = 0; SPIN = 1
C -2.44724677571823 0.11147711637602241 -0.8990386129688703
H -2.9562878193320232 0.9111092267950662 -0.3596805080224134
H -2.5739373750474615 0.2775426459961583 -1.9678231543441822
H -2.9091179335405095 -0.848114275527877 -0.6345359139488296
O -0.14965788225923665 0.8130801184366516 2.3935386536238688
C 3.261681315133496 -1.667395132596205 -0.6816200582119284
H 3.2643972071811076 -1.0446284206851195 -1.5689312331420326
H 2.818344882074436 -2.634670005996783 -0.8899730129591665
H 4.254808239947537 -1.7643724511006549 -0.25873338292444475
H -0.47802089878425486 0.8243586278389631 3.319439750964009
Rh -0.4650050657890885 -0.0558158183748899 -0.28607131654479445
I -0.1091548979640878 -1.6130776246708158 -2.275196411482765
I 2.0265364822863003 -0.678093580428703 0.8005776702208178
O -2.156096420331577 1.5630523055408228 1.7601795675782563
C -1.0362694662076388 1.2048151209534128 1.5000445715470194
O -0.031160772257526368 2.8655404899231507 -0.04817945622145665
C -0.31381281939121924 1.7351916575207824 0.09600284683693286
