18
## STRUCTURE-ID: 64568b02c466761d6e4dd524 ; CHARGE = -1; SPIN = 1
I -0.6246904567567106 -2.969260781646991 -0.4236274778240494
C -2.9065676745963263 -0.24647967232886436 1.238541979829126
H -3.3880878241531316 -1.1314048560697547 0.8201346245982223
H -2.912003986315869 0.536698520346766 0.4831695748694692
H -3.445764360464022 0.06917694603578839 2.130741026513081
O -1.467888436597758 0.4649354393754899 -1.6024042747292828
C 3.668632253973437 0.7012067349406335 -0.6687818096736313
H 3.6123913958840728 1.5080439477934962 0.0531635475914791
H 2.983369853320559 0.8703932886290107 -1.492018892012
H 4.680821846751551 0.5424639192277141 -1.0170081274396556
H -1.5624115325029335 0.7912820034534599 -2.5201802087743763
Rh 0.04752428602995964 -0.5744223943919292 0.4761313830961601
I 0.44975782008541565 1.9079511407488612 1.2884928594418978
I 3.0273470556574926 -1.109773805159291 0.3150266132252185
O 0.7145948041198631 0.2194160754933873 -2.0722145531699767
C -0.22138949816062561 0.11872743857465122 -1.3029927263317338
O -1.1410560709686777 -1.0678016203629954 2.6802197170033795
C -1.514579475306364 -0.6311523246594701 1.613606743786362
