12
## STRUCTURE-ID: 645669ef8eef621c8a2726b0 ; CHARGE = 0; SPIN = 1
O -0.906412379989094 -0.4142496897118368 -1.5615771944881447
C -1.2957931358925192 0.2003545573307487 0.29362273216863094
H -1.291546357147525 1.2731059671866272 0.3674565970136161
H -0.8516651747088168 -0.31779002802482054 1.1262815356857692
H -2.2470480607347096 -0.22967474376739747 0.010058256583525967
H -1.2733255078406496 0.2847958011041603 -2.1149023888850413
O 0.7316062053074812 0.5422556705291608 -0.16523112595587028
C 1.5831859405179194 -0.16416376456510665 0.6431914808988153
H 1.4754848564070957 -1.255089881909022 0.5227389298631536
H 1.4287562773745797 0.08312031358632849 1.706713548534527
H 2.623410207641169 0.09628697882730962 0.3969089665870895
H 0.023347129065079672 -0.09895118058616303 -1.225261338006078
