20
## STRUCTURE-ID: 645679c58af6a35f1d304573 ; CHARGE = 0; SPIN = 1
H -4.33493936961434 0.6177596230450964 0.0044516446900766
I -1.4315442217339998 0.027663180462982453 -0.6776234757645895
O -4.0423400817768576 1.555587254553302 -0.0844275820896859
C -2.99877053989069 1.6403578938163532 -1.0895706269098526
H -3.3882863722281575 1.4791080866183939 -2.093566619873574
H -2.520489714256704 2.612541735428754 -0.9947027408546285
H -4.798165361653183 2.1544717718576054 -0.30623276582325987
O 0.16032862618601262 -1.6878713489321626 -0.12909015287650902
C 0.43946438085440265 1.0504355807215444 0.6817815791879693
H 0.43631499433773996 0.06807052421610266 1.097451207629021
H 0.9161442143567753 1.2785044912038368 -0.24686201409559674
H -0.04726427704047477 1.841695064378264 1.220233001480687
H -0.18317707776736356 -2.5176177772696837 -0.4747171697027365
Rh 2.3296045420091893 -1.5635491404317958 -0.03286797434382381
I 2.8312974134974858 1.1338867547393674 1.762312462111893
I 2.3185236478873135 -0.3636547898603519 -2.3474293232246426
O 5.3063506429194796 -1.6928646577247457 -0.04379469754617067
C 4.1547918221971845 -1.6232172717148696 -0.04234748296519489
O 2.490241561855364 -3.3535277999758484 2.3548240987809943
C 2.3619151698608425 -2.657779175132192 1.4421786321896108
