12
## STRUCTURE-ID: 64566884d5e5d35d7b408611 ; CHARGE = 0; SPIN = 1
O -1.0891150009579948 0.25328563126027437 0.5288393468819614
C -1.4363602621716498 0.26403449277592717 -0.869384676413607
H -2.213379700584883 1.024347034175901 -0.9648551986930477
H -1.7829050169544163 -0.7083808128209245 -1.2170939066825293
H -0.5583574738273134 0.5587471315049747 -1.4451422031342047
H -1.8306132356312579 -0.1500787611052133 1.0640372245342475
O 0.04322972062796178 -0.6609997754071321 0.8048395031217969
C 1.1820444663000804 0.048314065102142076 1.1915949595934752
H 1.0573412896939394 0.5123271018623505 2.1721198620944477
H 1.4951159067852866 0.7775778277373263 0.44182385678438363
H 1.9383266821185676 -0.7369642052232278 1.237171678399718
H 3.194672624601607 -1.1822097298624221 -2.943950446486672
