18
## STRUCTURE-ID: 645671da3222f278850b3f71 ; CHARGE = -1; SPIN = 1
I -1.6549108652495976 -2.2533350284854503 0.06294089075732921
C -2.33614575663455 2.7542327875924313 0.5798289396910005
H -2.9710805533116003 2.0679097302617215 0.03433290337879718
H -2.789720414889607 3.735497374417689 0.5929091074842308
H -2.208831994801481 2.4046038112175387 1.5970917233365538
O 0.8061722772236305 -1.9021430855114907 -2.1548473370421464
C -0.4949531037412334 -0.45137045807214626 0.053340592429923846
H -1.3678012165051279 2.8166271267178837 0.09750774139571373
H -0.8674341855499297 0.14884137516036816 0.8926524232229752
H -0.7463910163598511 0.031396554843050706 -0.8923158099974288
H 1.080437382483674 -2.432816742241965 -2.932493855598151
Rh 1.5585491366673463 -0.5321642452290208 0.28965621641830536
I 2.300257389696722 0.6606674248238127 2.6153634349227994
I 1.9383468889235727 1.5953322082746044 -1.1913808894059459
O 2.9502656972722465 -1.952663380472654 -1.5087091863887054
C 1.7944070965084606 -1.6007640553341038 -1.341050827325361
O 1.5202483139489908 -3.0237842416896035 1.9166556693994945
C 1.4885849243183078 -2.066067156272643 1.2885182633206056
