21
## STRUCTURE-ID: 645674d2940da50788399e5a ; CHARGE = -1; SPIN = 1
H -2.6347873812376275 -0.154878554507691 1.885329812599619
I -3.1642060656423743 1.4673370665238374 -2.925628137905081
O -1.938480904104097 0.34386631544990287 1.4430651633257057
C -1.5395574204628717 0.33221737184301114 -2.1507761157476963
H -0.6126220593089969 0.8319450158928535 -2.411765462794904
H -1.5800787717055635 -0.6526851812877043 -2.598653221237098
H -1.6545392613810932 0.27575573001814 -1.0749156601248009
H -2.0952822978305896 1.2724361015661925 1.6618911497243944
O 1.5971878727360609 1.5267960116885584 -2.50550734289007
C 1.6564388531648413 -0.9447224253457531 -1.2511151171416308
H 1.888849695922449 -0.6471339121261168 -2.262251205319937
H 0.7506943569595413 -1.539692480525158 -1.2227172408278704
H 2.4840016181587905 -1.487544850056671 -0.8076150708876325
H 1.659924363477237 2.4806628911783712 -2.5586847452873975
Rh 0.650696611958096 -0.0825750751128168 2.21056750795031
I 0.7132447039791061 2.451762773366494 2.7772351248252587
I 1.3440113675081098 0.8271986202289728 -0.13542653595697876
O 1.018900170322616 -2.8959421055256143 1.2778245428544475
C 0.8627852187886087 -1.8106803690311335 1.6402044176548243
O 0.2574304943814505 -0.9876133225103616 5.043942429653806
C 0.33538883431632205 -0.6065096217273255 3.9649957075327142
