12
## STRUCTURE-ID: 645668568cb70c7a955b5c2e ; CHARGE = 0; SPIN = 1
O -2.036578513480624 0.08022365232922989 0.9402744345659643
C -1.5313464352184736 0.4761409714725943 2.1969362759258115
H -1.263882603303201 -0.4358577128780495 2.728059933911036
H -2.2824561119048106 1.0185654666159933 2.7784451835436395
H -0.6377155537355111 1.0991345151427558 2.0896130818983094
H -2.338977908381569 0.8644191494586642 0.46655817634987384
O 2.0715534683591095 0.4934738460500135 -1.8115269722225606
C 1.7400409766574991 -0.8774079338498477 -1.8619218918142189
H 1.068578735561867 -1.1576302458705507 -1.0447248864375416
H 2.6732981378225102 -1.4283043997238039 -1.7588467561490744
H 1.2756816414410983 -1.1417344154254738 -2.8168382920073958
H 1.2618041661821073 1.0089771066784603 -1.9060282875638273
