19
## STRUCTURE-ID: 64567b19a582fd4b4a5a8531 ; CHARGE = 0; SPIN = 1
H -3.512729881385004 1.0246657630285134 3.4251830854513186
I -3.8486349658877015 0.3209217896322963 2.0623859526588615
C -1.5199024175436162 0.658502765235429 -1.4656103349331697
H -1.6371335656769959 1.7421765697565068 -1.5957513290517185
H -2.1217555956818464 0.3491127676524223 -0.6116339334439869
H -1.9222153155103643 0.15952205227193156 -2.3480700249162334
O 0.23449328092083363 -1.9368213874434166 0.2459913345420924
C 2.0062724573113697 0.6715463436775795 2.5251410421862897
H 2.7944767436723645 1.2979674764698086 2.121835822452412
H 2.2377531784560767 -0.37865089494534354 2.385815500525898
H 1.8003157187946088 0.9039815282738326 3.563898437036327
H 0.10191457332560906 -2.8925096895097377 0.425246392584243
Rh 0.5172619876891658 0.3328341168504164 -1.1481024910557964
I 3.186854822342582 0.2373085798813979 -0.9625313615981743
I 0.192888142357007 1.0735892603027883 1.4053997519139425
O -0.09594655914628025 -2.3255442695711475 -1.9424208035264994
C 0.13042986747731872 -1.5960415487286388 -1.0174680429823535
O 0.7844495720948034 0.1539475572122993 -4.10102437955571
C 0.6712079563900689 0.20349121995304556 -2.968284618287718
