13
## STRUCTURE-ID: 645688a218eb9f7c9f5a8514 ; CHARGE = 0; SPIN = 1
I -1.2840300146406687 1.6856006787259756 -1.9203765395737613
C -1.3064953136322688 -0.6878462740642337 0.6640726612237462
H -1.0233877056028489 -0.9481056053702812 1.6833891633926577
H -1.598553488275144 -1.5880199854023302 0.11919026121070135
H -2.142298504191905 0.01016699233474638 0.6807786900620092
H -0.8936758934641266 3.1045257179554624 1.0177931662845479
Rh 0.3484141011729536 0.17821415876792937 -0.3903293423754102
I 0.3730419235295295 2.1971343773324725 1.3674860459035287
I 2.747466486298148 0.998140051708902 -1.699304111653663
O -0.07365248012845838 -1.2678161299578117 -1.9973576521162955
C 0.8589264387852199 -1.634095006796587 -1.4410691951327628
O 2.3979387317471077 -1.2918247234175337 1.2535387451163444
C 1.59630571840246 -0.7560742518167067 0.6621881076583637
