18
## STRUCTURE-ID: 64566e230ccd875f5b610aa4 ; CHARGE = -1; SPIN = 1
I -2.337308311770093 1.0912463138270363 0.1001616206841419
C -3.330344557275111 0.9075616877874726 -1.8278434171164324
H -2.792104811951223 1.5344263316143971 -2.527776128457507
H -4.3538286462727385 1.2334422484249352 -1.6931603610801909
H -3.266352904210962 -0.13249003264832157 -2.126086658541448
O 1.3963516035710117 -3.5224705620807097 2.0224630994508286
C 1.683866338552533 -0.8250698641887442 2.4237093605986537
H 1.697854963469357 -1.6424546416067798 3.1273399828799873
H 1.0255339799156447 -0.030499082927553184 2.7601564793418882
H 2.6883706460514656 -0.44678661513208195 2.2655571725678216
H 1.1664067125355837 -4.334218316357854 1.5707455144704234
Rh 0.6018329260382375 0.58402627558719 -0.8451032053382431
I -0.25399367094039266 -1.2609672355311576 -2.4922222675122607
I 0.9525152935873262 -1.5993811712014239 0.6023452327301964
O 2.2397090654956076 2.0900229917912623 1.1578265892905806
C 1.5849247743882153 1.5303873926896743 0.3864426869708633
O 0.7028642274876791 2.8509315516951883 -2.817260052531577
C 0.5937023713278566 1.9722927282576357 -2.087295648407557
