13
## STRUCTURE-ID: 64568c976510df6a80530d5a ; CHARGE = -1; SPIN = 1
I -1.326369410375643 1.817869010072818 -1.4446144187965164
C -1.7231835775259212 -2.0103482715413423 -0.1134771469109977
H -2.001071285088239 -1.6727750207063354 0.8848518380015086
H -1.4286250966301623 -3.0624408183636853 -0.09242518039837318
H -2.5766225343555256 -1.9024837689476621 -0.7885879701942842
O 0.7495897916031822 1.7568338940988386 1.1443557039600467
Rh 0.46784801652856245 0.2807748894344728 -0.27808704719455873
I 2.1076983254109085 -1.2791934721917797 1.0724670111174182
I 2.3441487524927895 4.064535405612718 1.7383878794357737
O 2.254168244077487 2.1342026839198 -0.44229042661159595
C 1.6791717649772977 2.358934381238374 0.6040796975169089
O 0.07405018198079732 -1.2567561690149849 -1.6340831970901375
C -0.6208031730955461 -1.2291527436112368 -0.6505767428351943
