21
## STRUCTURE-ID: 64568e6b55a81618c509291d ; CHARGE = -1; SPIN = 1
H -4.507111732684688 0.6038206476203895 0.7583588377961232
I -2.832753727487869 0.8383787829967293 0.8986333841065384
O -0.9538209961911265 -1.6350480538481371 1.0184558198369988
C -2.968977836226831 -0.07231770521625645 -1.0442304529824422
H -1.9508036213789262 -0.27700008460350056 -1.3837881266199414
H -3.459640750915372 0.6427876757105959 -1.694731848668116
H -3.5316309531021073 -0.9893311875043553 -0.9252127589377864
H -0.9036854938314368 -2.4163257428091094 1.6053331162830877
O -0.6204007543801467 1.4208033131967763 1.6147526859189427
C 3.893542557698428 -0.17215573251120464 0.14603587501063117
H 3.252731753262426 -0.9141928364645694 0.6079947330212508
H 4.896202661357419 -0.20553611943193914 0.5502184053700885
H 3.8959371958913334 -0.29250295271364096 -0.9306436359965404
H -0.5811399588278913 2.381048542020834 1.6798060736377665
Rh 0.17513263344147703 0.6121099872219599 -0.2081671514706342
I 3.0646934224073545 1.7495968455591315 0.5915384324092513
I -0.5436942914891133 2.828030138464915 -1.5356826321885633
O 1.3329339238312328 -1.0669195870449302 -2.371602608592404
C 0.82909999795608 -0.35675851118493057 -1.583752861839235
O 1.2371602165811482 -1.6204693862616186 1.3706365327111043
C 0.27622575408865646 -1.0580180331971465 0.8360481811941063
