31
## STRUCTURE-ID: 6456f6209de82c3c8a324934 ; CHARGE = -3; SPIN = 1
I -0.8609363997726376 -1.4118393438517522 2.222741994816331
O -1.064271655386952 -0.841253654220235 -3.440529211322013
H -1.0166832743270269 -0.6495604559953068 -4.387238194611726
Rh -2.2439302925687783 0.5037371460846629 0.9704180268213264
I -6.2898696350759495 0.5296370326284964 -2.501976972854508
I -4.004891092680082 0.9498677179655398 -0.8591468324412611
O -2.44980553390299 3.2373525480282215 0.08671707425015747
C -2.159797033812622 2.079001423759028 -0.2318675746471766
O -4.120323822362347 2.0428272367503055 2.656082992535993
C -3.40060772032669 1.336145439600772 2.0891212432649477
O -1.243097672077319 -0.36061768664198285 -0.7261442055431745
C 2.53979489264096 -3.840745756473706 3.216634908997204
H 1.4987719070293304 -3.844994247414346 3.5254060033796035
H 3.1237202868972114 -3.143394297193133 3.8093810477607324
H 2.9720727739843373 -4.836086757092849 3.2029178417257484
H -1.3696025238626248 -1.7598780499017384 -3.409019444100679
Rh 1.482336012923907 -0.5563284011098029 0.8808848779276417
I 2.782270844505128 0.3243005812978551 3.079229793601209
I 2.585084469580371 -3.1179070143870145 1.129724548087533
O -0.11607270209272283 1.7381269289514645 1.4506659073641965
C 0.49885199499681876 1.1722151216424785 0.4455989840364137
O 3.7240259110395364 0.6586848653661255 -0.6157240011760208
C 2.705314204630535 0.11199015139870419 -0.3522112199257765
O 1.310457869973616 2.251054096513484 -0.22762727939550256
H 1.5223627801522974 2.9177312423967185 0.4372301768318627
Rh 1.1519906040725887 0.03849182605367202 -1.6898185132516481
I 2.161086387670912 -2.07951287813549 -2.73398310259832
O -1.1773109639747903 1.8916546961927205 -1.19365588758995
C -0.5198632413376585 0.6785338517040408 -0.677675592650574
O 1.0020485942486457 2.5718656701927243 -3.1019571834216118
C 0.9768740292151173 1.408900965890186 -3.0541802058706367
