18
## STRUCTURE-ID: 645689b00f6cd612ca112999 ; CHARGE = -1; SPIN = 1
I -2.8347262856083653 0.807535466104118 0.6329753389842792
C -1.883272255898165 -0.8074928528011722 -0.40966193085911684
H -1.371697924781741 0.9720104878476311 -2.7805117982782273
H -2.6175926985630755 -1.1399770575016401 -1.1531150625929238
H -1.7919104235560588 -1.5978795029361597 0.34253017376600897
O 0.12140361195385 3.123842773863469 1.606353099515159
C 1.1356144502593672 0.5392349414149348 1.9757381614157816
H 0.2284002200574751 0.496390206640276 2.572690002975764
H 1.9410732876697754 1.0591781051172053 2.48626167182238
H 1.4451524070419772 -0.445574645831387 1.6367968843404108
H 0.7818974765919542 3.8297535315447355 1.6979916513783857
Rh -0.13017373630639834 -0.2505816053456364 -1.3970049261212498
I 2.1344522054937594 0.5793896459279906 -2.517606287995128
I 0.650090186095785 1.7194137592582857 0.24878289029214648
O 1.3292987440648398 -2.1918436306536826 0.35172408965181173
C 0.7367822251829242 -1.778346495188017 -0.6236029727290353
O -0.08812514154130341 -2.7961923493553913 -2.8079170250873537
C 0.21333365184337513 -2.118860778105544 -1.8624239604790809
