13
## STRUCTURE-ID: 6456b79e8bba1d7a9e610ab0 ; CHARGE = 0; SPIN = 1
C -2.5119414622034846 -0.014226413790776903 -0.07866040377009849
O -3.4522916215311295 -0.6235899889546729 -0.22596633758894902
I 2.473586757393465 -1.4089192231932983 0.8127956880864863
C 0.15225390930740035 0.9225721111172873 1.0413449632976592
H -0.45772239893977185 1.7026354310783987 0.5763651759559564
H 1.0936163458715746 1.3250345888244577 1.412275178715382
H -0.3826647762085588 0.4338120550019849 1.853305328654161
H 3.2377162498932432 1.7289905831834926 -0.8694306826920075
Rh 0.45050041855843176 -0.4138407346417084 -0.5731417005483843
I 1.9948436123767574 1.445666106134579 -1.8251917307479761
I -0.9924977567464796 -0.618046902532514 -2.8215040008728938
O -1.0804057155892206 -2.691935930498515 0.5573740967614926
C -0.5249935621822249 -1.7881516817287342 0.14043442474917525
