15
## STRUCTURE-ID: 6456b8179e34545af75fdac8 ; CHARGE = -1; SPIN = 1
C -2.0686856679377095 -0.11086125912990187 0.9828432637948785
O -2.1613266790976793 -0.13015473119439944 2.1270919405692292
I -0.2541945870169358 -1.6662798172345898 -2.543643331775745
C -0.43516986326373347 1.6192731835551641 -1.3016999648100325
H -1.3706437043041997 1.1156648911835743 -1.55744187081667
H 0.21188415632015012 1.572197272701523 -2.18115081766524
H -0.6450268405795978 2.6587889004098613 -1.0459453840529278
O -0.8474474892287618 -2.5355008333381877 2.385997404669558
Rh 0.9812877957790214 -0.8702470618807313 -0.3917417778124312
I 3.0996000307070113 0.14275434848609156 -1.544567232406894
I -0.889773340588579 -2.393086530889361 0.5607461073073493
O 2.155269009839325 -0.9742559044963724 2.3453735251130916
C 1.7493393389027039 -0.848411493508425 1.283537930540982
O 0.2907276617697117 1.4319218698744747 0.9907434248438004
C 0.1841601786992615 0.9881971654612566 -0.11014321749894475
