12
## STRUCTURE-ID: 6456699d6d4f6d64152c50c8 ; CHARGE = 0; SPIN = 1
O -1.392135224562237 -0.5408500263623706 1.1309781501995477
C -2.0657742922955324 0.049501562695741984 0.04494459925665477
H -1.984804369469042 1.140951446738373 0.06927713940485429
H -3.1151167651661296 -0.2303925635255103 0.13000786955220406
H -1.6791454490822963 -0.31606349240006804 -0.9125344940594542
H -0.45477600651515465 -0.2788094703591632 1.081245265623948
O 1.3371568785445447 0.2137550578496321 0.71431863316882
C 1.7649337398122125 0.052440680180919685 -0.6236300642965038
H 1.8441648603261136 -1.0051327016563445 -0.8902137390159366
H 2.7256348136878685 0.5437060006839847 -0.7952469277374417
H 1.0118107252382547 0.5232704716878828 -1.2526169201039299
H 2.008051089481395 -0.15237696553307356 1.3034704880072379
