12
## STRUCTURE-ID: 64566aef8558cd4a4e4d91f1 ; CHARGE = 0; SPIN = 1
O -1.1881392721015787 0.12473558150387667 -0.26409411213603506
C -2.2065620427644395 0.05756255522446303 0.36710100809741353
H -3.006976304997033 0.8030350703151466 0.2661769734440351
H 0.9971375983415435 -0.8011237263359541 0.5607209871252684
H -2.395743459229403 -0.7543844685540908 1.0822760046639308
H -0.6644015833284115 1.4349145177786624 -1.6559399509537864
O -0.45042483909737907 2.0635150845038095 -2.3588988590544164
C 1.9085610240478355 -1.0964514894750717 1.0636304027773777
H 2.2956128631235377 -1.999642767429344 0.6103610652869187
H 1.7028367811062637 -1.2778448480763582 2.1104861748265127
H 2.6413041676180447 -0.30533081816518093 0.972884780188463
H 0.36679506728102984 1.7510153087100373 -2.7547044742656834
