12
## STRUCTURE-ID: 6456684712d890223f6b0e13 ; CHARGE = 0; SPIN = 1
O -1.9728432858248213 -0.5716592742049056 0.14519942651945336
C -2.3809859198879133 -0.7824529091054948 1.4535497718686754
H -2.2749168168613223 0.3116543237785178 -0.12939435889407722
H -2.069535859766209 0.0021821156814957983 2.15292468591614
H -2.01890267873738 -1.7502314981123934 1.8070900899607132
H -0.7353178929658678 -0.5147418348274644 -0.2386016193346523
O 1.51869220357386 1.558577386892863 -0.8363412818184182
C 1.8646019443211408 0.19209490714207975 -0.8278841092893754
H 2.631390971607829 -0.02755208676086862 -0.07909851228432181
H 2.202834856249151 -0.14674131269246124 -1.8112684848850944
H 0.9396361232512842 -0.3505518256778747 -0.5639695189194427
H 2.2953463550402566 2.079422007886506 -1.0722060888396083
