18
## STRUCTURE-ID: 6456705531182a04324dd53e ; CHARGE = -1; SPIN = 1
I -6.0650698412027335 -1.5779697130210886 -0.1989375330353907
C -1.1478936513672586 0.10022489004500842 -1.1226651504553435
H -1.4800294915391792 1.0563833455534117 -0.7146479809362027
H -1.8493599193021855 -0.210191921397676 -1.898442293580627
H -1.1458541135818188 -0.6389579921634323 -0.31975739222585015
O 1.1760985836599058 -1.3789261295619073 0.5874495723095141
C -0.5215338062627977 -0.0023305332956917234 2.724390639040964
H -0.29296522279053794 0.06921217476850315 3.780846632374932
H -0.14428140360161748 -0.9246977571757763 2.289675923845088
H -1.579281235031337 0.13493385140882835 2.530377332634937
H 1.4604241108662217 -2.2479616047345523 0.28962178910913633
Rh 1.6950557150093046 0.2235939521806996 -0.39038633275884266
I 3.501490821320204 -1.1816621570575052 -1.678773276985887
I 0.548071253235746 1.578401904131869 1.7131897087527288
O 0.4519195952765361 0.3417160996795208 -2.9050172828763756
C 0.1941354539307961 0.2611790901979947 -1.7490448069036757
O 2.8455357119251476 2.6420574878507006 -1.732172159175301
C 2.353537439455723 1.754995012591174 -1.2057073891336867
