18
## STRUCTURE-ID: 64568b7878336711625fdaba ; CHARGE = -1; SPIN = 1
I 0.3648863523875385 2.2368792828085344 2.4625535466434365
C -2.3027964340219547 -0.1351528710499129 1.1913851522318435
H -2.337817109074857 0.9473336920898476 1.3009195480249192
H -2.985157315704405 -0.607703300696309 1.897432984888936
H -2.6102259950485096 -0.39055411718790356 0.17600077003559245
O 0.7236961165305086 -1.34881734677474 -0.6655853134103361
C 0.5074373179115523 0.7804251406947676 -3.073648630689527
H 0.7618401243122862 -0.24291144889324698 -2.8161948304234032
H 1.4011405859038673 1.3764024550256455 -3.225371052816205
H -0.16934043649504033 0.8335558092573186 -3.9177045582338543
H 0.5481147913845332 -2.2101144728326 -0.28053919647178305
Rh 0.7147382238318047 0.23659700635085623 0.7059681496620863
I -0.5227801651978321 1.5711301791997645 -1.3540458292104627
I 3.214571764148067 1.1429333490696267 -0.2801914210823245
O -0.7580372771179167 -1.7548265818535773 1.990034829008801
C -0.9234205524503221 -0.698207545905439 1.4236505471849994
O 2.552496553004875 -1.1292826444983577 2.589036109953836
C 1.82065345569579 -0.607686584804284 1.8762991947034844
