12
## STRUCTURE-ID: 6456677acc76ee0fd01d80b3 ; CHARGE = 0; SPIN = 1
O -0.6786923361425476 0.7943154364458289 0.627181376993083
C -1.058629099768624 0.13931754147511857 1.850891992795714
H -1.6816123886360068 -0.7073381541833597 1.5758279099962982
H -1.6351535068265213 0.830122770881403 2.4626309720074433
H -0.1848125687594479 -0.21084266202582566 2.398161020289433
H -0.13695120765022267 1.5740166550401515 0.8364629458309103
O 0.6612918962056862 -0.8357383911968221 -0.6861967336736142
C 0.7875510428586513 -0.6980529771341373 -1.9024597761189597
H 1.31226745920098 -1.4578591317698288 -2.4731253786964777
H 2.428008598731237 0.5601227988529557 -2.157709775305303
H 0.20334054874646137 0.019568805833410665 -2.473197677040291
H -0.016608437959648413 -0.007632692218891698 -0.058466877078223595
