12
## STRUCTURE-ID: 64568ec95ac2066a3d19eb5a ; CHARGE = 0; SPIN = 1
C -1.358852360853944 0.9301165781120941 1.1237712355318845
H -1.2580153856366594 1.9805461998325162 1.4158375542540762
H -2.0168626124591427 0.4152338043844595 1.8377148912469181
H -1.8419629673680196 0.8744361258403718 0.11826537383964629
O 3.0352630802756355 -1.4703031963887983 -2.1086026890095035
Rh -0.09453950952493338 -0.5355208147652929 -0.6587376792387836
I -1.5097520484526654 -2.538315107049826 0.015931391560143813
I 1.5828940098589093 -2.3314376267806174 -1.399785660423106
O 1.6828806718983949 1.4820137673209055 -1.9896905112004246
C 0.9743153732325486 0.78993861758899 -1.4359668490914772
O 0.8449367720661314 0.12269688346478473 1.9143289498287537
C -0.04030502303623901 0.2805947684404182 1.1669339927018718
