13
## STRUCTURE-ID: 64568c27dcd21e62ba7b9244 ; CHARGE = -1; SPIN = 1
I -1.6442006838203294 -0.7125471768499472 -0.7302490179943465
C -2.845582421975107 0.34086589483424223 0.7611596133196519
H -2.938354084778051 1.368676309913756 0.4317795695339469
H -2.315863150326515 0.29015938214737275 1.7052047966589468
H -3.805610072046996 -0.15761944280110343 0.8066490736521474
O 2.131532481148616 1.5249790387108833 -3.2240673473474155
Rh 1.3525218568607613 -0.08068423254212292 0.05359516055909985
I 0.5753867118550561 1.672862269788924 1.8179987017061767
I 1.4744902025969215 1.9832085208772765 -1.5276324939239627
O 2.762339493639054 -1.4888135023185363 -2.1730433850496134
C 2.2078613437308863 -1.0145632194287637 -1.2844495677697045
O 1.5755226844288153 -2.2856580475662645 2.065971587922843
C 1.4699556386869392 -1.4408657947657635 1.2970833087322378
