19
## STRUCTURE-ID: 64567b1fab13596058671003 ; CHARGE = 0; SPIN = 1
H -2.2621605514007066 0.23359219114067523 -4.559680737972645
I -2.757847220533733 -0.5324751538078543 -3.2634878269788534
C -0.8490230706731952 0.8404002232235983 -1.7033761772239928
H -1.4744568199264354 1.701229739413032 -1.8832011327772213
H -1.1421397067223147 0.13114688045772877 -0.9344731993982744
H -0.17174067050953568 0.4925853663659229 -2.468355124529688
O -1.1417828694315895 -0.9382915635762875 0.8481066215647304
C 0.9460320044389492 2.109907506846353 -0.4626192271822193
H 0.09623364973790736 1.4546108114991156 -0.9196946206403878
H 1.8706380604012194 1.8121033843166632 -0.9521582183295739
H 0.6848618843411362 3.1555309034225894 -0.6007927565251049
H -1.9298944576493582 -0.9531547902719362 1.3940603200986128
Rh 0.6495538992856472 -1.4765879680889036 1.6810755533259696
I 1.0545847853029797 1.6701061637362935 1.6299049753013448
I 1.6609803081516348 -1.6063976033970084 -0.7224382141463077
O 3.2231843613218736 -2.455487320438266 2.8381332267225274
C 2.248293721666057 -2.04248042831728 2.371790927632962
O -0.5761875326145367 -1.900689476987443 4.376257538284254
C -0.12912977518600194 -1.695648865537007 3.33094807277386
