18
## STRUCTURE-ID: 645670af9f663a7fd822413a ; CHARGE = -1; SPIN = 1
I -2.2602407316898003 -0.5505949400903539 1.0065513500215026
C -0.3246930479303322 0.08464160669217614 -2.092053313282563
H -0.4985769427080894 1.032897352102355 -1.6000537886160018
H 0.144529564562711 0.21829028727987593 -3.058883221890542
H -1.2456888239782558 -0.4843220478966448 -2.1524008527374052
O 0.944830006288332 0.9892938896444987 0.4419768552557336
C 0.9455916867114998 -2.6143387877572075 -2.3511372714027665
H 1.2827341211730379 -2.2270625633077232 -3.3055613614196138
H -0.07418882260504563 -2.977788738170154 -2.412198301259521
H 1.6016607370216205 -3.408091692545987 -2.013753622287806
H 1.8641517440938737 1.2257695780464604 0.5999430861971289
Rh -0.3233867335580801 1.0848662289651445 2.2667740826533227
I 1.1447872778302195 -0.9396845954113461 3.316803783061314
I 1.0107449655161296 -1.0130031856020927 -0.8647204338279902
O -0.6832566025510416 3.9999505409961067 1.6424267722463863
C -0.5290958388944694 2.8784707782376957 1.900886999991881
O -1.79080016330836 1.4094494292919322 4.8356686619453475
C -1.2091023959739704 1.2912568595252274 3.8397305753515836
