12
## STRUCTURE-ID: 645667e0039a9b7fd65c0b0b ; CHARGE = 0; SPIN = 1
O -2.0713527384317816 -0.27117673740189807 -0.9390179750379999
C -0.23808077063248897 0.09302299452190238 1.17460563810347
H -0.19611143126141392 1.1434114109804339 1.4488556155869097
H -0.32370303740981915 -0.544589833674805 2.0478204028427824
H -1.1113767627191484 -0.07069272332543543 0.47227690123441246
H -2.491345905767032 -1.1379905038455456 -0.912106194769091
O 0.9411769628053583 -0.31728669363960166 0.43847173396288197
C 0.9501878851231753 0.19793440912167823 -0.9125867695326383
H 1.708886468270482 -0.3430515091531915 -1.4710252426385684
H 1.1297107970117835 1.270840153475673 -0.9330465654997573
H -0.04929674546503874 -0.00353798051896095 -1.3237821493587847
H 1.7513052784759238 -0.016882986540243193 0.9095346051063735
