14
## STRUCTURE-ID: 64567b084fde255a55399e4b ; CHARGE = 0; SPIN = 1
H -4.497779091119357 -1.238160069521914 2.102758114825957
I -3.010880379695916 -0.9700354175736523 1.4854880712194283
C -3.870596774140266 0.3026690193225177 -0.02931419100738639
H -4.361043399774223 1.1240401060693623 0.4841297637953223
H -3.020021309608794 0.6410581917957472 -0.6127877608524972
H -4.54751507065328 -0.31155748920104837 -0.6152618204652159
O 2.540391613590093 -1.869360266254003 -1.2600427400855643
Rh 2.6562592709724036 0.02326780657802503 -0.422434247004129
I 0.09944238465281942 0.06395926245110209 -0.22821112550617417
I 2.550300721292799 -2.5868300108742854 0.5651648322160325
O 5.491495316699401 0.19234337129676007 -1.385067319473471
C 4.413958630870543 0.11806243295316657 -0.9876122497674285
O 2.8104515164399317 2.8002217228686233 0.6379155131071216
C 2.7455365704738552 1.7103213400895674 0.2652751589979889
