18
## STRUCTURE-ID: 645672e7dc9aa5000428a81b ; CHARGE = -1; SPIN = 1
I -3.1605889956600692 0.4588114318893286 -2.1855885768148307
C -2.1848378121789205 0.42112900070032727 -0.28683207501340546
H -1.0956642600707691 0.24876973778316575 -0.467528689280464
H -2.616656673152891 -0.38127776745055325 0.29871253710910084
H -2.3380074312676906 1.3805315610364117 0.19191082336120666
O 0.23836422646969846 2.0959607087378784 -2.0246342221760076
C 0.4453192091060191 -1.932337191102054 3.174963576437741
H 0.5531311379656438 -0.864447427493059 3.3357553899862684
H 1.2400632854916627 -2.4844716867429635 3.6611541649606374
H -0.5312692465578568 -2.2829263942146705 3.4850619213699443
H 0.44609369820571976 2.865625478425981 -2.58909162235046
Rh 1.0060568446885012 -0.06929368109027086 -0.44294712434873335
I 0.6210337422283485 -2.289151232933052 1.0214811229760283
I 1.1079826435077407 1.556332927882503 1.5941409874611736
O 1.3015758291779982 -1.234282637588591 -3.171079232893403
C 1.1392309690236055 -0.8820745770195767 -2.072472434112443
O 2.4588269151309334 1.9171187234728586 -1.939866810394825
C 1.369345917892268 1.475983025706377 -1.5831397362775164
