12
## STRUCTURE-ID: 645669910516a707b56cd4bb ; CHARGE = 0; SPIN = 1
O -0.2141512225158961 -0.13205512318892276 0.18672759270301562
C -1.3003342010163128 0.2630595597466489 -0.6353916397075247
H -1.7542548813061267 1.182584215585995 -0.2516204593411555
H -2.020746554285308 -0.5501656020447223 -0.6003338836244597
H -0.9713168507386141 0.4273019521150965 -1.6649145177530837
H -0.07909753990545035 -2.163060920239047 1.5998850662693849
O 1.543285532041876 0.8182465186826261 -1.0162898089183405
C 0.849319818339922 0.7725351979776897 0.19121946563188486
H 1.498328311129402 0.454532934795439 1.0193935049239304
H 0.03560826967307733 -2.818257565386747 2.006407994413519
H 0.49564717451224766 1.798685667098174 0.369846476909946
H 1.9177121440712082 -0.053406835142199766 -1.204929791507056
