12
## STRUCTURE-ID: 645669766df9f82ef473b9e0 ; CHARGE = 0; SPIN = 1
O -0.9528117117678976 -0.3012384141849273 -0.09967506853858955
C -1.2290400675468176 0.398848181322324 1.045220744824404
H -0.5072098832004344 0.20094176461226215 1.8566386321742354
H -2.2268365347937324 0.11950424514902304 1.4159320307903835
H -1.24698171769803 1.4859527959912002 0.859478966179872
H 0.08904216410910845 -1.2931717029972964 -0.1871996405348531
O 1.0613720516960001 -1.4790810663892116 -0.48498707422881465
C 0.7826312689048087 0.40264528285160284 -1.0784667772832643
H 1.7509530900629127 0.18763947345343526 -1.5094597107489203
H 0.8104326599905703 1.119565033753871 -0.2761331905200583
H 0.023211743910034704 0.5690284664784061 -1.8211749351913915
H 1.645236936333474 -1.4106340600406726 0.27982602307699583
