18
## STRUCTURE-ID: 64566f7e534623503f4975b0 ; CHARGE = -1; SPIN = 1
I -2.067887318013183 -0.18393733263791398 -1.3850229391954174
C -2.0022074318301635 1.7723129806303375 0.2290858919234986
H -3.075622557476992 1.8164533721696288 0.11730453649719232
H -1.5881238586277702 2.753451045163601 0.005042957874449145
H -1.740815284921735 1.3890268175906255 1.210359515110561
O 0.6873227765768437 -2.5051553715894164 2.672733755798519
C 0.4215140034434209 -2.514015977357843 0.005315464522550998
H -0.5665776665368659 -2.9121486321603753 0.1955337618901831
H 1.1692875172125612 -3.2208711746562644 0.3377607033998155
H 0.5474261334099009 -2.2623737108395185 -1.0423471882897462
H 0.7466056861693627 -2.1841382639977844 3.571760101127042
Rh 0.27959225443820307 1.0959117586934284 -0.7338750056798332
I 1.242872552960928 2.600821841431287 1.4649391541749213
I 0.6728388891831055 -0.764386056965818 1.172881113996599
O 2.776677247136571 -0.468752929305205 -1.4828179130197376
C 1.796204701761592 0.10501654870366321 -1.2652851454239786
O 0.4374471425098716 3.0996484157928754 -2.9778626427311656
C 0.26344521260435005 2.3831366693346534 -2.0955061219754563
