13
## STRUCTURE-ID: 64568d5d7c4d1c55556dc15d ; CHARGE = -1; SPIN = 1
I -2.84708872424755 3.4441115521832253 1.6517829237168093
C -1.0202790245683098 -1.2421022564734563 -0.14120034982454735
H -0.7763585301622143 -1.961170770249886 -0.9232493153802948
H -1.6637890018680448 -0.48529335164244053 -0.612075402370931
H -1.6017721463178771 -1.7405902635098716 0.6369195475219601
O 0.9620431168137032 1.7033762475084309 -1.6012739264984286
Rh 0.4395459434195682 0.26166341976985386 0.5558611816401393
I 2.4261700357824196 1.3958525040604315 1.8462039372745227
I -0.7685475036617637 2.623105387792973 0.08497898945942389
O 1.803622440778221 -0.3875045403880367 -1.7797329185114767
C 1.2233228340149918 0.5464362146684005 -1.2885243132031081
O 1.0810489409897168 -2.6249379099399697 0.8799073066701107
C 0.7420816190270975 -1.5329462337796544 0.6904023395058202
