13
## STRUCTURE-ID: 64568c0bbd441d32fb4975aa ; CHARGE = -1; SPIN = 1
I 2.9934373906885514 -0.6685846741427126 -1.2091301676161437
C -1.3339301267781816 0.3672630327673776 0.9685827340282894
H -1.5560713633397734 1.4337510125070594 0.9142385526671152
H -1.319298057940951 0.07003375683827072 2.0183614213961194
H -2.1266648989209935 -0.17835314789138068 0.4538360804291022
O -0.6634983148663499 1.0761719390981828 -3.260448955094959
Rh 0.5739344347829537 0.02099964991627613 0.04719495943332877
I 1.5994432935816418 1.9910134112136115 1.4870892015330852
I 0.10873194528233392 1.8997312229046686 -1.7740944654897601
O -0.5773873041562125 -1.7858710243226916 -2.0346614244666736
C -0.17395830181133948 -1.1410815720608405 -1.1896313121362667
O 1.4251858525155 -1.8979388347566823 2.1896295226087807
C 1.0500754509628094 -1.1871347720711194 1.3890338527079953
