12
## STRUCTURE-ID: 64566a5643874f0cb5293428 ; CHARGE = 0; SPIN = 1
O -1.0310266892894926 1.1766022833376102 -0.5778058269844691
C -2.018902744833463 0.24589406779300088 -0.1894913733903004
H -2.8110832611169094 0.167835923928568 -0.9397355257211261
H -2.458725057674386 0.5121155355784536 0.7761868336677398
H -1.5237794716116762 -0.7193666174709686 -0.09733183535727268
H -1.4425937872332657 2.043571685291715 -0.6762823132535976
O 1.9891160185345174 -1.473845318749776 -0.3089374582177087
C 1.8281601604814788 -0.4114032607206518 0.6094639345263666
H 0.9915796070319368 0.23418790207795206 0.33062421625780525
H 2.740492116167985 0.18938081078167188 0.6842431632512834
H 1.6259209245287292 -0.8655073101897377 1.5783302016619474
H 2.1108421850145533 -1.0994657016578437 -1.189264016440667
