19
## STRUCTURE-ID: 64567a98568b5a6db94b65f9 ; CHARGE = 0; SPIN = 1
H -0.03441256539546631 -1.8302810754745125 -3.429550169552499
I -4.5308242622027946 0.5030209723455387 -1.7126639748747086
C -3.230488801746969 -1.1197502075086558 -1.279592317874238
H -3.715502510560718 -1.8238599840440795 -0.6130315477577475
H -2.855954003983105 -1.571140528104327 -2.1931738615041714
H -2.307023915472465 -0.6891715338695202 -0.7275936627283421
O -0.6106799588687147 -2.231178656676571 -2.7745880922898953
C -0.9996446952246648 -0.4141427828670108 -0.29885376047254497
H -0.5205679629844081 -1.0014172120161569 -1.0720024255138587
H -1.0512591292887525 0.6558192997825374 -0.4180150655806434
H -1.09197168953748 -0.8342132881835935 0.6887469769690396
H -0.21017383662680308 -3.067695969362282 -2.5254819426278323
Rh 3.0806438176341913 1.571322914554837 2.041166908721853
I 5.334551984176102 0.4228906815252197 1.4092498942204899
I 1.771707689522668 0.022235098286007806 0.44277996381517754
O 0.622159430282115 3.019276796816803 2.910900060078763
C 1.55124834020348 2.4435554787361204 2.556907781464211
O 4.723794902056171 3.2991776320371233 3.839725860077185
C 4.0743971680176365 2.6455523640225196 3.1550693754298043
