12
## STRUCTURE-ID: 645664ebe860da59d50b39d8 ; CHARGE = 0; SPIN = 1
O -1.4602956683521773 0.9818843024184588 -0.12201564811757332
C -1.8426826878180613 -0.043846473178266385 0.7695075810488123
H -2.921481216609892 -0.036760296952032145 0.9490849896057507
H -1.31433149224065 0.0403235595600127 1.7240979064417081
H -1.568652641759822 -0.9863048284549608 0.2984841541658185
H -1.7222272183816751 1.8321257365581236 0.25137558817070105
O 2.398993733355722 -0.23031612408046126 0.2611058731358165
C 1.6278032458393716 -0.5018683971444503 -0.891646724851587
H 0.6581735930706024 0.0014735095107932376 -0.8545891059997066
H 1.4718598028238368 -1.5791317933330606 -0.913971363829099
H 2.1557838319184732 -0.20186694774557312 -1.8026583405833227
H 2.517056718154304 0.7242877528413869 0.33122509081266727
