18
## STRUCTURE-ID: 6456702eb888fe0a250b3f6e ; CHARGE = -1; SPIN = 1
I -7.345004452593394 -1.6640707394767222 -0.013240765230812182
C -1.9320068603525768 -1.2074956448275522 -0.27513034590372465
H -2.1664688856965144 -0.48358667112143416 -1.0530817302991269
H -2.350318185317398 -2.166561567327314 -0.5729996952054636
H -2.428430818921234 -0.8950389903361733 0.640415455214834
O 0.6271063022669308 1.6200031247696878 1.7066614371937263
C -0.433671163834633 -1.3399802739208848 -0.06381623787646493
H 0.05276983111997072 -1.6725856283750924 -0.9975331384461739
H -0.03338801800788025 -0.3369788631624051 0.28742137467895357
H -0.21748030105922148 -2.0673145203175096 0.7184160498850165
H 0.5099335583752216 2.2459704840592596 2.457248868786644
Rh 1.5467123957700641 0.4041864184454274 -0.4598881087288393
I 0.03588900801651039 1.8528360744951218 -2.0301384301426824
I 3.018129737101317 -1.1695819752199825 1.0140351191818993
O 2.4676676679906873 2.6948154882981465 0.9423338004541052
C 1.6342217237488699 1.8483292112050183 0.9229697123389765
O 3.9691391207109104 1.3407642702056108 -1.8915859205876988
C 3.045199340682283 0.9962898026070132 -1.332087445313191
