13
## STRUCTURE-ID: 64568877361c4c41943288ad ; CHARGE = 0; SPIN = 1
I -1.5524520085738944 1.7516454524664995 -1.6186274492882977
C -1.2271019982032612 -0.3841940999215982 1.073704238599932
H -1.8290813316202106 0.3963342509791354 1.5463740222872933
H -0.8273982178486387 -1.0162075492642515 1.8690850810423136
H -1.9245691275784065 -0.9787955573091207 0.47356984226046783
H 0.6187955522741433 -3.1769280906989543 -1.3362715279750794
Rh 0.28142822660710237 0.2501263141105701 -0.30694430972873676
I -0.1937659344150846 -1.9908289957772725 -2.0132982719411108
I 2.2186086127090103 -1.072741453554299 1.0233872568023004
O 0.26986251534410693 2.1785626632449304 1.947447996564807
C 0.27213363273959557 1.446084263487937 1.0787750549597372
O 2.2966965215045714 1.6264937036016511 -2.169355990287465
C 1.5968435570609727 0.9704490986347777 -1.5678459432961622
