19
## STRUCTURE-ID: 64567a91c821f46017662c60 ; CHARGE = 0; SPIN = 1
H -1.3143620541623193 -1.8193966454071815 0.034313242391351625
I -2.9282192149806003 0.47524720728083963 -0.7590101109029127
C -0.5316537700496281 -0.012009626825310123 2.677197512697261
H -1.472188899783209 -0.01241600240333152 2.1378803416291197
H -0.5666763842934281 0.5902614602473 3.574613771247421
H -0.11081358057321652 -0.9948665234436734 2.842309180515854
O -0.3864902592229498 -1.5722571481893262 -0.09386494767252991
C 1.1938235907053394 1.280938913290587 1.5066828631878768
H 2.0360462534692845 0.5944314758026288 1.399624758910716
H 0.22616400566163378 0.5338759527313153 1.9273504487948674
H 1.286013571497624 2.032497541317784 2.2866364968909214
H 0.1654792073210242 -2.3086258469170615 0.2133118270092007
Rh 0.33458527628846385 -0.4127947504507404 -1.9328878259830369
I 2.7329588042942534 -1.1599330019974268 -1.1483099647483794
I 0.6510181379635653 2.1481721653968484 -0.3305778857238511
O -2.0606819434248793 -0.09751495274568983 -3.6226161172825218
C -1.4459245770623714 -0.11627228363048116 -2.6204250245089886
O 1.2704842771550946 0.6232537517743253 -4.558705761165078
C 0.920437559196376 0.22740831416846388 -3.5335228052874768
