18
## STRUCTURE-ID: 64567324f78ea92bbe2726aa ; CHARGE = -1; SPIN = 1
I -1.0610183951194403 2.931721638149575 0.21421162490630302
C -2.3772285184405493 -0.15678028951249076 1.027968372035874
H -2.4404044470177326 -0.9207778192524668 1.807781470856094
H -2.827653383797327 -0.5526668762352711 0.11683098691160625
H -2.953832603118478 0.7116846686754587 1.3539946562250536
O -1.7435753928029922 -0.11900150225843403 -1.8917014804093586
C 3.336669663729691 -0.49908895858817903 -0.9119281036320921
H 2.7334753150824533 -0.5653106397077869 -1.8103191726399555
H 3.296724604494253 -1.4238657668018713 -0.3464648189992981
H 4.355065345957024 -0.2031196315599295 -1.131414316372854
H -1.6710647978486104 -0.17040421893610244 -2.8652175335863834
Rh -0.3689088691827509 0.37500140839715496 0.6540544794953345
I 2.4560721239724077 1.0608848656238181 0.2971958220838598
I 0.27334192516948524 -2.2146690358426757 0.7097309211835736
O -0.5625562652115126 0.709264493209984 3.6476144333557525
C -0.32246155368364 0.6015359154316262 2.5302566867529777
O 0.4239771606375812 0.28035316368041335 -2.0736738520526754
C -0.5466219128199082 0.1552385855272487 -1.328920176113831
