18
## STRUCTURE-ID: 645671467804c805d0493a7b ; CHARGE = -1; SPIN = 1
I -1.5835570123812144 -1.7456123354041104 -0.2284368260702864
C -2.747939940149082 2.6350078003564867 -0.5497906772143719
H -3.625050919645451 3.0811698782402313 -0.10119228633875349
H -2.237269905601866 3.3649716136758148 -1.1622694543320196
H -3.0445176641567335 1.7862775276385288 -1.1526486051542288
O 1.9741824842732925 -2.968444917597864 -0.8586695036793552
C 0.6841953197834852 1.8398903377523173 -1.2837132586433164
H -2.0868994879108747 2.2944728602238 0.23725085151851924
H -0.14064202993292305 1.7646321113378634 -1.9666390998862067
H 0.8343837742681056 2.7099351230394833 -0.6738254930494704
H 2.2307260035445475 -3.848599705709492 -1.2033821455153284
Rh 0.6530292013978666 -1.3606226527805385 1.1014273998530841
I -0.32537541524662406 0.5704825273626821 2.713729704177491
I 1.7396358642306533 0.16243453657006782 -0.8642679983635017
O 1.0882172100171876 -4.105351995162774 0.8476860806404461
C 1.292754830779142 -3.036140914121917 0.29040624646284535
O 3.114567950185071 -1.6695919452292853 2.7512104150418106
C 2.1795597365454156 -1.4749098501912739 2.103124650552634
