21
## STRUCTURE-ID: 64568da54c89c90ae41688ed ; CHARGE = -1; SPIN = 1
H -3.129497566585867 -0.4920018527147529 1.1510919152424477
I -1.5217595038214626 -0.4609943907933585 0.5124467668051009
O -0.33319191980385365 2.17542819340529 -0.40283581392888357
C -2.6539595495682304 0.38067213775064235 -1.131226996889536
H -3.2254683185065565 1.215405568396409 -0.7463218060085832
H -3.2913222643530995 -0.4029284986385813 -1.5226785263186948
H -1.9494820220450466 0.7000146581533058 -1.8885685210461403
H -0.7976956919702569 2.7591778970878145 -1.0217096866926503
O 3.1117896850846747 1.1967297080230583 -0.6254707181733014
C 0.7771826949457894 -2.2251192213558957 2.610638343108223
H 1.3649560087009556 -2.734074357820199 3.364021102782368
H -0.2775465007669341 -2.4674725496419496 2.681946766031012
H 0.9245401978127206 -1.1516581590273391 2.6413467930251553
H 3.6660837799609336 0.7472871275445816 0.035412706815204004
Rh 0.7727663803070537 -0.49773678412628153 -0.7481202466301536
I -0.07899437022958306 -1.4774832787610779 -3.0330432236445453
I 1.4601562771369831 -2.904036517097002 0.6755842066362138
O 1.5375760455513112 0.6479377419784391 0.941456020166642
C 1.8053898116344371 1.157163460959093 -0.18324520173411482
O 1.0403689861881897 2.1552772517050935 -2.2269963778547144
C 0.7981078403278367 1.6784118649726663 -1.0837275016910535
