13
## STRUCTURE-ID: 64568b18df3396787312b084 ; CHARGE = -1; SPIN = 3
I -0.7680582066345587 -1.213144275629338 1.7004767513604522
O -0.3882628025578616 -2.303124077289452 -1.5860889248238983
C -0.17739370955404377 1.4785307602985647 2.7326197843879574
H 0.207102891904278 1.342001758202042 3.7277188553796603
H -1.1308677026869323 1.9674951019074614 2.628939621684948
H -0.5248787545607203 -2.903055645816005 -2.3485922394044714
Rh 0.584599939869683 0.06780660727707206 -0.41870562309879145
I 2.9458734417383905 -1.0545390988166965 -0.27772677642137905
I 1.2648463756905377 2.1702743024990108 1.3633594161140123
O 0.4806936083780489 -0.8829097596302415 -3.074429192214582
C 0.1945373395822438 -1.1566352068887997 -1.9219751606493465
O -1.8067074107530239 1.506281245797855 -1.487026045170388
C -0.8814850104160376 0.9810182880885304 -1.0385704671441685
