12
## STRUCTURE-ID: 645664e0bb7b522ec94609e0 ; CHARGE = 0; SPIN = 1
O -1.1267662653329016 -0.360653331146284 -1.7108692758332056
C -1.133155044339104 -0.14948754400405065 -0.4579929149302812
H -1.1532764936352506 0.8346927757330708 -0.020935531375568358
H -0.9868036249505258 -1.0069302417601056 0.17859869423384636
H -3.0337753051837395 -0.2332460201163064 0.025992037924697096
H -1.2432756339156246 0.43450903450079587 -2.26789907563469
O 1.0388871862945948 0.18182184597733458 -0.29236581051948285
C 1.455530265878269 0.19002092631452883 1.0612860235624693
H 1.2641251821177795 -0.7690922704149604 1.5467208163957389
H 0.8818576661293023 0.9632271589629371 1.5676601675748398
H 2.5177740258473364 0.4305388937715005 1.133062785448729
H 1.5188780410898688 -0.5154012278184606 -0.7632579168470969
