12
## STRUCTURE-ID: 64566728ee63ca5a7e40f1f8 ; CHARGE = 0; SPIN = 1
O -1.8157326689914661 -0.48246561905867147 0.10097960274663521
C -1.7705258396739472 0.2594604057984493 -1.095590841026989
H -2.791138171607383 0.5698393836224677 -1.316142297558374
H -1.3948713534242176 -0.3453331182265232 -1.9271425793962969
H -1.1431028428649102 1.1504061732052713 -0.9913732739426144
H -0.9086560078392018 -0.756171736965466 0.3169875438915556
O 1.0152648968760822 -0.8644777393356372 0.43260959774235225
C 1.6689102995441711 0.2535596980589132 0.9966047600456707
H 2.1846781026734168 0.8406939699373265 0.2313367296448811
H 2.3846791471678457 -0.049966921506850503 1.76492511867303
H 0.8979407524296441 0.8692011285467695 1.4565624161463873
H 1.6725536857099756 -1.4447456240760486 0.0302432230337523
