12
## STRUCTURE-ID: 64568824e9999f52025c71ad ; CHARGE = -1; SPIN = 1
Rh -0.6044961032912175 0.40270293032709986 0.271869191853145
I -3.323990371959726 0.5284849195088491 0.6143998080939392
I -0.23022712218307445 3.09553895985663 -0.11195918039599481
O -0.16591826357076037 -2.546874031836632 0.5000446808154414
C -0.23299629586296677 -1.4039814833660178 0.38484288385083804
O -1.3013116966019724 0.6647030448138843 -2.6238450514051945
C -0.9962840197056319 0.5335877988079223 -1.5319180759626343
I -0.10249083941928148 0.45088890923900865 2.9143908525053104
C 1.4551948248352073 -0.42316333688324903 -0.05729719336265428
H 1.9008836726821614 0.5785349232650288 -0.1309021508224822
H 1.6384791403243422 -0.9508123157454323 -0.9926299824835604
H 1.9631570747529499 -0.9296103179870878 0.7630042173138425
