12
## STRUCTURE-ID: 6456673300c0d30254610abe ; CHARGE = 0; SPIN = 1
O -1.2917626879652215 0.1314595300855827 0.00911292277760379
C -1.8789653298617195 0.26496465061984253 1.0492273996745174
H -2.3617547815979107 1.2121650013822534 1.3296628714943755
H -0.2662332185947257 0.9609306620398436 2.515193255480822
H -1.9938819184227672 -0.56119333299634 1.7659386422166432
H -0.05154154860054675 -1.1318331244733097 -0.9479113362863396
O 0.739089362870093 -1.4687029939133536 -1.3968403629913306
C 1.5337380209170461 -0.36132846023189064 -1.754782707368122
H 2.3953642243340525 -0.7508018385843267 -2.2950819914547487
H 1.8820908732823158 0.1816071383275119 -0.8700014276562247
H 0.9865721108645049 0.3299142294418157 -2.4027838207857637
H 0.3072848927748818 1.192818538302372 2.9982665548985667
