12
## STRUCTURE-ID: 64566ac8ddd7bc12b82c50c6 ; CHARGE = 0; SPIN = 1
O -2.341056096974715 0.3830933348636256 -0.7556389272959328
C -0.1666177573635993 -0.7109063628013756 1.3901088003379982
H -0.9094095037278095 -0.35727443952969207 0.6762167120857675
H -0.5945768463181785 -1.3828207183382921 2.1197365316816645
H -2.1356265759171276 0.5914241555779158 -1.6702240958553463
H -3.2379545443959388 0.6849993520024442 -0.5901601763961705
O 1.5589089754742296 0.2635308621108384 0.4189585048357931
C 1.1246869242955844 -0.8400114486651337 0.9319829653766547
H 2.237028332942949 1.1603545304581913 -1.8912563470144852
H 1.8019615694727613 -1.6846177163310982 1.0242952122877984
H 2.348387009156349 1.290148717427127 -2.6513305155088043
H 0.31426851335555367 0.602079733225416 0.9973113354650096
