12
## STRUCTURE-ID: 64566a24d570ac4c24671000 ; CHARGE = 0; SPIN = 1
O -1.8680364513278385 -1.1067874769285349 -1.112084135148771
C -0.541007199986478 0.5876881393685399 0.7341297485472529
H -1.4711520050067786 -0.5029485361774251 -0.4257741306847206
H -1.0510362080157227 0.5421886078895817 1.6898419535274005
H -0.5930178205467683 1.5736884638422417 0.27282671099641453
H -2.7106827327508745 -1.3967369755208006 -0.7576349642964192
O 0.6698189991316419 0.003637264803593965 0.7916069061937449
C 1.3462811007903865 -0.03230746789328649 -0.47232395640731245
H 0.7238690933145006 -0.6192805273076285 -1.1487185869011394
H 2.3076469206204013 -0.5155660960561971 -0.31516471689930725
H 1.4822736879678913 0.9703514426511525 -0.8801594559700817
H 1.705042615809637 0.4960731613287285 1.6234546270429284
