16
## STRUCTURE-ID: 6456b67f784ffa2b537c7c4e ; CHARGE = 0; SPIN = 1
C -1.0056327075173657 0.8942558759159793 -0.2897535245677019
O -0.2552145037904704 1.6849450247877733 0.03713576356221299
Rh 1.4057853138197833 0.9185155775394792 1.831035808738941
I -0.5647965905402696 0.9193922387184238 3.5598475593029173
I 0.8217570325804151 -1.445299231985739 0.9056921843410085
O 3.8538674415352476 0.8865261309466802 0.12639073481919114
C 2.889009147666864 0.8981329430627553 0.7558572832643521
O 2.2098045383506117 3.553111949944616 2.9863193371968
C 1.8889309931989018 2.5522490877212762 2.517516075443518
H -2.0173963562098782 -0.6974274283822409 -0.6411892254641389
I -0.5925941867718785 0.05154446834569939 -3.0183282978645423
O -2.342817157997081 -1.483192726278126 -1.1810120368328587
C -1.383024001924733 -1.800808721070575 -2.1970810369349456
H -0.532685845931802 -2.359672765476031 -1.801683484308086
H -1.8989955629735051 -2.3162000265153737 -3.008575983507551
H -2.475997553494842 -2.256072397274601 -0.5821711571891164
