18
## STRUCTURE-ID: 645671d6e4ad9972c0324923 ; CHARGE = -1; SPIN = 1
I -0.20661019372906744 -0.5896374516555254 1.1654198118493513
C -2.4903122088585263 1.7492718012746533 1.3587340774016747
H -3.0611900827309033 0.8457758942344937 1.2786433134184023
H -2.892782053649201 2.6445174733143113 0.9135601553318801
H -1.863419959736704 1.859531366607337 2.22074776346614
O 3.2901307242478954 -0.8372835857530545 0.7429690363585087
C -1.037990201330822 2.059635364563295 -1.1109536177494626
H 0.0062112535075476635 2.309699614022572 -0.9785315877445367
H -1.1469018234823378 1.2211581386280805 -1.7857925164759998
H -1.4996254463294867 1.814398551806728 -0.12025349408662449
H 3.5037578184494733 -0.043677663825656764 0.24067168276171907
Rh 1.818111292888563 -2.009863166189801 -0.13032158655671988
I 1.8155751654198424 -0.4780917681154689 -2.3026184535253678
I -2.049151452959634 3.7337292170431864 -1.9249981247211274
O 2.7444046578765207 -3.9714785109769815 1.9351379711705998
C 2.3513406179923497 -3.2621792830012373 1.1167706320478004
O 0.02340404122845154 -3.8848151981035697 -1.6089920099188895
C 0.6950478511960834 -3.160690793873339 -1.0101930530273733
