12
## STRUCTURE-ID: 645668874374f252530b5350 ; CHARGE = 0; SPIN = 1
O -0.2316035604178256 -0.15179478904717136 0.39185913645316284
C -1.1748000185350107 -0.6520087892075076 -0.5185830906990889
H -1.8334041139722925 -1.2554233066285552 0.10608658943060024
H -0.7141893707501104 -1.2620549083641928 -1.2982315982472248
H -1.7391152600017445 0.16692716658601836 -0.9730606445772176
H -2.539115837375433 4.395606441504055 -0.8436880337509505
O 0.7674016622497233 0.6816271098625123 -0.25271859688156084
C 1.6030899230373004 -0.7856535075076022 0.775831845709126
H 1.4166676996097336 -0.5951388246685323 1.82608550318827
H 2.5274585299894237 -0.3860845392995308 0.36838693181246573
H 1.3230497829348464 -1.7652572630583852 0.40406105462801417
H 0.5945605632314147 1.6092552098289021 0.013970902934420345
