12
## STRUCTURE-ID: 64568836bccd851a741aaa10 ; CHARGE = -1; SPIN = 1
Rh -0.5853447539920323 0.4621416168697456 0.35641983617957873
I -0.5965168136150849 2.825782218919425 -0.7670103455747824
I -2.3639308726423396 1.1449893697676692 2.29529601318556
O -0.659054662981811 -2.186203014498026 1.7161996713345777
C -0.5976711214348882 -1.1633332834272267 1.2060244929003414
O -1.9937272750269603 -0.43921796378593075 -1.7627715142309284
C -0.884969487546426 -0.44273516313735856 -1.33635843832703
I 0.5583102454183194 -1.6436793082187486 -2.495160250410115
C 1.50117800415961 0.3541129607941716 0.20086309174008465
H 1.8942601617173616 -0.6581117038584698 0.3112496004753237
H 1.8730281684485892 0.9836429074692269 1.0222714032504068
H 1.8544384074956424 0.7626113631055489 -0.7470235605230269
