18
## STRUCTURE-ID: 64566f82d2cd495fe44efcaa ; CHARGE = -1; SPIN = 1
I -1.967428420073113 0.724661606177224 1.0603961235691997
C -2.8948154823550944 -1.199855919637875 1.3952034371127604
H -3.3720141695045744 -1.1667341664309594 2.365804595658112
H -2.1088703290216673 -1.9456859188212825 1.355804335286448
H -3.6051103855343505 -1.3610450811224275 0.5928862139769142
O 1.2396526779028303 2.4085727195618065 -2.942444975853283
C 1.8208625624946768 1.1884846954447794 0.9567916966996624
H 1.1389423536934553 1.993717814333315 0.6802020669502825
H 1.4602075743977894 0.7399157887212517 1.8811407690632782
H 2.8201088168672657 1.5988796850361082 1.1079179006528628
H 0.8176720409076306 3.1270953383003626 -3.4149506782437737
Rh 0.15574475830274997 -0.6858515602397415 -0.7239345064535391
I -1.9205461443217662 -1.485548105068676 -2.3072456558901155
I -0.07662082421853371 0.8761612914155861 -2.7691748012043647
O 2.9280390761323396 -0.11138420992962449 -0.700987241668621
C 1.8576299281870894 0.13018594363901467 -0.14638322262330564
O 1.0717883916024995 -2.8129855672386492 1.1684944529465913
C 0.6347575745407914 -2.018584354140193 0.44047949002090664
