13
## STRUCTURE-ID: 6456b79be2b6d80ec66cdb40 ; CHARGE = 0; SPIN = 1
C -2.5436613714005847 -0.24496800863913984 0.010957977776919573
O -3.618671278079472 0.09242207088615445 0.08555185645812868
I 2.49968181211131 -0.5669580331485514 1.5589067581657008
C 0.25328724443052353 -1.1458300474893965 -0.8715536105035514
H -0.3850044590917803 -0.9089262088367331 -1.7227069664771562
H -0.26002635100517046 -1.7857670091159568 -0.14842353639313005
H 1.176122199803175 -1.6150842305458966 -1.2086127288287807
H -0.16956752645820816 -0.01760927145551578 3.5914545437508765
Rh 0.5748663076953296 0.6297928569948059 0.2006164853461006
I -0.9041908553525749 0.8816010989197667 2.5048019074044237
I -1.0195371786392085 2.359822608419578 -1.0568654091223668
O 2.5931908991735324 1.3076195736515646 -1.8540293010960152
C 1.8035105568131438 1.0138846003594004 -1.0900979764811924
