21
## STRUCTURE-ID: 6456766be2c3801e1c112999 ; CHARGE = -1; SPIN = 1
H -5.348257092076099 3.7649716337391657 1.2639572138073514
I -4.686277579866305 2.257939784014984 1.0753153477866615
O -3.1569148694304245 3.601152486914519 1.2163582929288945
C -2.888368538490693 0.7341456018156786 0.9308972977017682
H -2.358407028912492 1.1521738789933489 0.09340579975718573
H -3.467875620688729 -0.154574893183818 0.7574149668370614
H -2.475731854891703 0.8657761106535979 1.9139654010149425
H -2.3162116264036046 3.2393630681987933 0.936734389178095
O 4.089872751361529 -3.1511684452068023 -1.6891998869004745
C -1.175339184170603 -0.6831488851266679 0.7789095287914043
H -1.5480471156514415 -1.3525882233380182 1.5275623353260088
H -1.4243216545513733 -0.8400337249466833 -0.24891087111934623
H -0.5332360827327678 0.12576930228467237 1.0525331242353448
H 4.82841448405734 -3.7498513231163066 -1.4630621258350474
Rh 2.654887961907875 -0.7474879212189456 -1.12458179430491
I 1.0758153988031407 -2.1534739198343287 0.3793104788615753
I 1.0469181966853829 1.3114808155142506 -1.3413478640892191
O 4.818946804939684 0.06608907617469141 -3.002478760252565
C 3.924152327279634 -0.17516448093509035 -2.286338066062602
O 4.897555148378578 -2.0246221412258936 0.05953656096217373
C 4.042425174453102 -2.0867478001711777 -0.8299813686242871
