12
## STRUCTURE-ID: 645668dd8651ef67532b66bb ; CHARGE = 0; SPIN = 1
O -0.04756636996980392 0.2898015605167068 0.06190178421208586
C -1.3815289000583024 -0.11415979940244092 0.28441625264335507
H -1.8511699776495922 0.5030600691587329 1.0577396046200356
H -1.4268253328924005 -1.165143203692289 0.5902397269612595
H -1.9093881363309075 0.014981134910342885 -0.6575329971943049
H 0.7220778833762113 -0.23243446392920145 -1.6246759821409587
O 1.085121265744907 -0.39412314597586334 -2.5082706511158106
C 0.7585261165659994 0.1768977098539735 1.2148226887380031
H 1.7536493309427748 0.5153704452965158 0.9358353519331808
H 0.8063519304273654 -0.8620056348808457 1.5593516981599636
H 0.3696546126029686 0.8039339679409857 2.0243668792275065
H 1.121097577240784 0.46382136020337755 -2.938194356044317
