12
## STRUCTURE-ID: 64566718028c5847953ae5e6 ; CHARGE = 0; SPIN = 1
O -2.8231209420691474 -0.09045114949970888 -1.5192828137748866
C -2.2599657452979156 0.3628780894595325 -0.3724608685469782
H -2.2269852721058614 1.4352703684307715 -0.30452689974630875
H -0.4260040038849004 0.1373239893170325 -0.6294651845217883
H -2.3241781589904953 -0.23012667373794132 0.5231594461864638
H -2.958095341619444 -1.047621439195245 -1.4891306743376298
O 0.5359043770996529 -0.0389786352515655 -0.7557302183541522
C 2.9384884324702836 -0.2655540180080794 1.53129313600666
H 3.209128480345472 0.7648648667397276 1.4728667022397652
H 3.35549384026384 -0.9648965642864011 0.8422751805907601
H 2.159394913021286 -0.5732004464138538 2.191618136282045
H 0.8199394207672331 0.5104916124457315 -1.490615942023965
