21
## STRUCTURE-ID: 6456794c47a4c86f157c7c57 ; CHARGE = -1; SPIN = 1
H -2.6937066041056377 -3.1454699119064506 3.805568760013006
I -1.9387220424771696 -0.22417325385363143 1.9874034438974768
O -0.3969893064081744 1.2606723464729614 -0.32371834804258787
C -0.254985270018916 -1.3573183791393246 1.292569129192933
H -0.4472587214480063 1.4284771477839568 -3.965589284020282
H -0.6485898695829171 -2.098235134382729 0.5977722386009678
H 0.35499951601886554 -0.6511020144622353 0.7347052476206156
H -0.2887184331788533 2.096240138813647 0.1368722997744885
O 2.268651168936538 0.9646972909132178 -2.7623052825597583
C 0.49300390879390754 -2.040450876855207 2.3983285340454845
H 1.2880874704831127 -2.651262440035967 1.9747273456042695
H -2.4306346780914754 -3.8726331126915605 3.9052532001714946
H -0.16263037224911903 -2.65392062449393 3.0120707326170097
H 3.225649976379017 1.177805358910929 -2.7035232778515876
Rh -0.3889791603686917 1.3859608832416739 -2.4277747961986216
I 1.446663303238227 -0.6569964232694608 3.7450264330140013
I -0.36476581658190393 -1.197485818369634 -2.5196769816458238
O -1.453757139380033 4.139317659920229 -2.176070796283955
C -0.9791172881615856 3.1026390012931078 -2.315338270635442
O 1.888654973896725 3.032868622903736 -2.0091921922630616
C 1.4831443843060725 1.960369539206612 -2.3871081350506396
