18
## STRUCTURE-ID: 645672b050ba6170d433a74e ; CHARGE = -1; SPIN = 1
I -4.8960352494452595 -0.15024415080588088 0.40288919508160437
C -1.6883642301081738 0.3163606288075238 0.47856715543194167
H -2.1882516358678443 1.2656762315320769 0.659704981429507
H -1.954300378627129 -0.06855768918150308 -0.5077875522985389
H -1.9351262092353898 -0.39647629619583713 1.2593693297226867
O 2.0388616049081354 -0.5153159599487295 2.139364235804296
C 1.247151554418681 -1.0423355878021914 -3.173505328829601
H 2.0181094897020673 -0.2813957912315298 -3.2371292913213052
H 0.29916960680248905 -0.6606052358412934 -3.537824408417453
H 1.5346132369001069 -1.9557441364256132 -3.6828766289592987
H 2.3492910894637613 -1.0492881436777022 2.899192412828257
Rh 0.41146103282129043 0.6107174571327308 0.3868757286846401
I 0.9765030162096231 -1.5494072780412858 -1.0614560160128508
I 0.8379835415417013 2.293030011986854 -1.6147763926030094
O 0.07214541447897796 2.852749728024254 2.304878994165673
C 0.20541944455227096 1.9911361874282734 1.5618437266543486
O -0.03075428067003627 -1.1323066463114622 2.733374299580696
C 0.7021229521547414 -0.5279933294486764 1.989295559058417
