12
## STRUCTURE-ID: 64566514fba7fd30041a5626 ; CHARGE = 0; SPIN = 1
O -1.9566743890468077 -0.5027498956578723 -1.503591094399837
C -0.07429056875378483 0.3693567146667433 1.1708973536909417
H -0.2763059219319366 1.4411905161091083 1.1573215215096457
H -0.9963891204828782 -0.1056127584498876 0.8404599731379099
H 0.16698538550498984 0.012561098923168057 2.168198905078029
H -2.176276229012556 -0.4154111089264568 -2.4322056586503957
O 0.643708776272058 0.013500389691382312 -1.2163194780850024
C 0.9977987918542793 -0.211898980425283 -0.005816016603962025
H 2.1823191097383017 0.2127824978625971 0.18012817156228
H 1.1543018587104086 -1.2460362412478172 0.3398688262637283
H 1.3204055901523117 0.7422130643088752 0.7508599655325443
H -0.9855832830043769 -0.30989529685457157 -1.4498024690358873
