13
## STRUCTURE-ID: 64566e33566e822cfc46226a ; CHARGE = 0; SPIN = 1
I -1.0981922770983459 -0.3013900240738098 2.5303689318876414
C -1.294581416264631 -0.02725825288129029 -0.9425985778297652
H -1.107997666611154 0.6431502955122346 -1.7825419039211055
H -2.1467356065704104 0.340042537973003 -0.3710442536660031
H -1.5340649839666458 -1.0176020844236153 -1.330607655574937
H -0.8605234065875966 3.0539334138254066 1.3837639250920566
Rh 0.42103825190753974 -0.06584876156965364 0.33703777967430076
I 0.37153177506021673 2.738507255703313 0.4294322193424806
I 2.8930589936431077 -0.2160683296260529 1.723617820920863
O 0.22335051895543612 -3.0213384647630903 0.6526131929787394
C 0.2751411843885513 -1.8962761199187543 0.5141506994642966
O 2.3025116456472055 -0.14283616580293385 -1.997426618790563
C 1.5554629874967312 -0.08701529995475348 -1.1467655595780006
