19
## STRUCTURE-ID: 64568e0a2b68172cd1408600 ; CHARGE = -1; SPIN = 1
O -2.841233444786737 1.4647765430867297 1.2255936280333894
C -1.7122311487206416 -1.3011411546303195 -0.6433465075207068
H -1.8735602250090757 -2.3765323707805073 -0.5606271464282493
H -2.4255812414682096 -0.7565532911294477 -0.01735846416426936
H -1.819898872863355 -0.9865711333459497 -1.6828979293464412
H -3.3098472762364874 1.8272172219430423 1.977260625162798
O 1.6194644313483224 1.0304704064728556 -1.4768354791014011
C 1.661759315972266 1.005820880791035 1.8919068878463
H 2.0005317599306562 0.22265091381999313 1.179235618002833
H 1.8776807517154983 0.6684201720514427 2.898710156809611
H 2.195968330343055 1.9218320851991029 1.6734917475937983
H 1.6446159599419359 1.8685227558184738 -1.986619438997163
Rh 0.13921059517373405 -0.7230969654170195 0.08403378398624241
I -0.5518491422291969 1.314360790598537 1.657167181906866
I 0.13809356656561875 -2.474656640759375 2.0030686649742817
O 1.691800771594473 -1.9827310830188454 -2.178510017985178
C 1.0243759884479002 -1.3808753464932761 -1.407719238797513
O -0.10796902416866584 0.45108297249849405 -2.77352513414636
C 0.6486689044489213 0.2070032432950344 -1.8630289378288245
