12
## STRUCTURE-ID: 6456659e4767d20f725b5c2b ; CHARGE = 0; SPIN = 1
O 0.04020212352472991 0.09722928924906556 0.29441948352526726
C -1.2124884302311407 -0.5188714342955065 0.5034523482572766
H -1.7957146033354767 -0.544605605821685 -0.42364598370734297
H -1.784460976961676 0.014306777974133641 1.270550708604194
H -1.0112956910479014 -1.5340580441917544 0.8373959727907521
H 1.3885273940357068 -0.976230580562804 -0.5703434846327833
O 2.1017778537743954 -1.5398644886790116 -0.9055674710359966
C -0.07441088479252803 1.4370066195899382 -0.13417328936941064
H -0.6039883518606849 1.4981953857143018 -1.0912130732756478
H -0.6089346131036363 2.038874962136441 0.6086446455902267
H 0.9382013510974381 1.815534600297914 -0.2516976767584502
H 2.6225848289007825 -1.78751748141104 -0.13782217998806545
