15
## STRUCTURE-ID: 6456b7239dea4033f56aac68 ; CHARGE = -1; SPIN = 1
C -2.3175490018729774 -1.0846264003873853 0.364337444284241
O -2.963910637947647 -0.8798036583783613 -0.5704739980017858
I -0.8149352046779311 0.8931189060262487 0.8858196687025409
C -0.29154423919240924 -0.2544226149234704 2.6687609657689437
H 0.7837017651119721 -0.22773630507962173 2.8133755100430036
H -0.644630551516248 -1.267696189494841 2.5087006536243694
H -0.7941993272721937 0.19995891260727966 3.5148395578102707
O -1.4571937949900855 2.1419681348457815 -1.2569903254605312
Rh 1.059956300500023 0.12425148299371974 -0.8652586623754124
I 2.938442473345961 0.9535696430573433 0.7324837650346323
I 0.20742107131484208 2.8094167458859634 -1.9587098085797225
O -1.0774035162433495 -0.8793592432966949 -2.694436779556848
C -0.25805194054841585 -0.5432301291695398 -1.9625157031035736
O 3.241351258350631 -1.252292734508764 -2.37151455305259
C 2.388545345637837 -0.7331165501776506 -1.80841773513759
