12
## STRUCTURE-ID: 645668aee291a0799632dfd0 ; CHARGE = 0; SPIN = 1
O -0.7813959125807326 -0.26730391259861763 -0.4842207795041408
C -1.5062054313119386 0.5983840712395625 0.3230754499275819
H -1.0438161042813556 1.5894361596323074 0.2612887488732556
H -1.550134986173632 0.2535352213458034 1.3600774699355598
H -2.513229091719719 0.7077301820440383 -0.08144095212253084
H -1.9458466354176394 -1.6259644807675557 -0.9874795846561077
O 0.81417953690989 0.432890238913154 -0.507707174091935
C 1.7134539636502233 -0.36274262954219955 0.24818827894295029
H 1.6720776308827736 -1.4114707948818674 -0.04461674105029981
H 1.4450675421885366 -0.2614170860915777 1.2980112968921613
H 2.717359233192302 0.03509973400668366 0.08152009338447717
H 0.9784902546613028 0.3118232967002722 -1.4666961065309807
