19
## STRUCTURE-ID: 64568ebdd2e271417d333be0 ; CHARGE = 0; SPIN = 1
H -3.8425009667637013 0.35377785471979606 -1.2750834276050385
I -2.9960240220307104 0.9135659322397804 -0.04900899222338879
C -1.9686653931847382 -2.1583102524943203 1.4521984426477346
H -2.3251999052432524 -1.679310956811324 2.363894284869344
H -2.8103939538021607 -2.539339540237392 0.8694260601866297
H -1.2867140984713785 -2.976277620926374 1.7014013955776786
O 1.305659797378642 2.2936558788550436 -2.698878663988891
C 2.2902506938011817 1.9524621845712375 -0.1846670094344938
H 3.3113530945578384 1.7745058854746427 -0.4979785319658912
H 2.1516036891946495 1.7087781155208501 0.8616029690153618
H 1.9938867844448689 2.969058914232451 -0.40708939714409986
H 0.9520258841756369 2.1326583649008075 -3.5774135420404014
Rh -0.9282692806613809 -0.8205736023596942 0.2421435811070493
I -1.1464782866060854 -1.983622384116346 -2.152082366521225
I 1.0438801133056896 0.6992710705967488 -1.3491047339464535
O 0.8509849471736604 0.30956201580378717 2.4376821446034467
C 0.30222911413514036 -0.2901877636483199 1.5805474524025338
O 1.9565124515253476 -1.7716453587664647 0.35873272628731573
C 1.1458593370706902 -0.8880287375549674 0.32367760817262026
