18
## STRUCTURE-ID: 645670ca37b87268336aac6b ; CHARGE = -1; SPIN = 1
I -2.9620914230646425 3.0349192327869505 1.3375403086025521
C -3.999488258813876 1.161387309804978 1.3718349335921973
H -4.742536852986188 1.2089328633781538 2.15641953057667
H -3.2639003741079566 0.38953745161406733 1.5588148575825256
H -4.453861306468674 1.0218897450606435 0.4008567486445174
O 3.122137174003399 0.06255856365921501 -0.35138518744787234
C 0.46711518722897943 1.7447596916290624 -0.9284719089721628
H 0.08018518773806012 2.638648741452787 -0.4560969992163134
H 0.28947457701198015 1.742002863089922 -1.9970917560786368
H 1.5201241125166833 1.5965112630158378 -0.7077095815864966
H 3.595613267918515 0.2651272193443953 -1.1647267981958367
Rh 2.0404436310221317 -1.6960216412527667 -0.4775649107893924
I 1.8930297852523426 -1.4453059287719108 -3.0903880771245738
I -0.560634585387908 0.05214619970525709 -0.09723046762487636
O 2.657544996664897 -2.143988262918912 2.4141565465270407
C 2.412846857963103 -1.9578202391155926 1.3021202523504207
O 0.7132584604864469 -4.362942296063589 -0.6786738616068445
C 1.190739563022744 -3.31234277641853 -0.5924036292329338
