12
## STRUCTURE-ID: 645665e5b1015c4dec6cdb48 ; CHARGE = 0; SPIN = 1
O -1.872311031209091 -0.561508164349028 -1.3408940688405364
C -0.5094474921073432 0.429226366979423 0.891440255419705
H -0.38384369456516887 1.5049480331368736 0.8026967921261607
H -1.1652209645369738 0.05225221103889885 0.0334076677268822
H -0.951158297293647 0.1592762472652306 1.8443226232475898
H -2.8200979387123177 -0.6096643036850976 -1.1793921051719851
O 0.7551892443915478 -0.2678532261153732 0.7753487754824762
C 1.2979364601080692 -0.20553198106617143 -0.5607755262880738
H 2.139526720602592 -0.8919995957862499 -0.6111206496202501
H 1.5969008587343927 0.8076400294563231 -0.8256756020252006
H 0.5055151048874619 -0.5312149200685405 -1.2358031405829433
H 1.4070110297004892 0.11442930319368097 1.406444978526118
