13
## STRUCTURE-ID: 64568b271663d52bde62318d ; CHARGE = -1; SPIN = 1
I -1.6766153007618005 -2.285014596393183 2.232890514457628
C -0.18541282976931941 0.7721452842352888 -1.1759175248796299
H 0.04449255083788734 1.8034908408951922 -0.9133986070956157
H -1.2167972242155856 0.7562334488137946 -1.5797349289160676
H 0.47280954692108834 0.43996484262464663 -1.9771221449076624
O 1.8330532339082606 -0.8314650760958352 -0.31113101051371145
H 2.7677473924807106 -0.7077704919918809 -0.05596161475982911
Rh -0.8074208823367207 -0.6476812903519149 0.341488257195154
I -0.7721504151583662 -2.5349496182494855 -1.481860282900907
O 1.4661015288913593 0.956316046987082 0.9750220978099966
C 1.029479549806874 0.08046394663143212 0.2531638647711188
O -1.6694384659935038 1.5076898508461662 2.20171691097244
C -1.2858486846108739 0.6905768120487249 1.4908444687670568
