12
## STRUCTURE-ID: 6456685b55c5e557ee39082e ; CHARGE = 0; SPIN = 1
O -0.37088151698563915 0.7626893317861817 0.19696109295048359
C -1.16553101655861 -0.2462526824129497 0.8673804610567459
H -1.8105858188495516 0.24193333181547869 1.5936937378312697
H -0.5361700722938451 -0.9768412611066749 1.3720012140910656
H -1.7743439621967807 -0.7318346368086435 0.10862184273742266
H 0.09047460052233723 1.3167793667764403 0.8592893471920524
O 1.2364268352733188 -0.6965441950263057 -1.2067505320986398
C 1.4503792712834953 -0.8623952223795365 -2.3811715801631608
H 2.1271684538763127 -1.6472974812342984 -2.7322369855749153
H 0.9818721578569563 -0.2426735494332554 -3.1549882855687432
H 0.31191995948637574 0.2749167538922538 -0.41949950307599665
H -0.540728891414375 2.8075202441313185 4.896699190622418
