18
## STRUCTURE-ID: 64568a89c117da5f994dd530 ; CHARGE = -1; SPIN = 1
I -1.4702039513918062 2.5452072373054477 1.2619480215986292
C -1.5605013725560646 -0.8507401207102688 -1.826180965106836
H -2.5712840595555977 -0.471924480311746 -1.577665523579398
H -1.3754044509596681 -0.6256590700664816 -2.87608198510995
H -1.5841871874642017 -1.9298483230956656 -1.682538233862812
O 0.6605069005633335 -1.9391747903380454 -0.8036611585862937
C 1.5212216844167445 0.6359911222559633 3.206950629662287
H 2.3829932059743566 0.8387456068873683 3.8288803922558614
H 1.1095116709071746 -0.3480082185913983 3.399377396342808
H 0.7598642240866301 1.3994039584730773 3.3240270493231194
H 1.465550175808015 -2.3389820345329313 -1.184307114633117
Rh -0.7570284024242935 0.45281112032214516 -0.28615316505336447
I -1.4887555223279576 -1.321724693941411 1.532912695498941
I 2.1806429687103877 0.6790357787988215 1.1423404075961154
O 1.0477526252381502 -0.34187598575879286 -2.3005567381000382
C 0.35810986922159505 -0.778129965613568 -1.3921837401769148
O -0.24878162129066217 2.6212960136814973 -2.2614619524690966
C -0.4300067569561521 1.773576845235983 -1.5056460155999452
