16
## STRUCTURE-ID: 64568cf263f83c1a2a7cab80 ; CHARGE = 0; SPIN = 1
H -1.1680017704404455 -0.8577671927421293 -1.6437218368318802
I -1.100659159743 -0.32219628356544877 -0.1376245680080794
O 0.5212581605368323 2.0794034900544007 1.1815091590263374
C -3.3151243818626748 -0.752630777500619 -0.1996621043631104
H -3.7377301408561627 -0.14320643136688807 -0.9903290183731965
H -3.7123010640388254 -0.4732169902953127 0.7688400782957704
H -3.4291832013064996 -1.8151331019536503 -0.3817725266745402
H 0.5014248085325511 3.055859691128646 1.2430653798406353
H 1.8704243819124564 -2.681982663911528 -2.569652783488047
Rh 1.6525528200073045 -0.10540032971587342 -0.22735029302775986
I 2.033037785305526 -2.6297720267143685 -0.9813521651603538
I 1.5136935803551004 1.0045455373939027 -2.6242410497823387
O 2.7552449276604287 2.267995612841605 1.0976742477644708
C 1.7507686943556955 1.5745485027910948 1.069156991323737
O 2.0263336741967137 -0.18188835039217074 2.777663807431662
C 1.8382608853850215 -0.019158686051646247 1.6177966820267358
