18
## STRUCTURE-ID: 64566ecc78b1d6236f4975b3 ; CHARGE = -1; SPIN = 1
I -1.0790776505788915 2.9848003233612403 3.374094394883246
C -1.479950135187151 0.7020687707999358 0.16176456949498438
H -2.1766824919446894 0.9349764250165254 -0.6307157532205089
H -1.5966153982319418 1.4243059619861012 0.95634918831007
H -1.5410262150743161 -0.3162273165505542 0.5222250048799487
O -0.5632049233999122 2.243281958950743 -1.8928809308267907
C 0.5472388083331279 1.3965391208058389 0.37866686255073667
H 0.13337921393391383 2.3897781191438185 0.41254860092915163
H 1.5811911078148966 1.4749442180612617 0.05425909650045518
H 0.5051156313280535 0.8609042637146563 1.3136117164974026
H -0.45705424991337934 2.4750737118918296 -2.8136745540029633
Rh 0.8141902079163715 -2.1273132181214343 -0.5964701440076023
I 1.0978175135101527 -2.447482287821566 -3.1261017418117456
I 0.13291793227799975 0.2029779881110077 -1.5610932558461181
O 0.4830839979212324 -1.6355687737244162 2.3294294643577693
C 0.5928250776390368 -1.7633308048123557 1.194116504966373
O 1.663254929660874 -4.929348023001771 0.09341476840822915
C 1.3425966439946242 -3.8703804378108546 -0.1695437920626344
