12
## STRUCTURE-ID: 64566b7fe1ec722af65c0b0b ; CHARGE = 0; SPIN = 1
O -2.9544413822425692 0.5115195906270479 -0.22990372050811214
C -2.1773949686318788 0.696727390544141 0.9331117798205175
H -2.2630612916454123 -0.15679963838042524 1.6123677745018827
H -2.566878977222825 1.584044441546739 1.42941039432898
H -1.1230345938423623 0.8585634193154521 0.6875965779193866
H -2.6446656246959432 -0.2785722348378863 -0.6883872587464677
O 3.171539112632002 -1.0104349738604999 -1.0318562778957037
C 1.9494632318768264 -0.5624899773574233 -0.4884254987851551
H 1.3330566672056403 -1.448052673716454 -0.3435818326426239
H 1.436505057550796 0.12376627706071479 -1.1694102878340298
H 2.0973883616732096 -0.07001811849303324 0.4778800467902297
H 3.7415244073425145 -0.24825350244836805 -1.188801696948914
