18
## STRUCTURE-ID: 64568b6043a9b1450d29341a ; CHARGE = -1; SPIN = 1
I -3.609952332324433 0.33343277169573204 -1.9666233415460475
C -1.2795606060226274 1.6984486669888132 0.123592959349506
H -2.085623395839892 1.4336652312480629 0.8138431453374178
H -1.5360300570798482 2.6425362317662557 -0.3663678460437244
H -0.33907168346992994 1.8250114319684325 0.670410925681006
O 1.984966147219918 -0.5404932685654004 -0.03044327425984204
C -0.07226540141678672 -0.6959494784406905 2.5701958746298934
H -0.7884155160663712 -0.06053110774532409 3.0776051602561525
H 0.7288879188118432 -0.11671550750928134 2.1277269703843937
H 0.30487192461311247 -1.4730439742856831 3.224219119302635
H 2.913244327969077 -0.5652949223562639 0.28025234900684765
Rh -0.9957932086952018 0.2201099208267731 -1.2785378213180778
I 0.8389886211016749 1.8524738565337555 -2.5265775839663744
I -1.1199711481584678 -1.6830077918586643 0.9318295137518752
O -0.031190065855344597 -1.57585169112472 -2.6679001857401548
C 0.45300112820264693 -0.8908145352292391 -1.781183584534432
O 2.7720398442486625 -1.4201568533492217 -1.9343880194052816
C 1.8618735027619844 -0.9838189805633458 -1.2676543608858293
