12
## STRUCTURE-ID: 64566674e9bbcb59333288be ; CHARGE = 0; SPIN = 1
O -1.5292870871571738 0.7885339207092661 -0.575632777210762
C -2.1273853523137367 -0.02048121282356468 0.4088860683084318
H -3.146405293779997 0.34094086265030094 0.5432238402183719
H -1.596817932825811 0.05370955205669061 1.364418950518129
H -2.1588543031595315 -1.0701082865552818 0.10038190303563886
H -0.6293157189529084 0.44994849827607936 -0.7369715923844502
O 1.0882381237967376 -0.2836080365808982 -0.915750563527945
C 1.9753711190469578 -0.08023485305910352 0.1663255466746679
H 2.2850329685591713 0.9661714248592796 0.2359863570428474
H 2.8596948840999534 -0.7163096288556938 0.07817828821896647
H 1.434319868451113 -0.3513707328863295 1.0710945065356285
H 1.5454087242352335 -0.07719150779074795 -1.740140527429531
