15
## STRUCTURE-ID: 6456b7d6e020f151f956edd4 ; CHARGE = 0; SPIN = 1
C -2.766390847409728 -0.16867359454504288 -0.7474861082722307
O -3.7665049599020834 -0.4448333498878829 -1.2169254026511303
I 1.0569761392401726 1.4761349207712615 1.1022897693691383
C 2.6861342310538245 0.11699757911402262 0.6206486249649961
H 2.262286194299391 -0.8749173112402122 0.4874741333749449
H 3.3821488987779 0.14107070100890173 1.451703217806772
H 3.145736973753895 0.47723233687757227 -0.2942059959772162
H 0.6788749086944548 1.3323813369573092 -3.1978753508316444
Rh -1.1555238656815265 0.4016797106070227 0.005332541851262651
I 0.5135698560722196 -0.1416726520577869 -2.65089687964115
I -2.0781975649778666 2.7859070742250593 -0.8194803809720109
O -2.185594772930633 -0.7383321326906604 2.5358956606032033
C -1.4779044509547365 -0.8251575879333544 1.5795720640806055
O 0.2568381989332017 -2.1966201751264403 0.4437147378646211
C -0.5524489389684407 -1.341196856079698 0.700239368430002
