18
## STRUCTURE-ID: 64566ebe2a2a7d35e628a824 ; CHARGE = -1; SPIN = 1
I -2.037831631479949 2.8820540713765457 0.41486214224402096
C -3.6524563496711253 -2.235452159399769 -2.395895760192854
H -2.9160225465148684 -1.5700985709187052 -1.9612165611788694
H -3.626618368405068 -2.146824730831853 -3.4738403560588336
H -3.4340985406371343 -3.254549905185095 -2.1061063878967907
O -0.023918344823056686 -0.9680156994021052 -1.7655715401323693
C 1.0837728073946833 0.3119709675603784 0.6952727714650816
H -4.633434209122768 -1.9570947180650986 -2.0339013801133783
H 0.21787829006043175 0.9248492696187607 0.4193749889533396
H 0.6734462058895402 -0.6123657654369473 1.1255000387543186
H 0.04099282724340812 -1.4578721449609182 -2.589125821004174
Rh 2.5395131940031805 1.3038288630169748 1.7989508676399795
I 4.326490609541434 0.65367990293309 -0.004514478696841393
I 1.774995686383035 -0.33843163349289934 -1.2190875320010377
O 0.29013867159225504 1.8027963258439523 3.696144607744438
C 1.153514421303251 1.6318348646330623 2.9687444228361346
O 4.46163770837783 2.8040693520858353 3.559578838050053
C 3.7619995688648307 2.225621710624873 2.870831139587769
