12
## STRUCTURE-ID: 64566481eba1dd2e6c2c50c0 ; CHARGE = 0; SPIN = 1
O -1.3265609846306459 0.7156892924760012 -0.36025261817466697
C -1.1058582861991357 -0.0776496933614034 0.6091507102379428
H -2.909670291756712 -0.5680452895999678 1.2243981275664035
H -0.9233937607589451 0.24777104882927373 1.6201334447338607
H -0.9479873092436522 -1.1145475532950087 0.36451924291506055
H -1.4709812286058441 1.6508293703560555 -0.11206808346902367
O 1.1101876980302412 -0.018127209933539796 0.468722384123091
C 1.4623867976256182 -0.34657040091071234 -0.8649527147485204
H 0.9156369546094222 0.2740274819955868 -1.5794248276938057
H 1.1899998571054125 -1.388404951572174 -1.0187980472001947
H 2.5355767096107478 -0.23268364001505937 -1.0214797252618357
H 1.4706638442135023 0.857711545030937 0.670052106971684
