21
## STRUCTURE-ID: 645676884b8de25d274609e9 ; CHARGE = -1; SPIN = 1
H -2.3290302865120043 1.430138838163972 -0.8575137000757937
I -1.1135788248763516 0.5300527051094384 2.0970555867660803
O -2.1474007112852855 1.1132747644213346 -1.7455929735748075
C -2.144711948940278 -1.8159904356349832 -0.9698314443403503
H -2.83154635075399 -1.0672328155023876 -1.3493679113969925
H -2.118781219936818 -2.731459528707533 -1.5453506876012086
H -2.2958396739919587 -2.0230556201854752 0.0899672597127033
H -2.191558263992338 1.87144753803594 -2.3325841620754706
O 2.0035165551150995 2.655570571314931 1.0846710629870449
C -0.34450963478262076 -1.1992590623012451 -1.814620525579661
H -1.091450776912116 -1.2695268533468704 -0.835945614182345
H 0.2195046780594795 -2.128371870252939 -1.8564204802529372
H -0.855886923868012 -0.9034555656220792 -2.725411056559769
H 2.233051278642988 3.565328293167597 1.3506350323761227
Rh 1.4479424982124451 -0.028709929297741847 1.7671326830317793
I 0.9482039986919406 0.43069224152240515 -1.223086879017378
I 1.0444035825130362 -2.639517166309559 1.361844384180047
O 4.40488358586825 0.09106168850900699 2.1050031716751345
C 3.2553436867436463 -0.07731408837061976 1.9101912160305645
O 2.053036965612636 2.361540656937486 3.2965658323701805
C 1.854407786392139 1.8347856383492975 2.1926592055272818
