21
## STRUCTURE-ID: 64567c51ee965b4b4c4efcad ; CHARGE = -2; SPIN = 1
O 0.7894019081295648 1.532353279565942 -1.3963171853967935
C -0.5783997248687583 1.7364100756806313 3.036829572970807
H -1.15051020384197 2.205338099592909 3.8276802798163607
H 0.46480514805572176 2.0301184954305467 3.0611103478417454
H -0.6622747053625304 0.6559742940498643 3.0713483964543964
H 1.1419566791538427 2.2824076700687135 -1.9242589473408953
Rh -1.5762028269113384 0.5551885356787287 -0.7641575319315542
I -2.803610873339866 2.309760604966728 -2.266453830906586
I -1.4190055603695402 2.3731560345907816 1.1452064105708313
O -0.8766982923719048 -1.3537403503897032 1.296751848083859
C -0.6260148008998153 -0.7475927046578892 0.3024235341427531
O -2.5575596001652285 -1.987994093396414 -1.972887275355565
C -2.194054230510203 -0.9584968630385143 -1.572304130162839
O 1.2653261767619133 -3.2800800275372937 0.2849288749988054
H 1.5982205174875017 -3.355464154244089 1.184741774112313
Rh 1.284496502954991 -1.2131184171618847 -0.428111235385392
I 2.551747596939237 -0.3212981536265254 1.650855705367641
O 0.3087624334209319 -1.9009785886470167 -3.1570563376531386
C 0.6397176852903121 -1.6889507571449947 -2.064762711590955
O 2.7281575109261658 0.6313571232521572 -1.9632835210112873
C 1.6717386595209547 0.49564989696727196 -1.3522840376245393
