12
## STRUCTURE-ID: 6456673f40779f139162319b ; CHARGE = 0; SPIN = 1
O -0.8400418325555622 0.17938242361129525 -0.6653302253401739
C -0.8878477710645908 0.28236961513693337 0.7794400281395619
H -1.844983502089852 -0.1073960603250522 1.1091230859166075
H -0.7362078961579136 1.304531042297292 1.1150363577751772
H -0.041818159447715976 -0.36066387743455636 1.1598985609848715
H -1.4163096202039593 0.8666097592200378 -1.0710535501633531
O 1.461151901782823 -1.2446984585208467 1.2297749697880012
C 0.5057463937588107 0.30881936711679514 -1.1793109731777394
H 0.8703836886048939 1.3306935941720663 -1.1017311002076196
H 0.5039189595523458 -0.036334905423579825 -2.2090199466947533
H 1.1356615382786086 -0.3435187575765752 -0.5543069282045119
H 1.2903462995420627 -2.1797937422737808 1.3874797211839842
