12
## STRUCTURE-ID: 6456685cf5f544666533a754 ; CHARGE = 0; SPIN = 1
O -3.4434415291169844 -1.479936310457963 1.3189589800667985
C -0.1977366481859552 1.3520563876003038 -1.4858178879628374
H -0.6820804677947981 2.3048072174612573 -1.3967147812242644
H -0.4352679769749835 0.7615178081316633 -2.354738981491968
H -2.5741842636272207 -1.4557266712876265 1.7276252983854707
H -4.074297675628329 -1.6823571888254913 2.0148310879103097
O 1.3112197594012232 -0.2493471134439957 -0.5634321440730427
C 0.6466300364600791 0.9310586032569349 -0.5605399096560986
H 3.447537315561387 -0.6330414669095944 0.9137950916876832
H 4.039454497934367 -0.6012519069871838 1.4185657425606804
H 0.8937317628987802 1.5128211775199685 0.3166866497066649
H 1.0684351890724384 -0.7606005360582914 -1.3492191459094174
