12
## STRUCTURE-ID: 64566db4ec0af14f1673b9e0 ; CHARGE = -1; SPIN = 1
Rh -0.4922499173865955 0.1880473094035854 -0.4090767790354906
I -0.2929084426286279 -1.468525753723084 -2.504765890636144
I -1.824015169647515 -1.6741073386838847 1.3608382724866603
O -1.005447489578428 1.9982523502508045 1.901435871929025
C -0.7990826032815244 1.32447468791389 0.9967345556072222
O -2.6590903861429305 1.3048814488300293 -2.2000047737472777
C -1.7995961594893073 0.9890546432140614 -1.5101369439482992
I 2.020135249465934 1.288480247346122 -0.8115673150539152
C 1.6333003384798332 -0.800648362446459 0.6441395027122319
H 1.2086307364555402 -1.7264844253919 0.2609252860930493
H 1.301010495322629 -0.5331741714861512 1.6426341640421798
H 2.709313348431001 -0.8902506352270185 0.6288440495507719
