12
## STRUCTURE-ID: 6456687e6b0e9f1ca3092928 ; CHARGE = 0; SPIN = 1
O 0.015640876620087958 -0.024644111542409194 -1.4925761511924664
C -2.3392267717340123 0.07340133500821751 0.9821880997127547
H -2.2346766847988824 1.0249762194914505 1.4867794093867222
H -2.1223213198525337 -0.7295333990675312 1.6743140661079292
H -3.3522416786439755 -0.03005764498628951 0.6160431246967073
H -1.6538169133247775 0.026356712026747935 0.14348825012697825
O 1.452692017743316 -0.0675255609233091 -1.5434127210594415
C 2.0339924343898503 -0.23320001209429092 -0.22580595335865414
H 1.6987155910054794 -1.198530382243463 0.1491694150391429
H 1.7117683131096326 0.553547097992132 0.4555731636949346
H 3.113417051450396 -0.22953033676891346 -0.3676756694666556
H 1.6760570840354343 0.8347400831076354 -1.8780850336879666
