12
## STRUCTURE-ID: 645664a37f0bc612642a1578 ; CHARGE = 0; SPIN = 1
O -1.4665132684764668 -0.6204123218239161 0.2407522454963787
C -2.023919787451187 -0.06898765635000464 -0.9327848734770559
H -2.0598170323142897 1.0233033459886534 -0.8823099058145311
H -3.030029608022433 -0.45648486873507116 -1.1181176796877768
H -1.3736986288868278 -0.3638452586156161 -1.75473138167559
H -2.020392132247569 -0.3780266348276845 0.992670567518332
O 2.342474198373502 0.5211683447527463 1.5327819304399442
C 1.9190774364094398 0.20218385807854722 0.2224350406309848
H 0.8935444415966336 -0.17586274143898492 0.21331864470574216
H 2.5827069394678865 -0.536525148318914 -0.23806548276414696
H 1.965669473367323 1.1251221593739318 -0.35308972797636123
H 2.270897968183991 -0.2716330780836917 2.0771406226040687
