16
## STRUCTURE-ID: 64568e01564e427af45b5c1a ; CHARGE = -1; SPIN = 1
H -0.7730709631424668 2.629616926064539 -0.2729569669608278
I -1.3223328272759012 1.0583698643049662 2.241853868155057
O 0.23896369441367715 -1.933727198656291 2.528606672129648
C -0.9476696192200579 0.24053324469457357 -1.174110794258472
H -1.6397365384507312 -1.6604579166000208 0.7513203627731498
H -1.9372420097350784 0.5980382221373729 -0.9077867330447302
H -0.934287933097753 -0.5490698112647702 -1.9177285186555193
H -0.04665022420539638 -2.851034474081263 2.468897802374646
O 1.1117010333089605 0.9644543080523147 -2.0525054218883443
H 1.695777560609851 1.7458612280911487 -2.091912961919559
Rh -0.2612275638372395 -0.9029213729773933 0.7755510446743995
I 0.8625644779839162 -2.8457725253409585 -0.6844335516054314
O 2.481115178121547 0.05245815038369992 1.4507921308436968
C 1.433749432187138 -0.17978508629741857 1.0420519535606427
O 0.000718545113083851 2.4299341960024443 -0.8297902195312479
C 0.0376277572264206 1.2035022454870596 -1.3278486666471176
