18
## STRUCTURE-ID: 64568ba1b73ada7b394f7340 ; CHARGE = -1; SPIN = 1
I -3.3363448550187864 0.1998742736207246 -1.9192556318052103
C -0.7939142622769374 1.7296523897924783 0.8224513671429341
H -1.8912213390854316 1.6360728723921951 0.7908362519502234
H -0.49311014044932855 1.4514808390660159 1.8307437077795854
H -0.5471768543932569 2.7764675650300936 0.6490475152566555
O 1.3521610311411525 0.1010362545884018 0.9939079978694554
C 0.5655259966230332 -3.0014176318507544 0.9467191869556493
H 1.2037144856716158 -2.5077283748701915 1.6693921321952947
H 1.0490000781515159 -3.080472611404086 -0.022170813887817897
H 0.22757241635215103 -3.9691423230117335 1.2990191664543838
H 2.2866800907876264 0.28043296975898685 1.2101943775074646
Rh -0.6820379049936358 0.34088809562384403 -0.9436033762795466
I -1.198638836778029 -1.7653699703556776 0.6852011442518735
I 0.6902045000742714 -1.2642901228560033 -2.6857803757357988
O -0.43479250222705806 2.49200240406707 -2.963465737548104
C -0.5210065757787268 1.6800956229769246 -2.155086746316678
O 1.6322454317634487 1.8916735439538286 -0.3069682290955919
C 0.8911392404363514 1.0087442034778646 0.09881806330524412
