12
## STRUCTURE-ID: 64566a13bab2c45052351d70 ; CHARGE = 0; SPIN = 1
O -0.8502919616044717 -1.4191631103698625 -0.8247786683321774
C -1.2970931260755802 0.35434778160587427 -0.033123257485240275
H -2.2502062361459703 -0.15251920422710424 0.035003480936885545
H -1.252525802312214 1.1335486746365848 -0.7727307110712895
H -0.9140640130714699 0.6218769979521466 0.9369026301722592
H -1.157949601478102 -1.3472327604631358 -1.7356509193684253
O 0.7637538713276839 0.25630857602666 -0.45864192882311833
C 1.5417104266653878 0.3515704740827973 0.6657291248353625
H 1.3788871385185961 -0.48437670572513214 1.3661991279615868
H 1.3578240489582967 1.2955117342798885 1.205324204713743
H 2.60379349228774 0.34289027607314027 0.37881416173783494
H 0.07616176293011064 -0.9527627338717929 -0.7630472452774162
