18
## STRUCTURE-ID: 645673757639c016a809292b ; CHARGE = -1; SPIN = 1
I -3.019535127783362 1.1840264436048236 1.5915974648228042
C -1.4047736230816987 -0.007631435948567096 -2.066551114191836
H -1.7019455479935437 0.4995931981055341 -2.975541072736009
H -2.251548821075779 -0.16083261858187947 -1.4070771130910729
H -0.9045640684467595 -0.9460167760882316 -2.2815153259958882
O 3.4045026373234384 -0.15393889013792686 -0.33793316983626914
C -1.4384192955451 2.3131424438880424 2.4811158265545195
H -1.878371730298742 2.97686321237449 3.2126772385774
H -0.754040012242929 1.6143426867067554 2.94558395710571
H -0.944687214884398 2.862490971417133 1.6894791490407963
H 3.6350364793232566 0.3169985185965677 0.46913839190915013
Rh 1.6983781568612233 -1.2728236908621202 -0.15237970269475518
I 0.0068618062803336224 1.255842099618994 -1.0387505737207468
I 1.505484605540166 -0.6710115313656392 2.3993491594852374
O -0.6308786149406582 -3.120227459396378 0.12906438552769595
C 0.2518420820065486 -2.3784366003913764 0.018478284516825535
O 2.344323006572919 -2.382568240110024 -2.8529194255930355
C 2.0823352823850794 -1.9298123314301654 -1.8238163596805281
