13
## STRUCTURE-ID: 64566beb2fc67114ee6dc16e ; CHARGE = -1; SPIN = 1
O -3.805719546453276 -0.8131578406419472 0.050556124114976154
C -2.7298859450501993 -0.9541753251695144 0.7066980789248739
H -2.355615611541619 -1.9356120681827218 0.9842931933146096
H 1.4479708385099392 2.627528840134714 -1.6168941732931061
H -2.4461080947697824 -0.10935874136850396 1.33041325828135
H -4.119625869695287 -1.6098068528876475 -0.4314409314358882
Rh 1.5395989810863309 0.41633454863158004 -0.06883749309101647
I 0.27502749310711416 1.4294313713235218 1.942003156621356
I -0.6301027311195756 -0.6347397325217482 -1.0351216169820239
O 3.206510138905917 -0.7366059521894853 -2.252528164714357
C 2.5411474087055317 -0.35941518613651324 -1.386686193702529
O 4.007721160283154 1.6031059425332035 1.096631648708937
C 3.0690817780317787 1.0764709964750423 0.6809131132528632
