18
## STRUCTURE-ID: 64568af427c53f43984d3030 ; CHARGE = -1; SPIN = 1
I -1.8435301307506708 -2.8412578103307937 -0.5135351948098759
C -2.3054983774376248 0.5078642188964956 0.282093545248574
H -2.9458134260797237 0.2413274749888644 -0.5582881355577126
H -2.1940225743795647 1.5923441856284901 0.31902213802062557
H -2.8130869992879677 0.1936503884714454 1.2094483752581964
O -1.049331329869747 -0.06653414784493192 -2.0941825383342563
C 3.0870834774746596 0.6692935614094044 -0.3030528824217843
H 3.479871530045545 0.7356192181727434 0.7044753891191077
H 2.294091278720615 1.3949570688148285 -0.45337905423202524
H 3.866418891929147 0.768756570157807 -1.0477813374310538
H -0.7790907857700577 0.46316875814571007 -2.869047646142387
Rh -0.5763484145238545 -0.7399889674298394 0.6284786654785167
I 0.3457075004336057 1.1017139576194939 2.3739003951223525
I 2.207822423165056 -1.2911695022065415 -0.5383380983818085
O 0.0330056089587188 1.5117774946038205 -0.9781747032857531
C -0.6137034901373136 0.4758243177971809 -0.9448783936970906
O 0.008843204029026868 -2.740713321881129 2.807371597915998
C -0.20241838651989547 -1.9766334650130692 1.9758678781303984
