18
## STRUCTURE-ID: 64567086cb8b913c903ae5ee ; CHARGE = -1; SPIN = 1
I -4.906325141303834 -0.29447541011636313 -0.028973737356192724
C -1.6723440227231154 -0.5473055399310903 0.21324680287859754
H -2.044220875038369 -0.09366332201109225 1.1267735202023956
H -1.8963998739223198 0.07280547814412605 -0.6568604195470165
H -2.095151843106767 -1.5418017742009071 0.08468048516053871
O 1.821013695184779 0.07928395449744535 2.3924551421681
C 1.3650009094361675 1.915910797407164 -2.6746654941638903
H 0.4795697106187575 1.5739915785451457 -3.2000442344100613
H 2.2041640777946694 1.254989044192441 -2.864545505768462
H 1.5982979438772829 2.948123927600673 -2.911771825936004
H 2.0199613493088586 0.41111599099048807 3.2920705204063334
Rh 0.44618021373662803 -0.657057424957666 0.2587607648513293
I 1.1824041622005212 -1.7364114043104484 -2.0457801151210555
I 0.9235315673093379 1.8369886026932585 -0.5322571376857144
O -0.3367213000837657 0.3790450201373581 2.9137376409109286
C 0.5047553332843144 0.04216607557085918 2.11743371382462
O 0.13911394554560622 -3.337994585372736 1.4975093489685913
C 0.26717014788125043 -2.3057110088786463 1.0182305306169432
