12
## STRUCTURE-ID: 6456670dbcc27f6c5d750efb ; CHARGE = 0; SPIN = 1
O -1.1806193105762093 0.002624227006258322 -0.2649060065463428
C -1.2241024875089588 0.5196783596908762 1.0802015640351081
H -0.9301808760482103 -0.22848448255917667 1.8168281381660822
H -2.2545072745097783 0.8420902648458557 1.236428449930527
H -0.557250131918326 1.3793445372346993 1.1399872300065654
H -1.7751988182999634 -0.7934116033204622 -0.35114833290002223
O 0.14047246920495543 -0.5889376483436564 -0.5973279959267885
C 0.9478182202907526 0.31912683887874216 -1.2847866244608546
H 0.50163551374126 0.6214323421446509 -2.2345111761505456
H 1.8414658477569488 -0.2795448711082999 -1.4702059554443485
H 1.223959287478643 1.1810708034958732 -0.6740814416366148
H 3.2665075603888645 -2.9749887679653635 1.6035221509272404
