13
## STRUCTURE-ID: 64568c77a40cd56e17333be0 ; CHARGE = -1; SPIN = 1
I -2.2297571965005027 0.5777506362900159 -1.3370475727812687
C -0.7800655911445504 0.11077632867941602 1.777674343709983
H -1.7825841033626677 0.5124357444319926 1.9267109837296712
H -0.16130060687977885 0.30455831343130263 2.6541546025961864
H -0.8688798847946241 -0.9846037308042472 1.6637997124424326
O 0.9986212533217989 0.04612585164838864 -2.2163975384321817
Rh 0.11370239225167962 0.267181544155001 -0.17437281243324237
I 2.5406083369195303 -0.049266711507911634 0.7998802185611963
I 1.4518522067142134 -2.242135950929752 -3.915611308166523
O 0.3275246644117577 -1.835653157512413 -1.2686362998267091
C 0.8155519729017583 -1.1675776101450515 -2.166120114758149
O -0.2632954883304184 2.739891384949816 1.3897730404439381
C -0.1619779555081425 1.7205173573134902 0.8661927449146837
