17
## STRUCTURE-ID: 64568b62ebbe331bbd12b08d ; CHARGE = 0; SPIN = 1
C -2.3265712638369123 0.2922142557095592 -0.22265374710668293
H -2.2935386729265126 1.0170057569557425 -1.059572872254453
H -3.0178352495441216 -0.4980031702959394 -0.5059659279780991
H -2.710493527323584 0.8346845397228364 0.6407354126515616
O -1.6963665606711527 -2.123570111415906 0.6305896931257373
C 3.609807295992174 1.3041804566590336 0.09748926985786956
H 3.3589964823435254 1.400014509121046 1.1481652294118931
H 3.326904636964969 2.1953677771648255 -0.4521860227581687
H 4.655996568850638 1.0577221337584892 -0.045774973703245354
H -1.8354367986114088 -2.686795542629838 1.417999797710111
Rh -0.19630863991271624 0.03300230061796858 -0.4498595171832598
I 2.4628006019283877 -0.3567893955520027 -0.7033050836006312
I 0.15468978521886736 2.40369328748801 0.608696198850913
O -0.6814833904583265 -2.0877888076572266 -2.485630114886946
C -0.4946134205621315 -1.3307113901356595 -1.6517029571338684
O -1.0518223730240395 -0.5458534043739669 2.081809090086611
C -1.2647254744276355 -0.9083731951369727 0.9511665249106647
