18
## STRUCTURE-ID: 6456706e3f58a23f0e61a6e9 ; CHARGE = -1; SPIN = 1
I -0.15555813529768878 -0.787330545227357 -0.10820618555564476
C -0.3429382143726172 1.907345606444645 0.7174821749751693
H -1.323115647260053 1.8653864965653486 0.2886301958295531
H 0.5008254743795021 2.063867512848074 0.07700195879171372
H -0.18553733441999548 1.512345330693249 1.699984940351957
O -0.6542190999114561 -2.9384912317733165 -2.8300815324735327
C -0.4884676273434572 3.8522388595125876 1.3196063868495225
H -1.324732977882415 3.5597251946769104 1.9230635973357946
H 0.5069776194568388 3.764035868376992 1.707550914304904
H -0.6379531189802248 4.114804994283695 0.291137340118245
H -0.22648810053990295 -2.4896513983428465 -3.5670229310610373
Rh 0.5847971007153044 -3.2627300339243557 -1.224023358291227
I 2.6678150715726967 -2.367258864828882 -2.58528639012495
I -0.6653725096863853 6.190308220295035 2.039906471547017
O -1.7011056396513662 -4.914175951119743 -0.2251338490258602
C -0.8045023002126548 -4.2797357593754555 -0.5666169899102451
O 2.507207996876167 -4.058250190974216 0.9210507463158484
C 1.742367442557707 -3.7324341081303536 0.12095651002275301
