18
## STRUCTURE-ID: 6456739bdf60071bb46cd4b6 ; CHARGE = -1; SPIN = 1
I -2.655454517533386 3.2011572865425992 2.165446392230388
C -3.1437760676851854 0.7815676644956217 -0.8181171307783195
H -2.7561291153625054 1.0548799583394477 -1.7793144320137086
H -3.7197818413174675 1.5133655426076433 -0.2754615152227106
H -3.3700980838103636 -0.25298999364263164 -0.6538223169503665
O 1.817606728505471 -2.3171949639755804 1.4557581399933863
C -1.3420309470892289 1.8695282480812794 1.1733778875617578
H -1.9154408673579588 1.3445483132039326 0.36967501377937134
H -0.5265757495529825 2.435016546664088 0.7417336785336088
H -0.9675042442747976 1.1482083069991351 1.8877041870429292
H 1.6022212419087185 -3.2466603131759317 1.354007870991618
Rh 2.3512971692752167 -1.1800722083343 -0.2052246285889014
I 2.4702179302262386 0.9623837257907099 1.3729724075228924
I -0.29785200003969653 -0.8085455706315314 -0.9580048009570752
O 3.500590272113639 0.467144572010513 -2.4145156012935476
C 3.0393674490125044 -0.16966190911435292 -1.5695849158907216
O 3.0674180547212333 -3.9615712931776006 -1.0119935264547255
C 2.845924588260548 -2.841103912683022 -0.8346367095059019
