18
## STRUCTURE-ID: 645670913d55b3439e1aaa04 ; CHARGE = -1; SPIN = 1
I -1.6765679025360516 1.83559149041173 0.11273698201062154
C -1.9656254965293563 -1.5542509620867633 0.6422200802849409
H -1.865100893377802 -2.6133335179744432 0.3835677111300369
H -2.8283365986718523 -1.1570385399420162 0.09888908297875434
H -2.1626772571592965 -1.4773955693239884 1.7135121765682624
O 1.3110978738057897 0.5350132015160695 2.190652655689281
C 1.3746971373541312 2.20157575348947 -2.525074257727393
H 1.115043244876459 1.4901926222822843 -3.3020818858012677
H 2.184839836841736 2.852184082192771 -2.8313420850193896
H 0.5041147922062494 2.767976573744475 -2.2090786783254344
H 1.490674775762631 0.7656747533560634 3.124766445346126
Rh -0.27042169654044057 -0.4327748868648655 0.10658979859609671
I -0.7631130456665471 -1.0649231715501968 -2.5294649219098715
I 2.070984028465566 1.072018550933431 -0.8034748182849779
O -0.5907513739063492 -0.27465096082530693 3.000677367907441
C 0.10288864080452424 -0.04292837063891885 2.0308733453640815
O 1.274835772089878 -2.9402670515150113 0.48469232980532023
C 0.6934181621807343 -1.962663997204774 0.31133867138739985
