12
## STRUCTURE-ID: 64566531f37ee25bfe111df8 ; CHARGE = 0; SPIN = 1
O -1.2363224231582752 -0.8410573266441865 -0.024708067388025046
C -2.342669711637251 0.007322643657067004 0.19389411347911154
H -3.0845549630723106 -0.46328438273952544 0.8457685350280554
H -2.8199049970565677 0.2952029748278377 -0.7479975389891367
H -1.9589422118470199 0.9010209853014611 0.6828162579565727
H -1.543588043722115 -1.6531069589294456 -0.44544407784834933
O 2.9867660348550404 -0.3051833714350051 0.2962074425996501
C 2.004598095528466 0.4694201355620003 -0.36169924284973426
H 1.9542283968123795 1.480739909438923 0.05514794106460153
H 1.0181566853054629 0.002008315973705928 -0.30169654444500077
H 2.308088053340182 0.5337313002204377 -1.405362345194145
H 2.7141450846520048 -0.4268142252332776 1.21307352658642
