14
## STRUCTURE-ID: 64568ef16a770527ec4b6a54 ; CHARGE = 0; SPIN = 1
H -1.3264447238041157 0.25205092855649736 1.637807008414902
I -1.0960374372598154 0.11284540413636551 0.06098989610305318
C -3.271287906063609 -0.4051348107317605 -0.0730830296833163
H -3.4792483100309037 -0.6296161897433546 -1.1162039702588378
H -3.4305179578035028 -1.273796472137862 0.5621674422348445
H -3.8209456353137163 0.4720524565581877 0.2613011647813256
O 2.414254143602734 2.723093362799591 -2.8141541817788402
Rh 1.8238628910330619 0.3663158978909923 -0.03309313217658822
I 1.3990924193957845 1.6682121898989781 2.1808363287223176
I 1.9081097933264635 2.731496047490812 -1.0335995214858507
O 2.3263879956395574 -1.0454767113336356 -1.6673426942285186
C 2.353602189196484 -1.5114027872463642 -0.561359187153598
O 2.1225495962604914 -2.0563808867567577 1.7958001470608826
C 2.0766229418210926 -1.4042584293816929 0.7999337294482326
