16
## STRUCTURE-ID: 6456b7d46e2bf159ed111df0 ; CHARGE = 0; SPIN = 1
C -1.4605392976275484 1.0013034665331026 1.1040115188149113
O -2.188205478806688 0.3177121457331397 0.49448368803598075
H -1.0976918982280508 2.0153697400036608 0.9381110119534533
I 0.38211369114658306 1.0031189797566675 -1.7564915367179628
C -1.2527293210967692 -0.21382218630562785 -2.5266472512006963
H -0.8240729120881848 -1.1320142439931768 -2.9085431072269285
H -1.9352412489713384 -0.4025349231195985 -1.7057225490939762
H -1.732321773644553 0.3529867118410503 -3.3149631345649255
O 3.6814591945225827 1.8172916193475592 0.8222983691876808
Rh 0.7269615004671247 -0.31655365256102747 1.4049851615970164
I -1.0007212684279765 0.4733061402142745 3.2895253981086165
I 2.1678426174264005 1.8064276937322048 1.901763162683265
O 3.149459050911375 -1.019770530488889 -0.21097106112260908
C 2.2001499280183703 -0.8106787109409835 0.37276393727160806
O -0.661580634864151 -2.9478766052593444 0.9688724895202447
C -0.15488214873715908 -1.9442656444930138 1.1265239027543217
