12
## STRUCTURE-ID: 6456670a07b3f3075664e480 ; CHARGE = 0; SPIN = 1
O -0.7149652331188743 -0.1065692574432087 -0.5801053593482574
C -1.6111770518184763 0.23628370650809788 0.4219426829685595
H -1.1909677855211713 1.0835444165482866 0.974299219825864
H -1.7941108852069798 -0.596918745375989 1.1058627479790788
H -2.5463262059952028 0.5844776994393579 -0.021204331067014512
H -1.6712285078998108 -1.216936577937249 -1.7540378047628082
O 0.7619494978250644 0.6860146701105729 -0.12410047088124823
C 1.764031238286988 -0.27317456817696206 0.17365637986453952
H 2.693270437715053 0.27525352027968714 0.3469223220621794
H 1.895539675922244 -0.989629462291835 -0.6364124051787476
H 1.4666858808506802 -0.7945391661931855 1.081538188879319
H 0.9472989389605045 1.1121937645324294 -0.9883611703414698
