12
## STRUCTURE-ID: 645664cd785a5a4bdb3288b0 ; CHARGE = 0; SPIN = 1
O -2.861635080699811 -0.5778401542205657 0.06948341016258701
C -0.6233876213924113 0.041899968987431674 0.32918404242288424
H -0.944853778868799 0.6106720021305285 -0.5268617654120371
H -0.6812313664669665 -1.0209098228425972 0.16263821714077234
H -1.1081396673770936 0.354085704478619 1.2382538678157904
H -3.4052265519494505 0.21918595905624924 0.06680191610474137
O 0.8971206315736123 0.42592716360308974 0.5276765124043162
C 1.7267687150802018 0.05301571056149476 -0.5886736756131398
H 1.668726023478478 -1.0162231281868654 -0.7909955711434647
H 2.749604014177399 0.3477270941914883 -0.3613995443930259
H 1.3726358308417637 0.6045136321722957 -1.4568967128658132
H 1.2096188516030546 -0.04205412993120389 1.3307893033764335
