12
## STRUCTURE-ID: 645664cd77c5ef0e2f41e580 ; CHARGE = 0; SPIN = 1
O -1.1570524649950975 1.4434708894080257 -0.08599173612250471
C -1.1007306779690509 -0.40509776287015997 0.6563249833685176
H -2.1672681197920536 -0.23842997679163927 0.5870359961946187
H -0.7113591939575907 -0.4180169293313946 1.6585490640711744
H -0.7790687215870669 -1.2192360273295604 0.029620110906922542
H -1.3086117187456088 1.9981476547319268 0.6879714604743928
O 0.854153274334569 0.26247555538850315 0.2423181461774734
C 1.4812535974774315 -0.4967957925838979 -0.7107346258430792
H 0.9782497367240607 -0.4478064970480124 -1.6909079858916327
H 1.54410118679287 -1.5550335584395805 -0.4070351766869261
H 2.5116852735569237 -0.13631318088045744 -0.8475759476958202
H -0.1453521718393823 1.2126356257462316 -0.11957428895313889
