21
## STRUCTURE-ID: 645677765b26971043670ffd ; CHARGE = -1; SPIN = 3
H -2.099129678491994 -0.7177280040940368 2.725449198915879
I -1.7075112163460295 -0.8187407021839515 1.0766278464368446
O -1.479998779935583 -0.5957916179045849 -1.0761985035379804
C -2.91365902677388 0.9647560815909629 0.9785614328939728
H -2.9134809400795545 1.3100683709713845 -0.04741538693393568
H -2.462497435526901 1.7017999180737124 1.6349439014863532
H -3.9065321713788284 0.6910498498135872 1.3161199934469783
H -2.1125310962254793 -1.1247509248913585 -1.561534458186389
O 2.953636023066602 -0.6622322215598093 -0.575936437086334
C 0.9029801744419205 0.810726651106073 -2.5779435133126385
H 0.4656780183458207 1.2863034272223404 -3.4457133804332125
H 0.534934241269989 -0.20117429104054818 -2.4570645769765833
H 1.98550379870365 0.8333244116291886 -2.6118609539164477
H 3.429522252104209 -1.3227487242686977 -1.1183027859688681
Rh 0.8926808617790073 0.09659652567323866 1.174605850204853
I 0.3212681651882969 1.8966964558850161 3.0897721181687214
I 0.27671135452940787 1.9013699001308528 -0.8364469770434462
O 1.3974375333471853 -2.2628634217583783 -0.5165212400143769
C 1.7488872604594017 -1.151997151384421 -0.13209269351501732
O 2.9071700670276335 -1.4924228096039092 2.548689900034195
C 1.7789305944951592 -1.142241723406678 2.4122606653374787
