12
## STRUCTURE-ID: 64566896bef101451a56ede8 ; CHARGE = 0; SPIN = 1
O -1.3143713820478666 0.4921880384001547 -0.36085377040567407
C -1.7575295037192122 -0.41042806283316186 0.6315229893589414
H -1.1409115070358538 -0.23712335106439936 1.5117233638273253
H -1.6348531518262264 -1.4482236478627701 0.3082843136474073
H -2.8040348099890426 -0.23329576696740653 0.892361323051192
H -1.856296399392636 0.38248361562913374 -1.151514869546195
O 1.4403881774735496 1.2314286663846405 0.015727715668225447
C 2.019714231191817 0.004289363323970447 -0.3620578160405105
H 1.8503649424466764 -0.20812111975349692 -1.4226852945010655
H 1.627098865562879 -0.8249571613143235 0.23508859646491106
H 3.0911978558929536 0.09087681667237209 -0.18565129063717234
H 0.47923268144300235 1.1608826093852849 -0.11194526088742207
