12
## STRUCTURE-ID: 64566bd419bef51de3408608 ; CHARGE = 0; SPIN = 1
O -1.6529174970540919 0.5583256211016459 -0.6977041674283438
C -2.0076397832363866 -0.08355504353055958 0.5041119230322652
H -1.387688057517612 0.25991429988398507 1.339253584754297
H -1.92029340532376 -1.1714955485431622 0.41818989119308486
H -3.0466033801823427 0.17303452717942308 0.7082242343662808
H -0.7318821218676514 0.3188571272001319 -0.9067388051172288
O 1.100916638329436 -0.15340048547994167 -1.0513831846924582
C 1.8735067354417467 -0.04987606480124136 0.12827221729310714
H 2.0277186435517573 0.9950877693029774 0.41188092915494423
H 2.8424567566292884 -0.5414695175988686 0.012214010407705504
H 1.3143943901563435 -0.5535528472532752 0.9148748640501015
H 1.5880310810732832 0.24813016253888973 -1.7811954970137616
