17
## STRUCTURE-ID: 64568a731688c16d412a1570 ; CHARGE = 0; SPIN = 1
C -2.428267006962262 0.9412804249425804 -0.9370189099178089
H -3.0055510429821735 1.5407153176608923 -0.2352456784673415
H -2.595090505459096 1.291558600350914 -1.958569369430977
H -2.8273064615921935 -0.0773155335770855 -0.8527690544272173
O 0.4508606614539826 -0.3534396043595545 1.932577928597493
C 3.0841191589672796 -1.6116369599915596 -0.26033558603042034
H 2.8524313890596877 -2.2123202514201945 -1.1329465984423202
H 2.568567877103306 -1.9829166744773103 0.6181755147650166
H 4.152729272202473 -1.5318410019781281 -0.09863756956067
H 0.4044705868718708 -0.4943943038579167 2.902805612354264
Rh -0.3824802851585549 0.29352561964739443 -0.5474657410836583
I -0.5304662502685668 -2.276163509567865 -1.0244100804509135
I 2.3416631297588393 0.3973127306749783 -0.6243427685404619
O -1.5932920428286048 0.5788698281879975 1.9990951131082468
C -0.6141678947105293 0.2102921077805889 1.4129984713035912
O -1.0014401930024177 3.2162759469413773 -0.6177312460202098
C -0.8767803924530493 2.070197263042915 -0.5761800377565683
