21
## STRUCTURE-ID: 645678daf34ba650863eadd9 ; CHARGE = -1; SPIN = 1
H -2.6794684798724426 -1.7094606676107647 -2.430490644326761
I -2.356758078599264 -2.7906781240352214 -3.5191377722025226
O -1.792818218859063 0.4012220044142938 3.062681460455735
C 1.05612180928347 -0.5602727597258124 -3.0550420671974976
H 1.5586501479918464 0.3807441417306707 -3.2903141028592495
H 1.6852989958250533 -1.419725761084804 -3.251249363249406
H 0.07839763073967257 -0.6253508348960085 -3.519150705657739
H -2.201702665113985 0.14859818360049945 3.9130798442646557
O 1.4147352007153624 -0.47753008755822063 1.715167597433775
C 0.43568435824532475 -1.1155978833900015 -1.132935899141504
H 0.1203396653901945 -2.0711566534822383 -1.5392541966771836
H 1.1939402577009217 -1.199977998308537 -0.348292718616981
H 0.9864664564727442 -0.3215475646661424 -1.88004418539614
H 1.3554140398808834 -0.9200042219445835 2.5635010757518244
Rh 0.44531854244162944 1.420247869454795 1.6136622309536246
I -1.2697720500583758 -0.06487015089817087 -0.31041722281765793
I 1.9655849886885672 2.123879392630244 -0.4299167844125481
O -0.9574154423882707 3.958514009918652 2.274633111614772
C -0.39581996346611387 2.9983701920332053 1.8862649867200154
O -0.12317544228554787 0.9451272100397389 4.425874417792618
C -0.5190217527325832 0.8994697037783906 3.251380937568149
