18
## STRUCTURE-ID: 645689aa10d4b76d9a2726b0 ; CHARGE = -1; SPIN = 1
I -2.6345938222158036 0.0015074807663341622 0.5122285813835159
C -1.8167704232284907 -1.5175347313296232 -0.8415995806809482
H -0.7245866575935189 0.6039771275830705 -2.289426091616501
H -2.685381460374057 -1.705186476386403 -1.4679581389035363
H -1.6351151000446895 -2.3830229450830256 -0.2048833175328831
O 1.058227380354312 3.3984356307975117 1.9420225699386655
C 0.52094037565242 0.7841877552301002 2.1633622397045507
H -0.20488106159513045 1.3673427741909607 2.7135902760560136
H 1.4750041994651812 0.8093845216460044 2.67393868325576
H 0.18159174125392302 -0.2334727990218617 2.0056648472833776
H 1.3012369170908193 4.234470727849949 1.5460986510246948
Rh 0.1413426418988939 -0.3330777319798846 -1.4032386058648534
I 2.2471398558418914 0.4048203583205582 -2.866468332317049
I 0.7968519167294624 1.7465919837615291 0.2738173944078703
O 2.1915756999987677 -1.4390476461639221 0.5256445440329736
C 1.3561799762344393 -1.1341648851208905 -0.2078958045861327
O -0.9171173870981302 -2.7980796286473937 -2.8188925760955965
C -0.6516447923702976 -1.8071315164129977 -2.256005339489892
