13
## STRUCTURE-ID: 6456898074f9862abb304564 ; CHARGE = -1; SPIN = 1
I 3.4448812607151678 1.1239804216215923 -1.4043017751954707
O -0.048310258542318955 1.421975687407861 1.1203218103995183
C -0.6239384763583277 -1.0781222041066987 -0.3429262555619343
H -0.534029807818094 -2.0450105499552453 0.16050320469408366
H -1.312919077328934 -1.2004505583641438 -1.1838247896131626
H -0.16129642473149572 2.1407687735099117 1.7428838795472603
Rh 1.1632328828652148 -0.03272027504367998 -0.7425562759576202
I -3.8883833140666546 -1.6138704833691269 0.9343579838547617
I -1.6763704837083846 0.1679693334093635 1.0530438649685951
O 2.159936723469836 -1.0826657730713516 1.8478420337843213
C 1.8801238421561424 -0.8249174113010503 0.7593541519304973
O -0.558995884388174 1.928795375646727 -2.146927582503316
C 0.15606901773602536 1.0942676636158517 -1.7977702503475328
