16
## STRUCTURE-ID: 6456b7c333a78f234d248ae3 ; CHARGE = 0; SPIN = 3
C -2.575998131817622 -0.10582978721485117 0.1543315740178138
O -3.557027065590395 -0.5529517605842782 0.49659334422355256
H -0.05001594729610465 1.5301430609327833 3.687694664461039
I -0.8011345437903571 1.3051122858315347 2.309701790720144
O 0.17033834074398205 1.90019744490773 -0.8293818730842752
C -1.3236358347470196 -1.9283591138107972 -1.8120887981483005
H -1.8311068267019113 -2.789442371761533 -2.20198459450817
H -0.8426689385685402 -1.2272926266882105 -2.4670823456087265
H -0.054821290652312074 2.3425941649042024 -1.6750545507757946
Rh 1.1862721449793765 -0.19160646102698198 0.7362143100094212
I 2.1530210796748332 -1.8649703907318322 2.608616661653173
I -0.5148841287683977 -2.128674083173195 0.06435838443071094
O 1.146111865282946 0.2670502586252622 -2.0183077395870685
C 0.8106130960294203 0.7615307015019813 -0.9631579268831769
O 3.4900502596001286 1.6935276225165146 0.9985347355815581
C 2.5948859216219895 0.9889710557716631 0.9110123634980904
