12
## STRUCTURE-ID: 6456668c09fed1561e3288b0 ; CHARGE = 0; SPIN = 1
O -1.3098212570143002 -1.3035482359461603 -0.14951198697851817
C -1.0960718770413922 0.5515843453105805 0.5447711517861209
H -0.7899187367256312 0.5592152511471682 1.5755158324206648
H -2.165900593890975 0.5065887274888417 0.3910905527888793
H -0.6312168815310425 1.298014428669644 -0.07633274774150951
H -1.590508148316562 -1.807636961379441 0.6230645568923151
O 0.7934003567622607 -0.35315346952599613 0.3206956003180984
C 1.584701551109758 0.29835674865271555 -0.5887258982377409
H 1.7456153767122105 1.3512736197996684 -0.3029937705951957
H 1.1652008573061727 0.277267825572106 -1.6084797592631408
H 2.5734787239406565 -0.1827649556933888 -0.6262406541266543
H -0.27895937131119464 -1.1951973240957436 -0.1028528772632912
