12
## STRUCTURE-ID: 645667a123fd791c37763453 ; CHARGE = 0; SPIN = 1
O -0.18217066431432272 0.7770946660934 -0.8944201608707425
C -1.3067289288129091 0.023476567112813863 -1.3361058973695863
H -2.180206841043963 0.6718204259110354 -1.2836450439516456
H -1.4613378288902257 -0.8631637723823921 -0.7218418702127632
H -1.137490967663965 -0.28089822073557397 -2.3690300877542434
H -0.18669898189136258 0.9632721865134821 0.4990906705285457
O 1.4400145611930926 -0.7936432375783005 0.18077216875299723
C 1.2601966960626223 -0.3650823826269362 1.3743068920811747
H 2.0609435380831225 0.24876661095687663 1.8234862413008588
H 0.8351419528646533 -1.0718756396444764 2.108797430097621
H 0.2660981646992705 0.5687874750711062 1.3524852371655989
H 0.592239299713988 0.1214453213089861 -0.7338955797678035
