13
## STRUCTURE-ID: 64568cdf0e0d3c15b456edda ; CHARGE = -1; SPIN = 1
I -2.0186563790382444 -0.08732511651683168 0.7263194498013937
C -2.323355779038755 1.2544634617236088 -0.9377599320985012
H -2.9977916024110547 2.036260844586079 -0.6138210211803699
H -1.353558586606158 1.6584742645970627 -1.2073010318950377
H -2.737622391812453 0.6758673183269293 -1.7551945186587405
O 2.4108354984388214 0.7283596858347015 1.910564862509258
H 2.604309883466214 -0.08257754980773199 2.404291423861726
Rh 0.7242060993051129 -0.8351014807151478 -0.15941498043408675
I -0.04787132043706583 -1.362760815047541 -2.6379667918447427
O 1.2409492271878733 1.475173010499269 0.15845251599003163
C 1.6049049193849887 0.5188129401747281 0.8555749794353444
O 1.5720196058064717 -3.544948148868795 0.7605433094328438
C 1.3216308257542897 -2.4346984147861868 0.49571173508083605
