12
## STRUCTURE-ID: 64566a7e1ff59e3e62304573 ; CHARGE = 0; SPIN = 1
O -1.0762285828794995 -0.02627262183734319 0.3850111243726813
C -0.9136487434505717 0.4133355355939242 1.6684666620015307
H -0.06444040701547378 -0.06446666036184576 2.171565286818031
H -1.8322994317336319 0.11474344447380896 2.1890639980966538
H -0.822193879280974 1.5044015155017894 1.7327845173699539
H -0.14566342623294046 0.9242591632999924 -1.2307777562772078
O 0.3664217228503304 0.37438679699856947 -0.6029801668720015
C 0.6315787163036759 -0.9089908257537788 -1.199080256162838
H 1.093665442506064 -0.788682136516034 -2.1749821807837684
H -0.31504691084445974 -1.4429532638320461 -1.288535999364235
H 1.3045008824584057 -1.440367629599562 -0.5304876067580252
H 1.773354617319072 1.3406066820325124 -1.120047622440777
