12
## STRUCTURE-ID: 645664bc6da7af12e27b9258 ; CHARGE = 0; SPIN = 1
O -1.7383771828372723 0.2860766921282759 -0.9445368220861545
C -2.0914457345221544 0.006920497575008009 0.3921263262075827
H -1.7719015849793223 0.861881301776132 0.985217870236334
H -1.584167939209358 -0.8896287873765549 0.7614788795343248
H -3.172445782365574 -0.11744237474920909 0.5050585256811473
H -2.044938826901544 -0.43774817404179556 -1.503580246519899
O 3.0949936539504694 -0.16500775443147814 0.24192500312392454
C 1.7196877290268349 -0.058583606492746056 -0.05681350954494326
H 1.2702641651761115 -1.0141649912923003 0.20602073667191936
H 1.5499870403640854 0.13251888879824555 -1.1200650929016518
H 1.2396831941144968 0.7317118452955851 0.5274543434600986
H 3.528661268183229 0.663466462810835 0.00571398613729994
