15
## STRUCTURE-ID: 64568df1ac9ed80af364e480 ; CHARGE = 0; SPIN = 3
H -3.2456808536066313 1.0979691437112344 -1.3811638876813732
I -2.0144438846691735 1.979427319386055 -1.859187124067835
O -0.5987917802993225 0.8922494989848168 1.5142727061849934
C -0.7735034727697093 -1.2645828750924095 -0.38367174997087844
H -1.575029631063298 -1.0776391697511722 0.3162856586569845
H -0.9776114577699153 -1.9005667404275155 -1.235548303331517
H -0.7656737077376516 1.7762589025569728 1.8973348959732579
O 1.5128479168800084 -1.9248774808208633 -0.5441043030090412
H 2.3483344745868227 -1.866594336010901 -0.0541258132201317
Rh 0.21433059874547963 0.6539413462106687 -0.9163160850144932
I 2.1474453915143377 1.7734045578437279 -2.2421528628832967
O 1.5709670558411108 1.2900548923238904 1.9394421677382268
C 0.6992671598208594 0.5579210753594696 1.5573823056809126
O 0.9213909073965836 -0.7638222671842411 1.333445828656573
C 0.5361512831304488 -1.2231438670897745 0.05810656628746526
