12
## STRUCTURE-ID: 64566715f064641881112993 ; CHARGE = 0; SPIN = 1
O -0.5282570816922818 -0.48641948398257434 -1.7298027132942932
C -0.6402309410126122 -0.03987705274478063 0.8914571748184047
H -0.9870291271743682 0.986205487428561 0.9877526959617086
H -0.2968549276470451 -0.3986380162103303 1.8593736669734726
H -1.5325420817912088 -0.689313597095575 0.7626001371854256
H -1.1561660442398252 0.125176602176901 -2.1254373344018904
O 1.2929428183081828 0.7612964822288564 -0.7699173806317862
C 1.1101826026293542 0.16454868647623988 0.3725175774245424
H -0.5873144504134838 -0.3719389337278636 -0.3405657559627995
H 1.4609709178617687 0.747501121816152 1.233810951463724
H 1.476863789981777 -0.875088475332272 0.4317702927631512
H 0.3874345251897474 0.07654717896669001 -1.5735593122996678
