12
## STRUCTURE-ID: 645668bceb95ad40ef6b0e18 ; CHARGE = 0; SPIN = 1
O -1.6834726080259874 -0.39030754498744785 -0.7654335789082201
C -1.9676949483717343 0.5433516853833762 0.2503261389901959
H -3.029869027831539 0.4546121897315322 0.47547487633522584
H -1.758409467509743 1.566966258023832 -0.07704289261730499
H -1.3934778763950013 0.33485541506938604 1.1587090814776535
H -0.7321346812258581 -0.3423324545885232 -0.9595085468990617
O 1.1716592968829458 -0.03690647277703469 -0.8633067226342707
C 1.8023430027680554 -0.5793175149132679 0.27855125816627213
H 1.92554480096752 0.17540552025717804 1.0607704891631773
H 2.7772097033669483 -1.006505871162581 0.030125285766533342
H 1.1543250033347001 -1.3720621279836553 0.6482443092542414
H 1.7339768020396995 0.6522409179472072 -1.2369096980944443
