13
## STRUCTURE-ID: 64568c78046ba5054239082b ; CHARGE = -1; SPIN = 1
I -2.7714635246005046 2.222426953505274 2.7571896661267012
C -1.3873167239337558 -0.18536731132402492 -0.7079125059081599
H -1.4221923040343185 0.9162228614461612 -0.6845537344955863
H -1.3150572240904237 -0.47362101336661605 -1.7622487095481512
H -2.363938541989508 -0.5472982369369728 -0.3518638455162521
O 2.6930524078194225 1.9512460216950531 -1.944567031545814
Rh 0.1344739251573167 -0.8022701579256388 0.5822615338062372
I 1.9431944265634562 -1.3700055250448488 2.5119796960609944
I -0.5614763782810616 0.5038179297684039 2.6660098695146517
O 1.559525320277505 1.2434035519968734 -0.08111923934335125
C 2.128740906933519 1.597885675413077 -1.013615547009826
O 0.8041655745234685 -2.9605928426049597 -1.3555474926836797
C 0.5582921356548824 -2.0958479066217945 -0.6160126594577569
