21
## STRUCTURE-ID: 645676e9fd5a3f13360b3f77 ; CHARGE = -1; SPIN = 1
H -3.712327418987675 -0.6132260388233174 2.2239910492907193
I -2.2919046643008953 -1.2330574917520825 1.6090630371782342
O -0.4545185775494261 -2.375423183458363 0.535553124381679
C -3.1242859273144243 -0.8087434902851425 -0.30834871282714366
H -3.305592820696973 0.26151796365297003 -0.32654884449000204
H -4.035297995216472 -1.3904271905087955 -0.4098123580720692
H -2.3595368021864145 -1.0735738717829526 -1.0327922905074343
H -0.6445742982356112 -3.1478683476543594 0.001992537601289747
O 1.2553085606375631 -0.48407592573705893 1.3468513797434334
C 0.4137995209239017 -0.8744796916671295 -2.1859149283721333
H -0.10404513789693359 -1.7858525112598111 -2.4249710095466703
H 4.161029173706788 1.0071516599968213 1.675921792476967
H 1.3334251630852347 -0.6778318767469349 -2.7072178851857913
H 0.8379045825910718 -1.2164465199879155 1.8081938203540495
Rh 1.3021327790099926 2.09419139242301 0.09220373236649619
I -0.7829514736853959 2.5878035896597518 1.433050939645157
I 0.24202128155082026 -0.15533227229344765 -0.33330226074942976
O 3.367610078864176 0.5575851009028348 -1.3942418231675326
C 2.6336546137640084 1.2535501375276794 -0.8374646373604713
O 2.9995026148442983 4.465076264808704 0.7398252577763103
C 2.2686467470923275 3.6094623029855333 0.4939680794643188
