11
## STRUCTURE-ID: 64568d6f67790522014b65ea ; CHARGE = 0; SPIN = 2
H -1.7915775596122145 -2.261762433380207 0.7537515562381839
O -1.652739157269421 -1.5328485532412777 0.13534344155720207
H -2.474757024771684 -1.0274629986088486 0.09588024262743326
O -0.9396307751859859 1.069990418136229 1.0286470190640715
H -0.6378484473162347 1.903736860296433 1.4077893737049525
Rh 0.3121576154969393 -0.14758701887927478 0.28950804510003125
I 1.9339784215718174 -1.9737699262976909 0.9864667909548925
O 2.3475687967321197 1.995420207382685 -0.13180022145826495
C 1.5443516736607699 1.186481194055128 -0.4864392617228096
O 0.4943630169172787 0.2602015419710718 -2.58810268515386
C 0.8641334397766275 0.5276007085657504 -1.4910443009118466
