12
## STRUCTURE-ID: 64566aef6d7be56e39530d71 ; CHARGE = 0; SPIN = 1
O -1.1828089567055153 -0.2422118901616493 -0.28282832272025465
C -2.19202113702361 -0.28596501999785207 0.3649068170411847
H 0.9507905737570489 0.76189231721991 0.6372312185314801
H -2.9842579130222977 -1.0198611842125413 0.16405337632651065
H -2.3806070753663744 0.4062144724442413 1.1966082270318024
H -0.5912359188340518 -1.300650412562894 -1.8614264669712932
O -0.29717067599158675 -1.823529309157545 -2.6196537940401385
C 1.8046512260080865 1.1614991400703185 1.168434645195641
H 2.046237030379221 2.141385387426594 0.7778130178874442
H 2.6523206933739125 0.5018520516145387 1.036442345013574
H 1.5719124931301829 1.24067978721015 2.222384698666403
H 0.602189660294991 -1.541305339893263 -2.8039657619623566
