12
## STRUCTURE-ID: 6456674cfc65b06fa44609eb ; CHARGE = 0; SPIN = 1
O -0.6806325697966743 1.4345770306136258 -1.7241399226041965
C -0.5274091011378973 -0.7124341511370283 1.1537752642710233
H -0.8454206059107244 -1.6799954605118994 1.5311180385741903
H -1.2540235155804687 -0.3585847901279418 0.4256455245784172
H -0.486023274156128 -0.00454339989312496 1.977810777052999
H -0.49476926776106867 1.387966306274114 -2.6662583740612433
O 1.3256145907094348 0.3976703717602098 0.008695191083254198
C 0.8438163713641099 -0.8335813022700076 0.49806004970397116
H 0.7981136429121772 -1.5695634033442492 -0.31941686485905746
H -0.9087716665869825 2.347416906015579 -1.5264686420129658
H 1.58732662831521 -1.1755447062172883 1.2245671248987489
H 0.6421787676290044 0.766616598838041 -0.5833881666251733
