17
## STRUCTURE-ID: 64568cd5f6ab1843323dae44 ; CHARGE = 0; SPIN = 1
C -1.5609020644886211 0.4208652874098845 -1.643251193891616
H -2.373230492529566 1.0631395396269814 -1.310874689758382
H -1.4647521499910678 0.45523115956087296 -2.727482307684956
H -1.7095732854616628 -0.6003884063000822 -1.294885190719801
O -0.6435558346457357 -1.8443293632786049 0.5644902290160865
C 1.6264943910642757 -1.447142819318042 2.2362850840525277
H 1.7918305995804245 -2.5072780478053103 2.3833375073527674
H 0.6845059382437015 -1.1430058425329686 2.6758230596642
H 2.459181482211633 -0.8670457424329002 2.6159760321596157
H -0.7751928955058476 -2.7882183234718148 0.6498086501219399
Rh 0.3440313528922314 1.0063655798679543 -0.7899519213466704
I 1.7229507643069513 0.6643235777268066 -3.0035166041316765
I 1.4952304562977177 -1.0895383586035805 0.11673308515613663
O -0.914226477703554 1.0557928695298058 1.9138427439388146
C -0.478539849736691 1.0825585921506486 0.8627014111729939
O -0.241493096236545 3.7621879929259845 -1.8701904377425311
C 0.03724116170243237 2.776482304944427 -1.378845457359385
