13
## STRUCTURE-ID: 64568c47acb4e211895a852b ; CHARGE = -1; SPIN = 1
I -0.8974401516973644 2.470801686347525 -0.1791871996761075
C -2.090705133985809 -1.3810706206261543 0.004164799141026605
H -2.812154232723731 -2.0897085868011853 0.3888464731549542
H -1.9341448527318048 -1.5048079165102106 -1.060417330708234
H -2.375296501558616 -0.361387972969832 0.23620760729554846
O 0.25005082501937254 -0.5455663428383886 -2.07843427447726
Rh 1.3455102003536443 1.0997457546582319 0.11947132626302104
I 3.7956868974126103 0.12065472723366216 0.3374539719005851
I -0.20322756675459566 -1.7806610892557595 0.9792353681968884
O 1.6786052289253002 1.2563714222134288 -1.9617375129357038
C 0.9325186265868711 0.3576701646919742 -1.7870746971060854
O 1.1193455006710706 1.2066617535027229 3.073115633851379
C 1.1912511604830585 1.1512970203539805 1.9283558351000132
