12
## STRUCTURE-ID: 645666e3467ee7524c4d91eb ; CHARGE = 0; SPIN = 1
O -0.9602615197442026 -0.11518329904265791 -1.1320983369886415
C -1.8471059734154303 -0.019930680618254166 -0.03619418851562158
H -1.6128558541975893 -0.8479405001640343 0.6305847066671104
H -2.8875798008202773 -0.10774997225065254 -0.35874748104535603
H -1.7122142494537784 0.9223731276640385 0.5028717465125351
H -1.1683388580022567 0.582639158622176 -1.7648938859585483
O 1.707529065456393 -0.8668020011429014 -0.37646818899819967
C 1.8695135135753245 0.11216104036053304 0.6231968896469027
H 1.1149746806782914 0.011614172868293299 1.410079713194728
H 1.8180598911278205 1.1236199557971116 0.2065898757780392
H 2.8560209575333686 -0.039612369512827025 1.059203411739567
H 0.8222581472623289 -0.7551886325808272 -0.7641242620325006
