18
## STRUCTURE-ID: 6456704c6428911d17248ad4 ; CHARGE = -1; SPIN = 1
I -2.7158169945215804 -0.5769272408242808 -0.6441359150346286
C -1.9160702114302535 1.660310148347791 1.927586350953696
H -2.2393773260947984 0.9508414326308755 2.6912876653084057
H -2.799273648020862 2.039969244319758 1.4118226149062356
H -1.4124140043236373 2.4960732918092274 2.4156112662318474
O 2.1812092514903445 -1.1866795717262215 -3.388124142259516
C 1.2360648898651574 -2.121386043363824 -0.9839210822340235
H 1.8361039505994237 -2.652577322653811 -1.707777498102084
H 0.2653351472696189 -2.591709341960261 -0.8640427324592262
H 1.747103896099637 -2.0387717304614164 -0.030393628873358745
H 2.304983682384905 -0.5910372938833219 -4.12655812630627
Rh -0.6100813430434193 0.7302012096081409 0.40401503680423345
I -0.7744026080321391 2.8715503064037997 -1.2069693712740144
I 0.9292192235097111 -0.15952035781494728 -1.7565615586808518
O -0.40664302097488886 -1.704227971443177 2.114823849511381
C -0.4552564740742121 -0.7710353568804964 1.4495687503543773
O 1.8980676933115728 2.0848657871456835 1.3052743714164092
C 0.9312478959854106 1.5600608107465002 0.9884941497373905
