12
## STRUCTURE-ID: 64568ef369bdb533d822413d ; CHARGE = 0; SPIN = 3
C -1.0003846124823816 1.260398241784787 0.29895451831239794
H -1.3742663292236976 1.3053285820733802 -0.7296526077732207
H -0.17759240533929807 1.9694013168425957 0.441012198354271
H -1.8055001954414118 1.4843466579094151 0.9950856926796964
O 2.768882353961503 0.3741205890514688 -2.987125808732636
Rh -0.08278224956136444 -0.6272278669151685 0.4341553980889031
I 2.2081809854369236 -1.1140541184230506 1.6980777807005143
I -0.6247873286576737 -2.706918184011899 -1.1360052217629717
O 1.2147046966168114 0.18502424810452814 -1.3197943106777963
C 1.998237327194209 0.2734365329227283 -2.156704522277667
O -1.8929155028250562 -1.377941716289499 2.6591278971242978
C -1.2317767396786516 -1.0259142830492747 1.8028689859641476
