13
## STRUCTURE-ID: 64568cf5432fae4b70111df0 ; CHARGE = -1; SPIN = 1
I -2.0176090878743342 -0.8029153049541969 -1.0522941170332327
C -1.0919061104554204 1.3974580189082426 -0.38695101126703796
H -1.7231651105543022 1.5612623038743967 0.47774585782063156
H -0.06011341982137789 1.7599825271356113 -0.21221710710864802
H -1.475807833791213 1.8652284688810055 -1.2826960225188777
O 0.9012651565882733 0.057630032904142606 -2.1439039211005015
H 1.710968381450599 -0.2932795122438585 -2.520814701016892
Rh 0.41440492921335725 -0.41843449678090555 -0.20685822267084825
I 3.0130016724145787 -0.5387999148565489 0.3597207189826512
O -0.25535997042103126 0.40207616487449555 2.5791780957510673
C 0.04207483474795659 -0.4105772591336995 1.7217855616369844
O 0.29916438843549614 -2.89105616831117 1.325030499155254
C 0.2430821700674246 -1.6885748602974986 1.3422743693694588
