13
## STRUCTURE-ID: 645689d5368572671c2cdf80 ; CHARGE = -1; SPIN = 1
C -1.4593755939533257 0.002143135916656174 0.4565282765125509
H -1.9186648753889197 0.9523709475041648 0.7333158243496853
H -1.8031182586559922 -0.25069532258448146 -0.55146429552585
H -1.7730328322164808 -0.7763373185946066 1.1531461276491275
O 0.6382973649645708 0.3603872049603587 1.6867283949360958
H 0.1766410568203448 -0.12873741857583507 2.3906879398560887
Rh 1.0522487624587082 -0.8880785912714309 -0.7904231538865417
I 0.7417141473965564 -3.2864814846303485 -0.10509865171930202
I 2.0473267605212304 -0.5849614116522446 -3.159386131417277
O 1.8395233308028893 1.4442268655414028 -0.41532872554996936
C 0.040549643306065225 0.14572385048609385 0.4765969800441843
O -0.20722734552597347 1.765992452639477 -1.306394117263408
C 0.6251178394703246 1.244447090260787 -0.5689084679853851
