12
## STRUCTURE-ID: 645669546d3621208a111e01 ; CHARGE = 0; SPIN = 1
O -0.26006192090535835 0.491550710283955 -0.1536604051137608
C -1.1071122948854077 0.6750456830976523 0.9666798644395872
H -2.037357913384594 1.162342783254516 0.6685962169918823
H -0.5724158573423759 1.3121049173662382 1.6678106335121645
H -1.3555894669567201 -0.2748998206076305 1.4473666111548849
H -4.44894482422951 -2.1585666847553244 -0.8775683115214422
O 2.013587494162979 -0.8011340304222929 -0.802071459648583
C 1.5482549598486237 -0.5651861840570653 0.2853812532646407
H 0.9657494726680657 -1.3105088429510534 0.8469439767331636
H -0.7300928022268152 -0.021127501068645308 -0.8251661329295642
H 1.8573107363978265 0.31210305473149635 0.870881908651629
H 4.126672416853297 1.178275915128149 -4.0951941555346085
