12
## STRUCTURE-ID: 6456683012dfcb62f439082b ; CHARGE = 0; SPIN = 1
O -1.8078008898196944 1.1021374230182337 -0.23212640094074083
C -1.007456640258892 0.6421827351231143 0.7160082915689377
H -1.2209703179344669 -0.34376843353042186 1.1337407418891294
H -2.235313453976167 0.41642710943022737 -0.7715634424343444
H -0.7941570695801587 1.413275196587092 1.4585866486557915
H -1.1606440094854389 -3.6417537899670656 -1.6354027717330968
O 2.028268132849818 -0.4330211807108796 0.5266532391844161
C 1.322089221522311 0.35916906685853833 -0.2635697861367376
H 0.14592272514185828 0.45612130331293277 0.2120446437157271
H 1.1155623083993733 0.017414091565824918 -1.2798049344699087
H 1.6660401634792672 1.3926433918270507 -0.1932232248167046
H 1.9484598296621978 -1.3808269135146392 0.3286569955175221
