13
## STRUCTURE-ID: 64566be822d8c92f0b19eb6b ; CHARGE = -1; SPIN = 1
O -2.720582713797336 -0.620145654986344 0.6237294933220052
C -1.7838828932102895 -0.6083147047897491 -0.4177438269397359
H -1.617699558940242 -1.6430778363406653 -0.7159757514206209
H -0.7988522175809802 -0.18279003071548858 -0.07928832712821163
H -2.130084139292517 -0.039466340680331696 -1.2849596142673638
H -2.984544817016889 0.28622772663687657 0.827313138735459
Rh 1.5083259735095362 0.5955493571314003 -0.2156577193117473
I 1.4986219386358424 -0.10018648456152957 -2.7412118568618453
I 0.5149196922413027 2.9756988625314693 -0.6597217875761724
O 1.7450786809248393 1.331716904374879 2.665736133253762
C 1.6370178766748238 1.051039466144347 1.5535174355754888
O 2.8276867614898116 -2.025720596706836 0.3242713411968292
C 2.3039954163620986 -1.020530668038028 0.11999134142215247
