21
## STRUCTURE-ID: 64567c60d3ac63585e32dfdb ; CHARGE = -2; SPIN = 1
O -3.295838084987092 0.5812970069397503 0.8199744720964606
C -0.7186524914928141 2.0376217396420353 1.9743489998904453
H -0.08981546865575006 1.4806978286143018 2.659494275753489
H -1.7384728127854836 1.670534834580172 2.0219392331313126
H -0.6754739204023845 3.101943281425481 2.1695281211819286
H -4.017954161934196 0.862181879961212 0.253967834470037
Rh -1.7997809172209287 -0.7165787977499943 -0.17879560856664317
I -0.9741239250607111 -1.6110078191145016 2.1631689226861073
I -0.02413510371489299 1.6938032398174856 -0.020103461310287514
O -2.7931552319002098 -0.5759266080153403 -2.985761568042605
C -2.4482197526707012 -0.5353029442712353 -1.8644876390316576
O -0.7886846843721385 -3.1151127382840715 -1.4074805577858955
C -0.5556459151485121 -1.9495947489592664 -1.0712075125637421
O 0.715925804876004 -1.4933271235231536 -1.4431546444348236
H 1.1711911157726747 -2.197534561313455 -1.9475396704535486
Rh 2.2460836497238192 0.4437284338069347 -0.3887410268325206
I 2.0407329676432067 1.6741839433406958 -2.662090890373414
O 2.500001279312922 -0.39238325311609557 2.470469801058234
C 2.3991295060497433 -0.11250606683569907 1.3665757326328456
O 4.934017349449499 -0.6318176140990442 -1.1137084347672699
C 3.91287079751795 -0.21489991284618523 -0.816396378738473
