12
## STRUCTURE-ID: 6456668d09fed1561e3288b8 ; CHARGE = 0; SPIN = 1
O -1.2902002164718998 -0.8151177947645639 0.18244695692022064
C -1.7088167833872854 0.46377709440340315 0.6163794910048429
H -1.4334896210038544 0.638038614599393 1.6605421094597768
H -2.7880105947320346 0.5891026458883085 0.4983506446717265
H -1.1988541010285183 1.1911667337187863 -0.012803441954411769
H -1.7534350583141591 -1.4876336442946083 0.696573034559622
O 1.549540492855365 -1.0367475167841604 -0.086330661465472
C 1.9234747461019814 0.14472442282410405 -0.7543314288630562
H 1.6397767406842356 1.0352409017102415 -0.18280611223583879
H 1.4742305022886213 0.20114467307030798 -1.7510628344415804
H 3.007875978756234 0.12331421414180638 -0.8576139311215046
H 0.5779079142513942 -1.0470103445131713 -0.009343826534466863
