12
## STRUCTURE-ID: 645666d456325a6e1d28a813 ; CHARGE = 0; SPIN = 1
O -1.1590616001054204 -0.2507998563295847 -0.5309411396934742
C -1.9423112809263554 0.4196136317028533 0.4750731317189846
H -2.991371300401458 0.1667357041495289 0.33830471351110464
H -1.8029513606322145 1.4984256910626994 0.4284263042894517
H -1.605125586682625 0.048560467166905895 1.439337454080832
H -1.4636525153571611 0.02583328241464475 -1.4132047822043314
O 1.1724981542790147 0.5084628526421384 -0.15413931767945713
C 2.0392339977588847 -0.2807441920096387 0.22324078039986564
H 2.929002374740042 -1.008449628417935 -1.4627349224961714
H 1.809356129195206 -1.306184833040855 0.5031614717966008
H 3.006269627874359 0.09849041707686344 0.5382829045962658
H 0.008113360257778557 0.08005646358242967 -0.3848065983196983
