12
## STRUCTURE-ID: 645667b909eeca6706224140 ; CHARGE = 0; SPIN = 1
O -1.7688570993191794 -0.5354109764582994 -1.5321876033265305
C -0.36520329927198547 0.1696592031997797 0.8286053756577518
H -1.0827746406652414 -0.3207879017762258 1.5114253313235928
H -0.4025693014333675 1.2423139943457546 1.0335808244433398
H -1.2909603367522864 -0.2840051509851251 -0.692320013490416
H -2.6366071367308908 -0.8415947288304039 -1.2639453506160752
O 0.9863563646167747 -0.3676583699316144 1.135530034067758
C 1.2170441972228756 0.21465839057072406 -0.5699449916808969
H 0.7967623474901188 -0.5531580236687564 -1.1960307882927053
H 2.2951265059800425 0.13450956928147798 -0.4559063528781369
H 0.8885919828552695 1.2154360937970192 -0.7962512895936332
H 1.3630904160078596 -0.07396209954434248 1.9974448243859362
