12
## STRUCTURE-ID: 64566b98682b566532671003 ; CHARGE = 0; SPIN = 1
O -2.1425153247845965 0.0414612755582742 1.066918039635677
C -1.2540506239460134 -0.7188984353426335 1.603219246527583
H -1.3553547786204412 -1.8228177199354847 1.4149669690124478
H -1.0810524066330032 -0.5908323205775292 2.707458138334705
H -0.11418597149939162 -0.49750779963189956 1.1549429692528266
H -0.27600973967599196 0.45747721596693425 -1.7885158943619077
O 1.2536228675403616 0.7086929518007122 -0.37049675218095646
C 0.802962295439435 0.3429846159320119 -1.6946433122090436
H 1.0739039507948387 -0.6981903574988375 -1.851297025407554
H 1.322529292146917 0.9698826157000359 -2.4149578172023096
H 1.102224809581002 1.6661330713842493 -0.2257545048816677
H 0.6679256296561702 0.14161488664405486 0.39815994347993616
