12
## STRUCTURE-ID: 6456680acef45834c173b9eb ; CHARGE = 0; SPIN = 1
O -2.31419549539661 0.33572534338015264 0.5716173706772926
C -1.1672513128033353 -0.6936702569966916 0.25945619689212324
H -1.6201891783307805 -1.3996328634489428 -0.4733534073636671
H -1.103875524066534 -1.2685888282852307 1.2064424179790068
H -2.3033330713386393 0.9520940265853686 -0.1841110358591882
H -3.2013519496166576 -0.0667990384562541 0.6645545091162999
O 2.6800439715134408 0.37701134991609614 0.4692968856223495
C 1.865211615629443 0.2647283425711888 -0.6866875557151657
H 1.743085610420614 1.2422006138019641 -1.1659733003772825
H 0.8750541278057024 -0.15559102833015342 -0.4416256189772423
H 2.3884707750412915 -0.39951499988786604 -1.3727526574763849
H 2.158330431142055 0.8120373391503461 1.153136195481895
