17
## STRUCTURE-ID: 64568aebd05b615633230d64 ; CHARGE = 0; SPIN = 1
C -3.329537732940705 -0.4030910323290564 1.0649540401204278
H -2.6916904667583212 -1.2358671193070556 0.7854551446783058
H -3.8182200034733293 -0.5720114115002768 2.0172652415471877
H -4.045697199233469 -0.17386304533163624 0.2848142881119775
O 0.04207869284934832 -1.160466632545528 0.5117740541408473
C 3.33354770710353 -0.3027625080594019 0.3357340569956107
H 3.812533560108434 -0.10284122869242222 -0.6146934850432695
H 2.584623922401037 -1.0827764298711338 0.24181352839185358
H 4.058782528599539 -0.5326487897044222 1.1061354939714527
H 0.012208050686966168 -0.9706185401005841 1.4559538366436344
Rh -0.1438842899551132 0.5185999846608985 -0.5781852713088572
I -2.030695435664277 1.3210615170767046 1.2874740167981484
I 2.289417308580323 1.4904992494916909 0.9315269537783685
O -0.3957762911550824 2.988578905580511 -2.2526300641744608
C -0.31044427669891383 2.0379560791250597 -1.6146728148028506
O 0.41964834098416554 -1.2642663312588 -2.9187745893297126
C 0.21310558456589906 -0.5554826672345179 -2.043944430518642
