8
## STRUCTURE-ID: 645663ca60eabc5f59399e4b ; CHARGE = 0; SPIN = 1
H -0.21664421122845431 1.665455003067022 -1.954835680323739
I -1.8040610136264663 -0.8732615727691688 1.6112176652191477
O 0.09405027909236517 0.7631536310697075 -1.8423508295446935
C 0.28282451827021565 -0.5015498357629596 1.2457702463534461
H 0.38184923418428657 -0.13714524804561823 0.2306516773948195
H 0.8126986351057274 -1.4351563700410157 1.3797297231979413
H 0.6154678254590981 0.23973782338137872 1.9601945485381258
H -0.16618526725676733 0.2787665691006658 -2.6303773508350456
