12
## STRUCTURE-ID: 645668520e66367fff73b9f4 ; CHARGE = 0; SPIN = 1
O -1.2275950417321937 -0.06472567687193091 -0.9264186711686386
C -0.6837547142400936 -1.3041948409651292 -0.9714142558597474
H -2.7814963064754648 1.229672061855729 1.2963071358015108
H -3.0824030313776594 1.62645804530202 1.8938389241958398
H -1.2621790934558432 -2.002571496949742 -0.3829123043574618
H -0.6974160859703326 0.5463111564226257 -1.4586169914461493
O 2.5683860401983325 1.9324360119964223 1.6699099527826318
C 0.4069860330949584 -1.653698038702689 -1.631008320390333
H 0.7648535589205462 -2.664533690544385 -1.6068307528052295
H 0.974127664688576 -0.9465448869342775 -2.212286860016941
H 2.1024174096978028 1.1031002594803134 1.805093588716822
H 2.918073566651363 2.1982910959110367 2.5243385545477026
