12
## STRUCTURE-ID: 645668e94c71dc0db75c71bb ; CHARGE = 0; SPIN = 1
O 3.485210388751977 0.12271723394288822 0.6301651851414591
C -0.1233409673934348 0.07742804736651246 0.6848051727956721
H -0.7943926844280835 0.8750522998217161 0.9966248060174246
H -0.23917069489673426 -0.7916075935281602 1.3318855868937134
H -0.34697035369739 -0.19452466706210605 -0.3450672891696702
H -14.985133531096091 -0.17488898222052157 -5.984712567554665
O 1.224389674038379 0.5989559556752501 0.7239972573746731
C 2.28518882154999 -0.38108789524566644 0.28283560600857044
H 2.1117817085580284 -0.5037080861592467 -0.7910597181603601
H 2.121546799957191 -1.319810151709345 0.8225958268255106
H 3.8106065866276673 0.7924311138780913 0.009954229144979657
H 1.4502842520284902 0.8990427252405705 1.6379759046827156
