12
## STRUCTURE-ID: 64568e0ab6c3f92ca91a5614 ; CHARGE = 1; SPIN = 1
C -1.4089664143260465 0.3096648278810583 0.0017313244122284983
H -1.6321679499420438 1.3390287113467754 0.28132848413474076
H -1.8298509045897655 -0.39989237927538457 0.7219171854692843
H -1.7476334193931249 0.10106337159421784 -1.0150096575227183
H 0.34032060898233457 -3.411583885950562 -0.8139187165183548
Rh 0.6719694859286154 -0.10335342042020239 0.08577125677425959
I 0.6293951819373351 -2.144138611605079 -1.726691849442379
I 0.9518897311685753 -1.6914838378978658 2.1338305575449192
O 1.0882677870118094 1.8596414298779977 2.308121769501126
C 0.9126408304277513 1.133799035391429 1.4653993500100397
O 1.1221315111546333 1.8713472866327765 -2.1328544242406866
C 0.9020035516399312 1.1359074724248368 -1.3096252801224548
