12
## STRUCTURE-ID: 645666d3718ea80db21d80bb ; CHARGE = 0; SPIN = 1
O -1.2813111203051792 -0.024765885039856834 -0.9320534872845649
C -0.6277746792952723 -0.8355288693717513 -0.06844393925027223
H -1.1715651637724833 -1.0904465434004151 0.845786749913162
H -0.3022846400358781 -1.732430886642055 -0.6034531634770478
H -2.720406414769371 2.0664737325103175 3.427807033032646
H -1.8862396450063552 0.5951267960862403 -0.5020555307248431
O 0.6444272408998756 -0.21154762892820345 0.4091511841874361
C 1.5524493092550913 0.108200225717759 -0.6810893920916031
H 2.3938907431246927 0.6555764031648578 -0.26473474250908674
H 1.0473272947248449 0.6955088448886321 -1.4478409859215158
H 1.8974731778924177 -0.8351953599700039 -1.100010232694251
H 0.45401389728762154 0.6090291709844705 0.916936506819949
