12
## STRUCTURE-ID: 6456693072ab7823160b5361 ; CHARGE = 0; SPIN = 1
O 0.02509912910106671 0.6402199361583885 -1.1684914067961527
C -1.2686687486364359 -0.43555374313667616 2.032767201177368
H -1.774442842195418 -0.8431201020883643 2.8988793531645998
H -0.752181835303553 -1.2381470788058917 1.5216904366605595
H -2.0041744077448445 0.012083376722215185 1.3779637828243207
H -0.4577406443967995 0.3045248547938835 -1.9717372724461684
O 0.9644669578304876 -1.4005386724063371 -0.9590049208687172
C 0.9639928503231763 -0.28539511756941505 -0.6093980131335774
H 0.253881035873065 1.6060838243575775 -1.1675537249923291
H 1.5608176904824973 0.20971852016801643 0.15910072805850092
H -0.5608132382275751 0.3126831548448824 2.3636713432318635
H 3.0497640528943397 1.1174410469617186 -4.477887506880271
