20
## STRUCTURE-ID: 6456b6bd8259d177e7390828 ; CHARGE = -1; SPIN = 1
C -3.1428652726840376 0.44253932951087427 1.3447346975778847
O -3.971142485004659 0.25403363684146574 2.1065975178846963
I -1.2097309837802686 -1.7617923134838396 1.3780613550745235
C -1.6583354578937135 -1.785109089622586 -0.7369326064889863
H -2.2954095361249602 -0.9303817275996054 -0.9385935646980542
H -2.159098036177558 -2.7193749552618676 -0.9582635926792444
H -0.709672801585905 -1.7124906812920797 -1.2562637461088249
O 3.2140008835326017 0.2743145083446257 0.45129659181192355
C 0.31752756841182994 1.0244205519624316 -2.6219888398829947
H -0.5026531289547785 0.8206803573156859 -3.299466100455122
H 0.8660990808216156 0.11908438354254058 -2.385327822691224
H 0.977527370584394 1.7855039030617905 -3.0203541880976714
H 3.783471378727911 -0.22920199417490159 -0.1654717453807467
Rh 0.5677146023477752 0.7751478719861452 1.4533474584213901
I -1.2334577384049068 2.282773442284081 2.8221738796465456
I -0.5215863866265815 1.7600439081812422 -0.7535026085756137
O 1.6689731090113538 -1.0559091782795795 -0.4268859372805945
C 1.9211150913862325 -0.15003338545512873 0.3710229040946876
O 2.4054959408362624 0.3062753825576136 3.7636568670474215
C 1.6820268015773707 0.4994760495811207 2.8721594807800925
