12
## STRUCTURE-ID: 6456680d5b95f4777312b093 ; CHARGE = 0; SPIN = 1
O -1.6338465591588796 -0.8038653246987135 -0.8078067580098827
C -1.1135803820517318 0.4019158388566192 -0.4500529725109618
H -1.131094462959575 1.1749106930956836 -1.212977534660394
H 0.5849058869323723 0.33596754953032304 -1.1486021398450847
H -1.6231077340595526 0.7569179446262629 0.44447675129246844
H -1.41014578598163 -1.0404614219126898 -1.7196370087170363
O 2.0017608426683746 -0.22657792043136493 0.36616675363943635
C 1.0170904594632681 -0.2076845844947956 1.2247335851461731
H 0.03382356576893974 0.09842879493294009 0.5774823673759272
H 1.0750966275601446 0.582480684776002 1.9875201354657561
H 0.7496988445394367 -1.1832789049379457 1.6551263956417464
H 1.4493986972788373 0.11124665065767604 -0.9164295748181502
