18
## STRUCTURE-ID: 64566e08ae6aa94c8f390814 ; CHARGE = -1; SPIN = 1
I -2.2682148747549813 -0.04479626778767015 1.2263462720093532
C -3.4497486168645475 -1.6888907383004295 0.427962591213083
H -4.425405325524917 -1.6386859599431938 0.8942397834456923
H -2.9278206881893967 -2.607370018226425 0.6661700500435487
H -3.5012531940433083 -1.556106764976493 -0.6459397982129589
O 1.4096860461769936 2.576132751093596 -3.0284061509972213
C 1.775509230626317 2.423186989999998 -0.3152455639933543
H 1.787632327722721 3.2782194129661804 -0.9726747449184105
H 2.785553134650408 2.1634918739593685 -0.01605050575973688
H 1.1551427973424084 2.6078658459511943 0.5559801610386504
H 1.137721854319385 2.304381654246064 -3.9048193326811482
Rh 0.604761289470414 -1.0189333894444095 0.4545856649463163
I -0.36353325159545585 -2.2457250634049095 -1.64410288735972
I 0.956999758384227 0.8179282892814432 -1.4130968644723465
O 2.378516721464611 0.5753797222916044 2.2643164099515007
C 1.6706203339622272 -0.03907652377922704 1.5871456817198992
O 0.6920920897812728 -3.3992556655212356 2.288825785946566
C 0.5817403670716028 -2.507746148405448 1.574763448080255
