18
## STRUCTURE-ID: 64568b09f44ae1542e670ff4 ; CHARGE = -1; SPIN = 1
I 1.4563817094372538 -2.3904355926071212 0.23094118437288083
C -1.4566168856138133 1.29435619689641 1.3117366811459998
H -1.5714742121612695 1.849114984871355 0.3734901984734676
H -1.0041284637671848 1.9534078507428552 2.0579068716029747
H -2.4490674782182107 1.0132534674180214 1.6737567059690472
O -1.3289859716798094 -2.0256564271873274 -1.8768089525758598
C 2.94605459201302 1.003545754534552 -1.012930239487593
H 3.708280220580494 1.7491720276099336 -1.2019687489873976
H 2.1512024464023765 1.0479082230953416 -1.7491721465261716
H 3.367960978459696 0.005473350111820589 -0.955182616116996
H -0.7815442629023162 -1.9182322727812344 -2.681223077471041
Rh -0.206708873162978 -0.3429372503865384 0.9059692406784786
I -0.3005123225884183 -0.9418341854532392 3.4605068801448997
I 2.0597824029385623 1.449412134736695 0.9152629340939539
O -0.654596169698795 0.05831536961139659 -1.3696557172295392
C -1.2611671816465142 -0.9819221587666082 -1.0663358986091511
O -2.851259496626021 -1.6566759991766096 0.686516072626131
C -1.8236010317660805 -1.1662654732697022 0.2971906278958856
