12
## STRUCTURE-ID: 64566876f5904618fe159878 ; CHARGE = 0; SPIN = 1
O -0.915100815350657 -0.4367709475553351 1.5748026891424007
C -1.9451646709019639 -0.2894596456457979 0.626428862091351
H -2.1242262202150957 0.7645166196604549 0.39036110809896557
H -2.8476747546692414 -0.7113392048712438 1.0675333504351576
H -1.717406451690021 -0.8297857032842942 -0.2987921029661051
H -0.10480233082022807 -0.04204950080352455 1.2044113646429138
O 1.3841103287187142 0.6248598540368158 0.23454575728393603
C 1.4987236447074004 0.1783627996243588 -1.1021046130927976
H 0.5282491897162845 0.33499702803577636 -1.56963703000927
H 1.7496043684078428 -0.8854389128362747 -1.1457659387802168
H 2.251205636097271 0.7518783352909614 -1.6488722113409449
H 2.242482075999664 0.5402292783481232 0.6670887644946245
