12
## STRUCTURE-ID: 6456659963fc2f165c2a1573 ; CHARGE = 0; SPIN = 1
O -0.6829246885005654 -0.12714147007104037 -0.4694005611970822
C -1.5052940226003837 0.5344201098377183 0.49059665130354146
H -1.8798970618353092 1.4460577225854414 0.021973465726001146
H -0.9472496327846562 0.7929673937809292 1.3922254121041147
H -2.3282948527297114 -0.13499683135692392 0.7368007656527069
H -0.5524044061467753 -1.3820638873768643 0.13987733679187583
O 1.9383658127808232 -1.5566947250320722 0.09474624718992794
C 0.4669947315567358 0.5152975246381497 -0.8065132582141491
H 1.5474013881127786 -0.7238025406422998 -0.3464433343567141
H 0.7930673371288675 1.329384955321796 -0.1841952709988022
H 0.6455710269344128 0.5329375173417406 -1.865153317089661
H 2.5046643680837812 -1.2263657690265808 0.7954858630882405
