21
## STRUCTURE-ID: 645674fed9223178b611299e ; CHARGE = -1; SPIN = 1
H -1.797410017897083 0.8450303688061875 -1.318644628757095
I -1.0847851069147105 -0.20575317984237737 -0.01081381663890334
O -1.7721468551293358 1.3268812942359243 1.032768302862613
C -0.5330345647183565 -0.9465124824774909 1.9921310116741584
H -0.6909738505960472 -0.12057512545576642 2.6737087769454253
H 0.5100259219866113 -1.2418932124491406 2.002908395233512
H -1.1613776070181647 -1.7825888556445235 2.269656503561777
H -1.3426210022343024 2.0626766057509016 0.5590470854898968
O -0.1511777979060336 3.0242036174406985 -0.2581412386102356
C -0.6048122264429998 -2.622619486224956 -2.4721956154380345
H 0.34768402311167534 -2.4395384782335237 -2.952311847617487
H -1.146789083632356 -1.6920651780176947 -2.3202986814780253
H -1.1903201419121274 -3.357292560434357 -3.008351865094318
H -0.04668172115576713 3.830448714332048 0.24936121497332145
Rh 1.3003378114121227 1.482558233058026 -0.07342878977010843
I 1.449463895013394 1.234248273854956 -2.6626064388599575
I -0.21664300612013845 -3.3953721922751035 -0.5171028794827899
O 0.9439262208411687 2.4194895377276935 2.727845622312871
C 1.1812295605366563 1.9720484406889787 1.691378823500447
O 3.4079091649465934 -0.597433369073014 0.2704253575418695
C 2.59819638382922 0.2040590342325608 0.12466470765107138
