20
## STRUCTURE-ID: 6456b6e230ee0e621b351d7b ; CHARGE = -1; SPIN = 3
C -2.886938295149205 0.6900651382645996 0.5105606668279754
O -3.9169111872992035 0.1991752189679 0.6306861220574088
I 1.9344134023223587 -2.04792333837705 0.5028980544114129
C 0.35413103610365637 -3.3543345218274405 1.2261101076534524
H -0.5504141017514093 -3.105486368638973 0.6794202646617618
H 0.2278461881836615 -3.1530983051195376 2.2835063055030114
H 0.6657275356267149 -4.374334577209419 1.0406751663315714
O -0.7374910886898158 3.038669369999391 0.8748511311134786
C 0.5929175727288502 -0.12439108223025772 -2.846706747986057
H 0.24191985670373373 -0.2836787883631023 -3.8573134559061715
H 1.4464375093911723 -0.7530005462150865 -2.6176474436863764
H 0.8135077342371683 0.921722062369995 -2.6625650398708283
H -0.9059115573121256 3.9270647699161843 0.5005851124062309
Rh 0.48718681210261516 0.4183472175893144 0.6168410736909861
I -1.1994585217437301 -0.15668965121661804 2.7238197611784742
I -1.0300033819146313 -0.670811832678747 -1.4908695798568725
O 0.24750134411822267 2.667054035262262 -1.0904884003933666
C -0.08780653273703606 2.2411609111531203 0.01721789471274149
O 2.418303543041844 2.486164632534309 1.4617055381200754
C 1.8850421320371782 1.4343256558191473 1.4967134690310862
