12
## STRUCTURE-ID: 6456699de7c40a3c5228a810 ; CHARGE = 0; SPIN = 1
O -0.5611422765780607 0.7655194431223245 -0.0263367528318472
C -1.387039903836392 -0.34091859466973434 -0.4664205926258488
H -2.3809937654159117 -0.19651393673133383 -0.048040299087862975
H -0.9679524153927125 -1.289917360068528 -0.13187377494498478
H -1.4369214570464601 -0.3062147714791342 -1.5533204531517566
H -0.48490204260084135 0.7150008575611424 0.9566120050721976
O 1.3213794305929683 -0.5002449578724387 1.0715244199755856
C 0.7910164188364257 0.6763870732255441 -0.4800758198987671
H 1.3177138220404485 1.5896190798936 -0.2166408773982488
H 1.453071220867507 -0.3029650865534587 -0.06078101719155045
H 0.7956709865737664 0.47204507643973215 -1.5528240460601168
H 1.5400999819592562 -1.2817968228677172 2.5081772081431972
