13
## STRUCTURE-ID: 6456888e00edf5380d4975ad ; CHARGE = 0; SPIN = 1
I -1.4844149581978692 -1.0366769328646532 2.121127827710115
C -1.2615982840971935 0.1690530700408715 -0.8384601457577866
H -0.8372333402639294 0.6816938157327707 -1.7040895141298853
H -2.0632030008787243 0.7637207351144284 -0.40315178015908537
H -1.6579824826912655 -0.8036703690334622 -1.127878610791209
H -0.9065656677919036 3.3474905200331455 1.394330476642735
Rh 0.35501284722315424 -0.04863985018184122 0.5469201649235266
I 0.2512390046720997 2.990458368153038 0.37431585969832637
I 2.511805219988903 0.23663474340938603 2.085056473851734
O 1.2977318802348379 -2.905098197986805 0.5424910409555733
C 1.1008056467350364 -1.8291221770873192 0.08835244366373408
O 1.4933015517758637 -0.6077461454108408 -2.08423430351535
C 1.2011015832909775 -0.958097579918728 -0.9947799330924098
