18
## STRUCTURE-ID: 64566fc02996090287051b8b ; CHARGE = -1; SPIN = 1
I -1.1416804702521473 0.8466516651580343 2.7031352389176915
C -1.857289396553048 -0.7610199498387668 -0.950105987441906
H -2.141616845796275 0.2741442906125178 -0.7459238608400474
H -2.5845531164757407 -1.1795892931445306 -1.6604030912003354
H -1.9521480097253687 -1.3128291016494578 -0.012393601048689367
O 1.1567329846357646 -1.0533766521452155 0.7584769376200714
C 0.7554313142059532 1.8197436579734498 2.9056533721980133
H 1.2315282413362425 1.8088162711090034 1.9330702395529182
H 0.5743487094977205 2.832573524774613 3.239734087795901
H 1.3377490319863403 1.2626434522492915 3.62721537649014
H 0.8938145707631929 -1.990745725199544 0.645358823076027
Rh 0.019216438684183122 -0.9806401709366258 -1.8438099693835999
I -0.045213394485974764 -3.5557780677359987 -1.3070679714704074
I 2.2801801548166707 -1.1556797932383083 -3.335018277064428
O 1.1726413629228762 0.9418283644028026 -0.17026640341572338
C 0.8702486617076348 -0.22439415241256577 -0.23832968396375348
O -0.3639121854301113 1.7268435175480898 -3.016447664401947
C -0.20547805183787357 0.7008081624732179 -2.5328775654198856
