12
## STRUCTURE-ID: 645668636dce7d426a333be6 ; CHARGE = 0; SPIN = 1
O -1.042859775384542 0.5066858009402015 -1.1301906263482804
C -0.988786340051663 0.9118442101350189 0.23056388545568043
H -1.888460019183396 0.6792851901402245 0.8043319692745854
H -2.461729728083179 -3.5713460126114436 1.0656120900670847
H -0.8169740045862431 1.99552443141588 0.2730524123836423
H 0.008650195604264787 -0.207773798546918 -1.0432288628300657
O 0.79757391865205 -0.49147663025315397 -0.05645487350980268
C 0.20817626427366542 0.18519342430659091 0.7689436273069288
H 0.5271346172149499 0.27995491833436703 1.801693124574839
H 3.9827644011961363 0.17145523382215033 -0.7527555479204378
H 3.5026069536087583 -0.4275260759527026 -0.62746744602279
H -1.8280964832608106 -0.03182069173020795 -1.3340997524313805
