21
## STRUCTURE-ID: 64568e0a6fd4575b88230d7b ; CHARGE = -1; SPIN = 1
H -1.3081530124594478 -1.2971822664003922 -2.759253696911722
I -1.2758592797536388 1.2401083569171625 0.4422115075618551
O -0.9515814832269928 -0.4027973857572133 -2.8195927946587602
C -2.741455190034732 -0.14548675050788104 1.344349281831675
H -3.6423016605102183 -0.10636570899205815 0.7446930225129172
H -2.9271261999388503 0.18722024520426064 2.3579292210690914
H -2.305668854521235 -1.1385442903496155 1.3259174359814312
H -1.703184398963342 0.17936001649193395 -2.972304179435806
O 1.6210179132265283 1.0524897669207172 -3.405102512884016
C 0.7094581336621353 -0.4184982049318881 3.3960984180679286
H 0.01893915032845507 0.4162415482992142 3.3512027545277943
H 1.0917054862957434 -0.564214818847137 4.398063632649826
H 0.25089728301056974 -1.3250802653406855 3.0159413075958645
H 1.6238942747698226 0.2747240242291896 -3.9887929574024605
Rh 0.811476446566075 -0.05469929218829061 -0.5670965452353628
I 0.06842866931853916 -2.5513008465441387 -0.016017350090891055
I 2.406460599579623 0.05788407425829721 2.107401340252664
O 2.624989732521419 -0.4114226085278551 -1.9668281127115046
C 2.0543349519766125 0.6997123971628203 -2.1579420186491456
O 1.8907198860386683 2.7397276543995286 -0.7717700743430819
C 1.6830075521142651 1.568124354503985 -1.0591076797282786
