12
## STRUCTURE-ID: 6456655b7c8b5768ce07102e ; CHARGE = 0; SPIN = 1
O -2.9453072158526363 0.0008205391880024544 -0.9922200108598377
C -2.7222888458865104 -0.004300319327740715 0.4008405743636173
H -2.1771173497893783 0.888321684412266 0.7225076422853257
H -2.1749810866399737 -0.8980833116701686 0.7156472223432331
H -3.7029838443499177 -0.007209637717326751 0.8733774734940093
H -2.093497931527412 0.004054149659804097 -1.4454244039805637
O 2.8978758249034384 0.0064932323681418415 1.0051584063228656
C 2.7383238176136686 0.0007680282618104272 -0.39655692079140126
H 2.2105400261447916 0.8944924512106587 -0.7432444357050657
H 2.203552919973327 -0.8919297066776436 -0.7350857096661403
H 3.739390164929366 -0.005018640366570087 -0.8243439326230584
H 2.0264935204812433 0.011591530658764069 1.4193440948170182
