18
## STRUCTURE-ID: 6456734f987e832a320b3f60 ; CHARGE = -1; SPIN = 1
I -2.891249045211381 -0.3927015957068343 1.4441243558567596
C -2.3884099641465704 1.654409106782293 0.02269606397918487
H -3.4350887183706256 1.9128953933337585 0.050625328291173444
H -2.0868801778580055 1.4279475473296603 -0.994410423346358
H -1.8052949977084287 2.436499654881333 0.5041323225654256
O 1.8333340929178152 -1.6551834991421628 0.6234935577883056
C 1.0722782865383362 -1.3476623992255705 -2.6488247833347183
H 1.9375980915405215 -1.7026489623862509 -2.1015941422335507
H 1.210034366428193 -0.31617846948259576 -2.9557975758788335
H 0.838279126545676 -1.9868227031104386 -3.4914406623294405
H 2.548896950726778 -2.188138542168882 1.025027728118227
Rh -0.26171538990825527 0.26996300695373815 0.7950236999882968
I -0.6052057525191802 -1.4125868450268604 -1.2876749892462689
I 1.240785093494868 2.1241523026384157 -0.8134519845384788
O 0.1611114888282803 1.9444887351422389 3.217563134691295
C -0.021308834026248797 1.268033064445403 2.299651977825735
O 1.5014593992920986 -1.0833511173015606 2.7399527462742337
C 1.1513759834361357 -0.9531146779556836 1.5709036455289862
