12
## STRUCTURE-ID: 64568e17a80a84502c1f8bca ; CHARGE = 1; SPIN = 1
C -0.6244446042911683 1.8960473233483854 0.049560251763890006
H -0.08089713601221596 2.7938041646539897 -0.27486423190709836
H -0.539725103180977 1.7656433545403751 1.1373154802880685
H -1.694451373836025 2.0453635060092745 -0.16343300332936966
H 3.3079526204741323 -0.17876759550697832 -0.7577634785835448
Rh 0.05814386031925706 -1.1691573260158417 -0.2048229972855898
I 2.7157140492919494 -1.1592605871340298 0.3482230059823964
I -2.4999656061593383 -1.3165008650144556 -0.7424114679863734
O 0.3440130801425583 0.3068393912329267 -1.6171227938223458
C -0.16383052525989986 0.7675296832601407 -0.6656746833049336
O -0.5289502319602924 -3.2812415030482454 1.8205502995650513
C -0.2935590295279862 -2.470299546325525 1.0704436186198425
