18
## STRUCTURE-ID: 645670c8d8a73746a41a5623 ; CHARGE = -1; SPIN = 1
I -0.8787638129137397 -0.24227848986199516 -2.5963583985336385
C -2.732113362442978 0.10850551330022241 -1.0277198583029805
H -3.244445256152198 -0.8073837149641863 -1.2960410643941143
H -3.1511808438944215 0.9642237493737724 -1.5407989586668065
H -2.78235838335688 0.2563424697450224 0.07346122031938196
O -0.8570783827553473 0.6949158617035155 2.7066925738908587
C 2.6169351928336835 -1.1608941829686519 -0.8873064972509652
H 2.2526110374561252 -1.5334457123214666 -1.8370745749137105
H 1.8918614060405121 -0.48042842744170733 -0.42849987469640477
H 2.842539841121019 -1.9742546073766245 -0.20961422944503297
H -0.5135255645927012 0.7782563207050817 3.6181910444764065
Rh -0.5782676670567134 0.15972087618308117 -0.00997632398069443
I -0.7691274232598241 -2.4058820530079585 0.6240974317654738
I 4.405848733261484 -0.06302355956414049 -1.241777729065453
O 1.2866792681708095 0.3213928116490703 2.2253510801945766
C 0.13261780818991567 0.3991286052592293 1.8222517072931732
O 0.21920091449621087 3.0395626170988606 0.06497408345086045
C -0.14143350514495895 1.9455419224888837 -0.05985163214093853
