18
## STRUCTURE-ID: 6456707e05a92365c12eaabe ; CHARGE = -1; SPIN = 1
I -4.839837917052516 0.9509774074489203 -0.6222571665969185
C -1.5850868462142476 0.7100306712617768 -0.40841131388103746
H -1.9199366038480148 1.7411087867377817 -0.31770445974162403
H -1.8792677201818593 0.30052823422412583 -1.3703915576773815
H -1.9856590288822051 0.11216864527427281 0.41314760027168257
O 2.0974008289215322 -0.1905634998824764 -2.1212554518104625
C 0.8490638270060246 -2.1519160654508127 2.7275833375375464
H -0.028559774006582182 -1.7052957387595915 3.182763493201082
H 1.7490514960454653 -1.6251690930468978 3.02750161812607
H 0.9121653008579816 -3.2147565822141333 2.9341309970314384
H 2.3931592615342785 -0.5069819302574655 -2.999406432433647
Rh 0.5170009377454877 0.6091939137785899 -0.16489300283194183
I 1.0290003436745188 1.5341189881765491 2.265910207647223
I 0.6348192502184365 -1.9425007906061442 0.5588530048236325
O 0.016565370288466507 -0.24913343971649834 -2.9500635013721745
C 0.765306893365978 -0.028392684176912424 -2.0304109325360478
O 0.6646752906172129 3.3590408616715077 -1.275523687906723
C 0.6101390899100291 2.297542315537406 -0.8495727518507038
