8
## STRUCTURE-ID: 6456637d0ab6f247ba29341d ; CHARGE = 0; SPIN = 1
H 0.1304481398319915 0.9484208099960507 0.7836678433646204
I -3.9423539621832604 0.16040932047136308 1.9521064429658876
O 0.6904139953972874 0.16438129909911772 0.5861690352611799
C 0.678356298343769 -0.11550360637208883 -0.8403648552980739
H -0.3254582064514184 -0.330228386003471 -1.201472281075942
H 1.3302559739858952 -0.96801956955189 -1.0140097449966246
H 1.0809356156531036 0.7554959774153474 -1.3513063378119596
H 0.3574021454226283 -0.6149558450544386 1.0852098975909257
