18
## STRUCTURE-ID: 64568a123d8ac3772c068a10 ; CHARGE = -1; SPIN = 1
I -1.8124753579740434 2.9195584915549 0.45288361766853397
C -1.8374401001928198 -0.2875076222696749 -1.0607785807324863
H -1.7445711658475875 -0.5961564951428029 -0.01414085345287782
H -2.8787487550479662 -0.043721028607406995 -1.2691638580363471
H -1.4918312860678593 -1.0818820170551777 -1.7261395407730644
O 1.8431249185089515 -3.0425853739845343 1.2852000949225384
C 1.1914270354442813 -0.6678333615449675 2.5049118326071276
H 0.1762932823322727 -0.8137428967027325 2.851560684627969
H 1.5064453393284971 0.36128893823734926 2.632215358556859
H 1.8697626651688444 -1.361763781350335 2.979701193017359
H 1.9463108948152374 -3.708280735025575 0.6044099321612438
Rh -0.5321846743473739 1.340238916416518 -1.2712996257926654
I 1.4543538445089834 0.45379078291365976 -2.857956627257253
I 1.2591219007357561 -1.0855610678195937 0.42030091047203016
O 1.6434375996254242 1.8815643403166795 0.680746514237475
C 0.873640537950453 1.198933568694943 0.07557159250529072
O -1.894677293683047 2.6235444976835294 -3.5663275367411074
C -1.5719893852579556 1.9101148436852267 -2.7216951079906972
