17
## STRUCTURE-ID: 64568eac5d7d8b710f46226a ; CHARGE = 0; SPIN = 1
C -1.3918402333353808 -0.04364231018019923 2.140272708342542
H -1.3000351608272633 -1.08043923465615 2.460737976881849
H -2.432006632335623 0.2611764237234542 2.254568854501511
H -0.7688586169528551 0.5915543346312807 2.7636742582743636
O -1.6067633791545683 -0.6439544360581912 -0.20247412086194658
C 2.582670891359786 -0.9630029691616325 0.45941383251585705
H 3.6600613606865697 -1.0762790927507533 0.4867444011749223
H 2.0884704372566922 -1.8280001082172876 0.886189244330255
H 2.272068083773517 -0.04213160134055621 0.9400087213191499
H -2.336322913867004 -1.1999847720704313 0.12409412773247457
Rh 0.021939240761156754 0.92066232888165 -1.7548292621355719
I -1.9090573646794782 2.6997442560605194 -1.6983248807905726
I 2.0027918866640153 -0.8262450975524672 -1.642191243576241
O -0.10378895281241268 0.8386215888444303 0.3272225346153429
C -0.9925161683166448 0.09515061770649419 0.7160503076915998
O 0.12338874827964366 1.2145447680975388 -4.703621332889186
C 0.08979877349984626 1.0822253040422924 -3.5575361271263515
