12
## STRUCTURE-ID: 645668072bfb873d4c224146 ; CHARGE = 0; SPIN = 1
O -1.222704434451384 0.716863446558048 -1.1375779399522425
C -1.4461202654520173 -0.21263460260352335 -0.167280302620018
H -1.6859455897794062 -1.2120296601830303 -0.5506750118604911
H -2.173832653809004 0.13090025892838136 0.5695665924959924
H -0.3892652397316028 -0.34226782964415126 0.34927408249863334
H -0.20830906119467832 0.5226985748069021 -1.3700327231787266
O 1.1422106467648045 0.07060348066054839 -1.1219294603637708
C 0.9495368072409668 -0.14958985059544416 0.9642972964803034
H 1.803142673601448 -0.7612785522874143 0.7268619717226207
H 0.41940205988092133 -0.5446267756191788 1.8293233798201713
H 1.1591086525281056 0.9015637427700431 1.0664231048496389
H 1.6527764044018485 0.8797977672087741 -1.1582509898921305
