21
## STRUCTURE-ID: 6456797719513755891dbeb1 ; CHARGE = -1; SPIN = 1
H -1.8233286995377536 -2.3881829315893244 0.20886850265412976
I -2.2281686243889833 0.9211849262025288 2.136707072503372
O -3.251559675092195 2.6441700578531413 2.0939050748009134
C -0.9986022567610856 1.9715020471003837 -1.2833244401771016
H -1.9627616324902681 2.2951825549055367 -0.8926059772844668
H -0.2291721023753109 2.2404858217982264 -0.5621510657876131
H -0.799892953028032 2.485413183039565 -2.220081583782596
H -2.709665255946601 3.335213376132065 2.4993164621853317
O 3.7109200398990883 -1.2724806681910743 -0.3409359339419804
C -1.0656537817484257 0.48191781871311873 -1.499950354562739
H 3.920245879960787 -1.5493528802126686 -1.243783692082896
H -1.2704138823472424 -0.0877379423378992 -0.5960747362809113
H -1.7931873540464578 0.20407320253439973 -2.257352295696057
H 4.1651031521370685 -0.42469593553808993 -0.19597592890206042
Rh 1.5915910032065461 -1.3565702975773182 0.5318519611798356
I 0.8049052685576393 -0.31862568400261043 -2.218962993188557
I 1.8828236310498847 1.0212473992420217 1.4401020104785314
O -0.562366578040702 -1.3772887648683494 2.569783508381153
C 0.21407751835610286 -1.4359931590395623 1.7205256520941403
O 1.0775004437239581 -4.247612818266432 -0.025585720495010386
C 1.3276058589120077 -3.141849305897689 0.13572447790456502
