13
## STRUCTURE-ID: 64568ca761abf93a46670ffd ; CHARGE = -1; SPIN = 1
I -0.9993072210835457 2.1465491092726023 -1.2126821153068243
C -1.139654186051708 -0.8879571945578376 0.5716292606121145
H -1.2517207041191378 -0.8232944231624654 1.656950590367586
H -0.9237883798836594 -1.916171057621889 0.27751940767562366
H -2.040616650149528 -0.5293165607722145 0.0731473710969229
O 0.36456520625795635 1.489021645551081 1.7691798238693028
Rh 0.475017182984132 0.350116314456818 0.06813099677335771
I 2.148248462412498 -1.233424757532563 1.325891017983945
I -1.184302206050526 2.1065616804092984 2.7473125665064884
O 2.510607053635505 1.0014301158643912 -1.589306399149067
C 1.5377361787980204 0.323944113908102 -1.7046855840157373
O -0.045331300352369874 -1.4198655396840971 -2.3224546547633866
C 0.5485465636023514 -0.6075934461312277 -1.6606322816502954
