18
## STRUCTURE-ID: 645688fe8e1c1d4dfa1dbea0 ; CHARGE = -1; SPIN = 1
I -1.075813941901335 -2.0959600959389535 -1.2361215866817934
C -1.844515484141611 -0.3942083026756305 1.6926103208865122
H -1.8679945091995092 0.5999617647454788 1.2183869912506375
H -1.940619967632957 -0.22738395304928838 2.7675271886275463
H -2.7344793959191023 -0.9287026733258854 1.352631006726424
O 0.8345657483746566 3.3155843593552126 -1.6177549832411025
C 0.8356622044691387 0.7295037224550827 -2.4530853940212483
H -0.1682272351942924 0.5824046503430325 -2.830842371831309
H 1.4063782893630394 -0.19085098144265883 -2.495985465221296
H 1.3306066210785 1.5314918868476777 -2.981569765195063
H 0.7923309830790563 4.070164107828878 -1.0307838134168563
Rh 0.11445080251264676 -1.0068324705391514 0.9022345189301348
I 1.3130719106780682 0.319687998141984 2.888239896898442
I 0.716049025750848 1.3597003689165759 -0.42866827694099846
O 2.750834822056402 -1.323438981021035 -0.5465961302272115
C 1.7727167310049257 -1.2531449127125227 0.06819024301732281
O -1.4248964622634974 -2.902738807505922 2.6969371405482794
C -0.8101201421149309 -2.1852376804228353 2.0346504798916167
