20
## STRUCTURE-ID: 6456b6d4d43197342c224134 ; CHARGE = -1; SPIN = 1
C -1.1205484504348477 0.6193097801021125 -1.4925767253162219
O -2.018163816719781 1.1107082390060912 -0.950056999752602
I -0.09687478654681368 3.2388016783217117 -3.3517655156009156
C -0.4730593805663833 -2.599296830043927 -0.8524899274185777
H 0.36111124576118325 -2.818241767576077 -1.509215362597891
H -0.8147148403261907 -3.512266511693486 -0.3793720975806867
H -1.2661893659448866 -2.1095367297162406 -1.4065351693723085
O -1.6038779643888332 -1.4949116893571601 1.419299242609098
C 0.24110370981339058 -0.1643016102270438 2.6471441647832568
H 0.03833110696081346 -0.8644526015877076 3.4465270771976204
H -0.5422794916692211 0.5831431454721648 2.603023894605306
H 1.2108589305720356 0.3029844666361046 2.783292088753254
H -2.083264487904165 -2.182881496562811 0.9532057351013652
Rh 0.8573040091555975 0.9091720521472934 -0.7493844020450002
I 2.2452850850286774 -0.5984993238455419 -2.397891128052543
I 0.31134359320038835 -1.2372583805135091 0.727293982680141
O 0.36864804396702416 3.010093813996624 1.3238085652917035
C 0.5298863637039389 2.1416671377470915 0.578509654168662
O 2.3972487249478993 3.1863354718867707 -1.6732030510252218
C 1.4578517713904728 2.479431155807708 -1.7196140264284485
