12
## STRUCTURE-ID: 645669a8199c946e77374198 ; CHARGE = 0; SPIN = 1
O -1.3926291193027667 0.3593749358014131 1.1987473563770348
C -2.0643765073254294 0.0942745243805869 -0.009781986240948505
H -3.096280446249521 0.41799834121625695 0.12146433931815744
H -2.054579750440248 -0.9741930159476446 -0.24809113281907652
H -1.6226318195332088 0.6505216863072453 -0.8436265977892485
H -0.4729994318390243 0.05019571338591951 1.1070376092275749
O 1.2943389847932247 -0.4772904822104708 0.6699576981553033
C 1.778340628412722 -0.03413782083772881 -0.5825947304248013
H 2.7089515868654286 -0.5407173215267512 -0.8498201906263648
H 1.9389087791193367 1.0477514397033307 -0.5860966109738186
H 1.017160082808928 -0.2838819134217827 -1.3197206890557986
H 1.965797012690576 -0.30989608685037584 1.3425249348519797
