13
## STRUCTURE-ID: 64568c530d1a55476c4975a4 ; CHARGE = -1; SPIN = 1
I -2.986401173294671 0.7803623720105354 3.857932422559675
C -0.2367692138750974 0.777054798665847 -1.689377710815299
H -1.2152583428428037 1.1953832718735669 -1.4462147997052626
H -0.0672684257430744 0.870979817301803 -2.759021102862619
H -0.21624122709302582 -0.3185167734763181 -1.4244732362012238
O 1.2376238491759362 2.649701484757083 -1.3562364728482803
Rh 0.5099687396138897 -0.8406161580304103 0.3015959993901372
I 2.231101466852407 -1.4314110136638258 2.202548582778817
I -0.5913008333223807 -0.1901757946974222 2.6756634683805562
O 1.2602634530573187 1.038709973946229 0.16071998565482526
C 0.8488760675350424 1.574178257572616 -0.9180363619016679
O -0.6040895845030795 -3.5862875777840264 0.15653953596441772
C -0.1705047755604597 -2.5193626584756825 0.23835968960592271
