15
## STRUCTURE-ID: 64566ea37d31cb371a41e57a ; CHARGE = -2; SPIN = 1
Rh -2.120309246844848 0.029471685171300416 -0.4941033877805679
I -3.211959899542261 -0.4405725103612927 -2.829456429248864
I -3.837893157677582 -1.470992141586563 0.7926292398361504
O -1.3918732410583514 0.5206481397386202 2.3775496430943677
C -1.3844151515210998 0.4084964497126563 1.211985921366513
O -0.44536687968790883 1.7208684908491112 -2.330402544335888
C -0.8729144271118519 1.092520844229298 -1.4394057410945236
O 2.6803427667796065 -0.49471549775334206 1.5523391586788717
H 3.6353239511653155 -0.7076808982600996 1.6269319195799987
Rh 0.4443808350453988 0.4052025536634326 0.11152581341245882
I 1.073720077908327 2.8094426812713134 0.8724273380264015
O 3.19336241341682 -0.04683477009314014 -0.5708633146123558
C 2.352400540662386 -0.07382594363672136 0.3158478511713732
O -0.15081352430911293 -2.4222138851202297 -0.773447010130945
C 0.03601494277522781 -1.3298151978243355 -0.4235584579630036
