12
## STRUCTURE-ID: 64566b76c9e7a106416f2ca6 ; CHARGE = 0; SPIN = 1
O -1.6907556917241227 0.8221612836054648 0.14441889669731428
C -1.1609500116024125 0.5496724236827936 1.2470065034889164
H -0.9659937539996717 -0.49374162674895306 1.52152488292025
H -1.3744539959718995 1.2066400476825871 2.0982953818691343
H 0.3339777056520205 0.8831488902601056 1.1505392063648432
H -1.1078244981067102 -0.11144121661197097 -1.0146403355582703
O 1.6934143328858056 0.30953612133893843 -0.7692054422464223
C 1.1604889036204888 -0.7668203574035929 -1.1270812508691777
H 0.9613623647397215 -1.5543822239883751 -0.3907573466336877
H 1.37455801620409 -1.1378387892900999 -2.1362195157848385
H -0.3331742869392791 -0.5022727553121304 -1.3607859985205937
H 1.1093509152419594 0.7953382027852443 0.6369050182725459
