12
## STRUCTURE-ID: 64566872e76c006aa9242a3b ; CHARGE = 0; SPIN = 1
O -0.15710342427368693 -0.2377526836831809 -0.12791831571089704
C -1.2714202807445962 0.20543519995830647 0.616444176425935
H -1.1831544615677185 1.2705554257454883 0.8570890567654721
H -1.28659460803091 -0.3764106038457502 1.5350118272216908
H -2.200853969419734 0.04076742648700175 0.06087104265098592
H 1.471763275866693 -0.5561290185849503 0.8446977739149137
O 2.2752818352012993 -0.8132337241181326 1.3213305453856654
C -0.02001669154085918 0.43484325801876045 -1.3611449193376468
H 0.8571965406128613 0.017619929219732253 -1.8499929030717819
H 0.1211981939758078 1.5102797636218377 -1.207319481283199
H -0.9024198535301471 0.2770844401513725 -1.9904810364724772
H 2.296123443450985 -1.7730594129704809 1.3014122335113414
