12
## STRUCTURE-ID: 64566675154c7451432fdd91 ; CHARGE = 0; SPIN = 1
O 0.1769144988164384 0.5365053947436413 -0.11833050614161586
C -0.7935667169762426 0.5403084247096052 0.9508854753656779
H -1.5048915285616578 1.3390246233239866 0.7519105482160117
H -0.2614880436800348 0.7438832256960809 1.8783954675935677
H -1.3262063445922798 -0.40802054127489457 1.0166150311941269
H -4.273780938817533 -0.41887624615429975 -2.1936433057568197
O 1.9317912951949618 -0.5784840529470815 -1.141535016586697
C 1.226922268411613 -0.5459808179678924 0.0042406553815570805
H -0.27278202720017813 0.4326862269308797 -0.9889927556746091
H 1.7905074880128449 -0.2658772553337286 0.9007505141640535
H 0.7114411013689479 -1.5028133151323064 0.136208489352159
H 2.59513894802314 0.12764433340599785 -1.1965045971074315
