12
## STRUCTURE-ID: 6456686cb38bda60d5293428 ; CHARGE = 0; SPIN = 1
O -1.0188835588879308 0.8665213686014425 1.3189340276125543
C -1.9081000703878455 -0.08582403139695989 0.7853652010466308
H -2.903889462855313 0.17009940098433587 1.1456361035777534
H -1.659007917765326 -1.0984776963967604 1.1184036324073978
H -1.9108855807485572 -0.061017896968282394 -0.30968885428610676
H -0.11801239711631589 0.6316776098520446 1.031387232160238
O 1.5150387114882045 0.08018520827586208 0.2234147430559353
C 1.4544113911152579 -0.2190134828600274 -1.1572322725271411
H 1.2842424149213645 0.6829277654974913 -1.7519942558339927
H 0.6162469331021422 -0.899727723128662 -1.2948474433102437
H 2.3683539790250667 -0.7115908240514444 -1.4977245859998047
H 2.2804855581093046 0.6442403015909118 0.388346472096732
