21
## STRUCTURE-ID: 645677e20508736157242a3b ; CHARGE = -1; SPIN = 1
H -2.049131065827501 -1.2015348716384298 3.781937454948462
I -2.4305511833079385 -2.176993336244513 4.9468311197358625
O -0.9540352749967341 2.4708601114187796 0.5009654827711865
C -1.0820499406560182 0.2715126128861589 -2.0968322384120213
H -1.001436615313245 0.7948221027180816 -3.054082743990528
H -1.2077302684076496 -0.7952347657235972 -2.3084895776763945
H -1.994029046757303 0.6256227393468777 -1.6057300316948797
H -1.2419323564813558 3.3935202049750517 0.6577930752083629
O 1.2136102390446992 -1.5632463710127773 -1.111019544352782
C 0.6061393223754625 -2.0903661726290865 1.959470910485671
H 1.2488152555595367 -1.6320090747145475 2.7039893652161986
H 1.1760579098114448 -2.389325381701605 1.0855992338526208
H 0.027220709822030627 -2.912946237934936 2.36314368052662
H 1.1790626383926326 -1.9025665903051006 -2.0069540706157363
Rh 0.587273850865935 0.5315051304740559 -0.8410040806772522
I 2.679023256570694 0.9977703881550154 0.8440216217433624
I -0.7626848596503961 -0.5687964371683265 1.2316024840756337
O 2.2687366980055934 1.3306641856496524 -3.1351109366885335
C 1.5868623956395391 1.0553744536108454 -2.2510107808341617
O 0.22734171479054144 3.3845817505855176 -1.1426970106162113
C -0.07656337947996344 2.3767855592528218 -0.5224234130055402
