18
## STRUCTURE-ID: 6456890ad004d24a6e4ed2aa ; CHARGE = -1; SPIN = 1
I -2.141689190406096 1.767728337331677 -1.100331086308488
C -2.429492595397953 -1.3594251564489437 0.8820437282988405
H -2.8084310068931186 -1.775778024503469 -0.04585237417943263
H -2.5952660460226595 -2.057081052640487 1.6939697573657688
H -2.9032180682429396 -0.4040321923512164 1.0731737926851959
O -0.36652557191641455 -0.2883893883275847 2.4165039561462995
C 1.8476527778994374 -0.6605496150489042 1.1151744178641774
H 1.9956506704247376 -0.9961475367775416 2.132248253315618
H 2.0111132383336323 0.4103308273263212 1.051397416198586
H 2.502670658916671 -1.1918715311256336 0.43498805673664975
H -1.2581544156739852 -0.3184847059028676 2.7676226230709835
Rh 0.09111028630360125 0.5141983580037832 -1.5865948880677176
I 1.6348974757922878 -1.3152460411261764 -2.6279809968135925
I -0.22817804295009175 -1.1384779601268764 0.5598857492973462
O 1.964326648526097 2.4369343523192524 -0.5990299938834194
C 1.3073446889639162 2.0386908721055526 -1.5232378110581586
O 0.659503486701566 2.4219929334767145 -3.872119074103203
C 0.7166850056411969 1.915607523816423 -2.7718615265654485
