18
## STRUCTURE-ID: 645689964f93915d3a670ff4 ; CHARGE = -1; SPIN = 3
I -0.7606472626353984 -1.7320165869073954 -3.2346781674362584
C -2.290629381144314 0.3716864110316082 -1.0159984717265593
H -2.8960846057008856 -0.5395966356187354 -1.0030205919343382
H -2.6117961405442656 0.9829748107633012 -1.868536483804773
H -2.5017344600330507 0.935855265260212 -0.10023266000141288
O 0.9611628020481969 1.319940550342103 1.3254541568973695
C 1.7551773781524143 -2.397582517218699 1.4498056195744444
H 1.7261597192498908 -2.936288154750471 2.3898629658831054
H 2.320650665369712 -1.474882253990142 1.5238480447353775
H 2.1351540312670614 -3.014342621809663 0.6427112713961723
H 0.8800944373293402 1.452980648603857 2.2916729856977285
Rh -0.22578238422092742 -0.07330181083328542 -1.2064083223658248
I 2.4509580286800468 -0.16045596822311617 -1.5138094250890965
I -0.30389320176644063 -1.8708273677896348 0.9536613873476758
O -0.869771769084795 2.613963177322848 1.1939369728883464
C 0.02288829953542443 1.9837270201428001 0.6527299409360515
O 0.15412109873563098 2.721820319562423 -1.6416549432182856
C 0.053972744762187615 1.8163457141120725 -0.8393442797796289
