21
## STRUCTURE-ID: 64567c0e429ba31af164e486 ; CHARGE = -2; SPIN = 1
O 0.3582990262582589 1.5227227663105434 0.23830348620984756
C -0.4088301880468097 -1.4145393241874678 0.6464544568619978
H -0.2469012884123344 -0.7138594784262501 1.4450454619633848
H -0.44149977454479666 -1.0928082671247097 -0.38073127368963533
H -0.23228724646812293 -2.4584600858109713 0.8525216799513748
H 0.49646557901655136 2.497063420779743 0.2679872563647503
Rh -1.9247391992714022 1.3830922845631228 -0.306367799915119
I -2.3549654465107897 2.734457098851073 1.8693403503799204
I -2.844597037054984 -1.3248498456021223 0.8665905330067053
O -1.130660511417547 0.5225784228174238 -3.0642579041335276
C -1.4430819291099486 0.8150478259296177 -2.0013766421699
O -4.68385340580935 2.031195739483627 -1.1940849833932627
C -3.6156313425515885 1.7713258785925374 -0.8778131200379384
O 2.596434613236105 -2.952074763878417 0.5059797150194201
H 2.7985810753343037 -3.4424654855515966 -0.29621080271281175
Rh 2.0112658984133485 -0.9622604243827073 0.09244962566274115
I 1.899010388061043 -1.4603448436678854 -2.4649304715009053
O 2.7356666648244787 0.17472886230766188 2.739903205821241
C 2.4172962394127517 -0.3731658911502827 1.7635046428233834
O 2.416204177989665 1.7937934671978955 -0.5269866384448567
C 1.5978237066510494 0.948822642949239 -0.17532077806666493
