12
## STRUCTURE-ID: 645667b909eeca6706224148 ; CHARGE = 0; SPIN = 1
O -3.191913007528182 -0.7661111489099377 -2.345243198931141
C 0.8675202528337561 0.39962442895647987 1.2393588098408632
H -0.14194630024605126 -0.033372246107316886 1.2767795536695765
H 0.8116970760517092 1.4418695768672343 1.5842715083565928
H -3.654266801646264 -0.4325550963814336 -3.118520375653483
H -3.798562511244034 -1.3553291284963422 -1.8894323519828493
O 1.7464391456927983 -0.3393786195272856 2.0692914590957274
C 1.3879518580209864 0.3584678699973321 -0.1891784766043248
H 1.4294340199338027 -0.6699515331346708 -0.5373085949931439
H 2.3896245675874535 0.7779382461894567 -0.2295064779695936
H 0.7298017130840058 0.9285185918502036 -0.8378796369430814
H 1.4242199874600037 -0.30972094130373684 2.97736778211479
