9
## STRUCTURE-ID: 64566fd72ee225379c4dd527 ; CHARGE = 1; SPIN = 1
I -0.48827762597647695 1.1315465316065227 0.7348998005679318
C -1.2364378640914835 0.08141136658103115 -0.987669520093491
H -2.2000189059727746 0.5195419209370371 -1.2316888235603152
H -1.3392323297793085 -0.9626080605784679 -0.7033048318789169
H -0.521820191764588 0.2296105061578161 -1.7928455625190927
C 1.251091889872987 -0.1141099033151882 0.965364943232584
H 1.8184674743375036 -0.04744574419300615 0.04065291850508872
H 1.8163508616853112 0.2838432209555781 1.8032573443402296
H 0.8998766916888286 -1.1217898381513234 1.1713337314059842
