18
## STRUCTURE-ID: 6456736e14fb94752e2a157e ; CHARGE = -1; SPIN = 1
I -2.108783521091879 0.7270673705194847 -2.5123046594836875
C -0.7991499324053414 -1.5400193096710542 0.8523050495174956
H -0.46638348304697363 -0.5292755929080243 0.6204351853833576
H -0.6317398787578342 -2.161755003388561 -0.024765746929984688
H -1.8680011085411519 -1.5112988769724391 1.0535097992360118
O 0.06024605101619612 1.7570555258011364 -0.0041978474452981605
C -0.033352335795359275 -2.083170764934148 2.0477787990471
H 1.0338149976147866 -2.1055954612053203 1.8366232848524138
H -0.1933840849622052 -1.4579526236582927 2.924206051702402
H -0.3555947861717178 -3.0945146641870074 2.2850345929781266
H -0.6849787618264854 2.195417465557295 0.41742458830428597
Rh 0.3229181211825551 1.8129729208657492 -1.9789185831665765
I 2.612334133337911 -3.5878130976884313 6.483315398609849
I 2.034385617800626 -0.18608448483023854 -1.740689945757208
O 1.173068425890487 1.7539734554704494 -4.8582354350209265
C 0.8268004049673714 1.8152094346252283 -3.775684764931712
O -0.6469620344202591 4.62783484393016 -1.7187033539073207
C -0.275237824790689 3.5679488626739695 -1.9071324129882306
