13
## STRUCTURE-ID: 64566c8998bc41512e233633 ; CHARGE = -1; SPIN = 1
O -0.7657051886880182 0.8717830834777945 -0.20757393572526336
C -2.3997758510742484 -0.41672161632268584 0.062310585630164554
H -3.265940550604853 -0.23952883279657722 -0.5618758859306546
H -2.5413966657517837 -0.15200453305271602 1.0974281975967144
H -1.9312832248791483 -1.3787147034768372 -0.08743808486450397
H -1.6625351604197591 0.4490807379009894 -0.5426214456096334
Rh 1.2873136096938518 0.14499412281020083 -0.23320462883646031
I 1.0421928344487907 -0.4079962396458318 -2.8155945290493936
I 0.8874578074225903 2.9054869681627467 -0.44680502181055143
O 1.2343936730492528 0.04376592157328094 2.753273462864682
C 1.263388582076784 0.08126421854662985 1.601128465027385
O 3.944807247093741 -1.2040927716502317 -0.3400310996335087
C 2.9070828876328028 -0.6973163555267586 -0.27899607965898066
