15
## STRUCTURE-ID: 645688a76b46ea54d5333be0 ; CHARGE = -1; SPIN = 1
Rh -1.4938550431200168 0.24597509316605182 0.5138768375252246
I -2.472598632167865 2.334053668488189 -0.8079783011509487
I -0.32641091439332554 -0.8314050142354292 2.6301116768730397
O -4.125582321208433 -0.9599590265329432 1.353400912881296
C -3.120233946112526 -0.5165081262358027 0.9741301406316366
O -1.4720475616603754 -2.0921591997067672 -0.9001802990609902
C -2.281901664211611 -1.3368576816179238 -0.5017239202789966
H -0.111032150831659 0.7470350833141117 -2.190014974281713
I 0.6928036522895471 0.9551664024750747 -0.7107871206039131
O 1.7780380418244621 -0.23566295144471097 -1.9549404905237353
C 2.3769127200307705 0.5745346325520745 0.6403781555108669
H 2.4621673123838836 -0.484501255098881 0.8546720396397627
H 2.1566402995979823 1.1143409251377006 1.5548260668274374
H 3.2841615142890572 0.9602073279649657 0.1913473901826744
H 2.652938693290136 -0.4742598782257443 -1.6471181141716218
