12
## STRUCTURE-ID: 64566971d690d038ba4d3030 ; CHARGE = 0; SPIN = 1
O -0.9757965119680988 -0.040994241783752106 -0.7215108782283614
C -1.2699879098307012 -0.11815282543698637 0.6913591897484865
H -2.3430811013737958 -0.26077838453702434 0.7974364680964868
H -0.9260677257630012 0.7675113106871924 1.2224899158560871
H -0.7290878245357076 -0.971538802219575 1.0933957943715795
H -1.4346747268274709 0.745514486966423 -1.0861719577830453
O 1.9375601102292193 -0.07975181487835817 1.3012692398275705
C 0.4484369739048842 0.04354542932775504 -1.041138687028018
H 1.082191434338753 -0.019509954591190617 -0.08073706524481761
H 0.6807555655708619 -0.8022010538801054 -1.681117196977613
H 0.6772704997174058 0.9757461128148126 -1.5434706013917137
H 2.852481216537647 -0.23939026246919287 1.0481957787533542
