36
## STRUCTURE-ID: 6456bf02fc9f79398b4dd541 ; CHARGE = -3; SPIN = 1
Rh -3.851007900537289 -1.5535931650484325 -0.7181335309619651
I -6.032353253612035 -2.6930754582788228 0.12034632950042383
I -3.864756399113446 -2.7929895725411193 -3.0198925167244184
O -1.2594482156248665 -0.12610422004639113 -1.0867806369745983
C -2.291459025786089 -0.6624066159313748 -1.0740253068492829
O -3.5790649298288146 -0.04824924470806477 1.8367756403345743
C -3.7421541005952146 -0.6487376636316432 0.8674597456660036
H -6.01369053033593 0.9081666284221601 -0.3012909520059552
I -5.393317185300494 0.6972819098279934 -1.8649324581644355
O -3.7488700296375255 1.5437769041773035 -0.7564550783333032
C -3.9394380108010263 0.9135114403481872 -3.502717314118486
H -3.809695360166172 1.965812421078532 -3.7196941062323323
H -4.3422662367059575 0.37891955451487863 -4.3542667844262475
H -2.9909091889743484 0.4815346027456695 -3.1995901392041897
H -3.876972802814759 2.4913587537384663 -0.6916052665585427
O 5.0165642633664085 1.8656934241728624 2.2943777517280695
C 5.296029788086674 -1.6248046225829544 2.1486290252953903
H 5.9474310164258135 -0.8732632817723609 2.5804710843743734
H 5.254799875135122 -1.5289905644969506 1.0684622226180827
H 5.570063114231747 -2.6279160493131233 2.4544269640934933
H 4.731968136218323 1.7048858933442232 3.211718191205807
Rh 0.43752984367727044 -1.3430229716360158 0.5830962389651958
I -1.3608927959982309 -3.2835474095060126 1.128398380483681
I 3.2653795285545315 -1.2554158893612075 2.8531089202578013
O 3.1209104561914853 -0.6423479747892759 -0.23639677328621087
C 1.9552498677505823 -0.20455588226079777 -0.10031378458992071
O 1.214825339276519 -2.360446710821489 -2.0890956920315076
C 0.9211465747930729 -2.0923619320409355 -0.9896607176706055
O 1.5890571415257828 0.8006257338058592 -1.0025242314875054
H 2.3758000067753176 1.0420615915024187 -1.5252509437853714
Rh 2.2436153800882077 1.0449502153908106 1.905538221553444
I -0.23132306041368994 0.17126063496530167 2.655907827479712
O 4.302485656968656 2.01480781790855 0.21776886116589855
C 4.008762925019264 1.7224657848843234 1.3661849788658753
O 1.3555242116449124 3.836628311140354 1.3131445062353246
C 1.7204759005139911 2.778087606799382 1.626811343579286
