33
## STRUCTURE-ID: 6456c1f759ccc44f61610ab0 ; CHARGE = -3; SPIN = 1
Rh -3.8747290528035765 -0.7481941340691268 0.6828162966376183
I -6.263912210688991 -0.12297563762734949 1.4957813688208714
I -2.718116600308471 1.2438113536605344 1.9342768125916736
O -3.293086996515839 -3.303393934960614 1.534703799613191
C -3.5691971622848184 -2.253883415995144 2.022571661272316
O -5.25399708027618 -2.5617466157028734 -1.2376596367432169
C -4.724254168732417 -1.9066494745858829 -0.4634949236310199
I -1.722554962790591 -0.991961260618471 -1.0615501917296244
C -3.66759756056959 -1.9263171710453566 3.469029791471218
H -4.113864183582062 -2.7903021051944554 3.9619962990513327
H -2.63932295850785 -1.8201041972244518 3.8325019274868293
H -4.22226935082398 -1.020700247176352 3.7052433679813994
O 2.791386456916464 4.0368084301880565 -1.6116786236144922
C -0.056792876031218034 2.2635018857475275 -0.7598133542781746
H 0.25660168193256455 3.299208412505424 -0.8126034204198241
H -1.0649486856819959 2.193783314962443 -0.3696396159533736
H -0.003969197154578058 1.8156297060656499 -1.7519379416941823
H 3.162535740589694 4.393327852843814 -0.7863295971304144
Rh 0.9771096044344496 -1.358141690850091 -0.14157268706058196
I 0.2029402193377685 -2.0611311064333253 2.2919986163332267
I 1.311251580645404 1.1915373040864348 0.4588524339826451
O 1.101004619983666 -0.5113626897737549 -2.869192823971857
C 1.7504065564907338 -0.7609150316859112 -1.8455171107883663
O 2.1248419681438766 -3.8237942149535313 -1.3625893925196175
C 1.6734905890291034 -2.9397147351051194 -0.7401419169906187
O 3.118799476226478 -0.5855901282823373 -1.9174495389344146
H 3.360133109856518 -0.241693383732604 -2.799837990377093
Rh 3.7252564054155095 1.6187936083451773 -0.2706270351261979
I 3.9824946734267246 0.22340821163178767 1.9678742376737781
O 2.7171101402391136 2.2099163889338453 -2.8516057347947004
C 3.0619136533343796 2.6826937593590645 -1.7708733284587745
O 6.450945888692945 2.435242713472048 -1.1796522733157473
C 5.420390682056973 2.12090823321491 -0.7538794753834208
