18
## STRUCTURE-ID: 6456726c4582c063cf6cd4b3 ; CHARGE = -1; SPIN = 1
I -4.846859200347416 -3.766478479714794 -0.5485248822704321
C -3.148537109150001 -2.036582691180795 -0.741606442869136
H -2.6933571882745153 -2.3021335725117154 0.19396273199325847
H -3.878591023691094 -1.2514501821860995 -0.7726777557147876
H -2.767171540020779 -2.445114265807068 -1.657064158936201
O 3.661748135887184 2.9512685821943823 -0.09265128676020838
C -1.7161259796366697 -0.5890304814518803 -0.9037605540788837
H -1.9942771840569757 -0.10634941720251723 0.011305557393487544
H -0.8979376425031242 -1.2801735416841855 -0.8909578690171176
H -2.0498311395504714 -0.1859447930479557 -1.8389856333065662
H 4.456102545876707 3.059974379007046 -0.6545086867852069
Rh 1.774773748075249 1.0871965428346997 1.0829108299024197
I 0.2802573222242781 1.3639499734229552 -0.993515010667875
I 0.31996909158556563 -0.7105940666193903 2.340367160013989
O 3.3967583201698788 2.111602413723796 3.3696847615090046
C 2.761570451216679 1.6667011706826886 2.5036241443428424
O 4.010079254530054 0.7755605177860045 -0.46360102097456424
C 3.33142913766546 1.6575979117548538 0.05599811622595653
