18
## STRUCTURE-ID: 645688edfb7d104c9f5b5c1d ; CHARGE = -1; SPIN = 1
I -1.0543613731662642 -2.4097321331951536 -1.8888404126594405
C -1.775772929130302 -0.31229009732644863 0.8498088092885319
H -2.4120944622706713 -1.1176099559730732 1.232092100068488
H -2.2970685621490925 0.13569337383765753 -0.002939451927976893
H -1.6932702237175399 0.4473266188387198 1.6362346593756094
O 0.14683205267354538 2.451402098396844 -2.9374088506447342
C 1.0469128478822547 1.8461161523752552 -0.5022607889473711
H 0.5671157429662094 2.81340555669912 -0.5746516734987414
H 2.0854991768511577 1.8837787905328613 -0.8111830362636726
H 0.9491169245363176 1.4257732836661456 0.4996228292246558
H -0.10303251198496748 2.3516781370977435 -3.860937720234735
Rh 0.11347252490884797 -1.0501849135459853 0.24677227425864098
I 2.654351189734629 -1.4444748361113227 -0.5768954099614886
I 0.0263673871955042 0.6294134099436739 -1.9204152629989086
O 1.1117534703738767 -0.6215833550941957 3.087041407567809
C 0.6464516235939568 -1.1164625464307827 2.0730370531131475
O -0.1624873005681513 -3.5284711951953582 1.785597941433622
C 0.15021442227068774 -2.3837783885157022 1.6653255328065741
