17
## STRUCTURE-ID: 64568cf4c60fcb22634609dd ; CHARGE = 0; SPIN = 1
C -1.4515283711770797 -1.6865910276136122 0.1262575579635825
H -2.2149498957569422 -1.3447372753490296 0.8229410768660639
H -1.6357317640730737 -1.2980158409153382 -0.8780599154320764
H -1.4082960940314617 -2.7793938538634766 0.11247397564977091
O 1.5166770098963813 2.4309577974782965 -2.480872698258345
C -0.4976783428399336 2.073491523046293 -0.7055985636103976
H -0.6668960895354736 2.6667337174255707 -1.594241075028369
H -0.14515240861027676 2.70213173870238 0.10247580288394555
H -1.3740482635018452 1.503590801606508 -0.4225928551088914
H 2.2441370044694215 2.2373590412742512 -3.0717035622527202
Rh 0.4869128653930803 -1.112424562870301 0.6665145767405027
I 1.8484049530580693 -2.681512947233936 -0.8900913897679568
I 1.052148715505959 0.7055510836965299 -1.2250325141413965
O -0.35598804792698074 1.0883834408898296 2.482431315347257
C -0.13538293676910876 0.23383254000899184 1.7585745725787292
O 1.8074561929278716 -2.4031004184253955 2.961330074711624
C 0.9299154729713925 -2.336255757857563 2.235193620858672
