8
## STRUCTURE-ID: 645663cd8101152ec629342b ; CHARGE = 0; SPIN = 1
H -1.651311850901446 0.9131066912344858 -1.6216476287950097
I -1.0859345256426103 0.1015635342965199 3.483981775502825
O 0.7917159974421071 -0.3749327581333989 0.5143080257483509
C 0.9532011810096251 -0.35443063436800815 -0.677577025140378
H -0.9593359042527457 0.5841474650240216 -1.4471230182191501
H 0.6587851291339476 -1.1967646688402729 -1.3194690669738391
H 1.4381576453786298 0.491785729760912 -1.184474481143376
H -0.1452776721675032 -0.16447535897424367 2.2520014190205715
