12
## STRUCTURE-ID: 64566527e44eca7490230d7e ; CHARGE = 0; SPIN = 1
O -2.8579303877416913 -0.030683985261133483 -0.4082046090096642
C -2.062939906021792 0.47260613009861463 0.646358764275881
H -0.2599925344964379 -0.6646514871825522 0.28301115608391464
H -2.3026099725313673 -0.05435107056548423 1.581631568177808
H -2.3618087540276993 1.5181435411029292 0.7565798641549322
H -2.590113294211081 -0.9410525959867339 -0.5869659020849295
O 4.24461469820179 -1.1160826173708636 -1.144692515424379
C -0.5679763098335611 0.3759729215047858 0.3638430731619053
H -0.33090425344086066 0.8834240637121907 -0.5680754126574572
H -0.012461895219191024 0.8423510106769487 1.1720761048907118
H 3.9717941727816988 -0.35367226462719986 -0.6274611217262897
H 5.130328436540201 -0.9320036461015075 -1.4681009698424299
