13
## STRUCTURE-ID: 645671d93222f278850b3f60 ; CHARGE = -1; SPIN = 1
I -2.5499225431502963 -1.1977757760453474 0.2858189489522737
O -0.0884819049373088 -0.8351348804933773 -1.9312740737715923
C -1.3987077767989884 0.6105932137776315 0.2789072180518917
H -1.7765831995754235 1.2087239755218602 1.1186705207230405
H -1.6505495656792517 1.093084929699069 -0.6673615963000445
H 0.1875733130991093 -1.3659670958795846 -2.708038807190877
Rh 0.6560628250221232 0.5309051612643373 0.5168701315845217
I 1.4130300649185101 1.7330067273171659 2.8324528814118834
I 1.0469637146647817 2.649138928985965 -0.9768115288104973
O 2.0500076155089566 -0.9015996641527076 -1.268227072127851
C 0.8953354518407776 -0.5425615830468556 -1.1101032842482557
O 0.6274203231161193 -1.9753080993438545 2.1200297407382567
C 0.58785168197089 -1.007105837604317 1.509066920987247
