12
## STRUCTURE-ID: 6456676650ccc61aeb333be0 ; CHARGE = 0; SPIN = 1
O -0.9845257479425182 0.01176370477217673 -0.46902495727559634
C -1.6489644741722929 -0.06304042561598121 0.779134282567395
H -1.365533667934627 0.8216349129016771 1.3450321173956206
H -1.352632072402534 -0.9527855183753874 1.3388888850808425
H -2.7313228541996026 -0.06388039553108309 0.6379752008910673
H -1.2280951558733038 -0.7608862427146246 -0.999340129511417
O 1.446625883229615 -0.10116180525470835 -1.4871012385126232
C 1.224009363136993 0.04160690836658988 -0.24432932611048738
H 1.0101842886827364 0.9919274201590306 0.21575817134050762
H 3.007162682780738 0.20502570603175857 0.5460041881694062
H 1.1044257555098478 -0.8609667203724298 0.33253225660176394
H 1.5186659991849547 0.7307624556329827 -1.995529450636489
