12
## STRUCTURE-ID: 645669626bff6764a062319e ; CHARGE = 0; SPIN = 1
O -0.3289611336627109 0.3685777897429758 -0.6156917397427553
C -0.021926224047110806 1.748031367503076 -0.6466656642931341
H 0.6191219849535574 2.095534758155684 0.15251611524407865
H -3.1318259922815477 -4.142771272035707 3.1288324170869517
H -0.8539554771711189 2.3903822830330133 -0.8988139647599536
H 0.21038736801960098 -0.4933612691949583 0.4799433386946667
O 0.6216551556298094 -1.080998378907513 1.2560065534752434
C 0.5116334150684364 0.8330439239945053 -1.6534175266228663
H 0.06704734185220823 0.8090268292435752 -2.6385871365513656
H 0.701604898101187 -2.013374929877619 0.970424214244899
H 1.5430918917215921 0.512774305528291 -1.5911238540740509
H 0.062126771816085495 -1.0268654071853436 2.0565772472982116
