17
## STRUCTURE-ID: 64568ed94c1f687130374190 ; CHARGE = 0; SPIN = 1
C -2.308885946448435 0.7737754347604325 0.34344854213167453
H -2.7839786301422986 1.3944595049166868 -0.42045298223244065
H -2.38149359254621 1.2576368863830738 1.3177003012792432
H -2.809368892975656 -0.1936938568841902 0.3767880018467036
O -0.11895967345246179 -0.952173253611658 1.0491175962334318
C 2.4497519221837853 -2.109702979578392 -0.4837593004700845
H 2.2296776867564856 -2.62368970866131 -1.4124047383092722
H 1.6436831562161012 -2.2222671628567214 0.23471393613003805
H 3.4059893319507415 -2.406466541382529 -0.07161555865873002
H -0.8914232810510366 -1.1175719108967326 1.5996826032988085
Rh -0.3057714881856005 0.5189138387196071 -0.24550180167405433
I -1.043213731074084 -1.230481874102148 -2.0987721748704073
I 2.5640982065739997 -0.0007967543862614635 -0.9253226935129897
O 0.5602420908263549 2.3893392895663523 1.9426446641162618
C 0.2231784721864848 1.8140349737548853 1.006653352282342
O -0.3848186322543087 2.143248917468239 -1.621669771401836
C -0.048706998563858774 2.565435196790676 -0.5912499761886664
