8
## STRUCTURE-ID: 64566434644d8930822abdd0 ; CHARGE = 0; SPIN = 1
H -0.5820528652681635 -1.1797862879192604 -1.0791029477589535
I -2.314128212857344 -0.009194507468131708 0.8101874626929324
O 0.16615798079591237 -0.5740525081998432 -1.1738522341702669
C 0.6032611836143704 0.3459569223195761 0.7031309905604959
H 0.25778964390440356 1.359926263486804 0.745172082320132
H 1.5276394584304038 0.17767850621585785 0.18037271785850387
H 0.4515879619242412 -0.2674284138595298 1.568767569119252
H -0.11025515054382778 0.146900025424528 -1.754675640622102
