12
## STRUCTURE-ID: 6456673cde159549973eadd8 ; CHARGE = 0; SPIN = 1
O -1.4896680621102742 -0.9572096192549423 0.5997713720542432
C -1.77527241062429 0.3640679950884044 0.9928123208065996
H -1.1737323784737106 0.6644107484496332 1.8568253432498036
H -2.8292144625967968 0.3947714909834724 1.2672285468150586
H -1.6019124559906768 1.0712877134214265 0.17458807209216778
H -0.5432807237957922 -1.0065301560127224 0.3720002126154746
O 1.2631621000977986 -0.8539534138202189 -0.17248617714769365
C 1.5684181842008076 0.26326273167527336 -0.98345870874833
H 1.1406104076911054 1.1353300607930994 -0.492066058662383
H 1.1283417086964558 0.16208636327682582 -1.9793795746506158
H 2.648070976273949 0.4037651436558095 -1.0757309678170648
H 1.6644771166314105 -1.6412890582560506 -0.5601043806072499
