13
## STRUCTURE-ID: 64568957f64e8b6a5056ede0 ; CHARGE = -1; SPIN = 1
I 2.8057887894336107 -1.5407239319584547 -1.7037259722333338
O -3.2414845429084975 0.8238799288942131 0.5551175079520588
C -0.7472721815431 0.3236212176604545 -0.8914167762045385
H -1.0608626258877671 -0.5445847269058283 -1.462567778876895
H -1.1087904692566148 1.253809372970129 -1.3023055475212284
H -3.806035759675407 1.0405530960380818 1.3019349289902233
Rh 1.1514170586818278 -0.38975556539008455 0.17801182019721304
I 2.4554956874353087 0.8409899132483334 2.2225715885640698
I -1.2470436997772705 0.23385955365016012 1.1352807452592713
O 1.2356579477834089 -3.047331628674742 1.585047534672818
C 1.1272233212703417 -2.027095363924808 1.0720472448280332
O 1.3003324918952777 1.9430612016000446 -1.7290269279331516
C 1.1355739825488624 1.0897169327924667 -0.9609683676945322
