16
## STRUCTURE-ID: 6456745565bb026ea867100e ; CHARGE = 0; SPIN = 1
H -0.3139588894521724 1.0934493637509677 3.5692752614243433
I -2.1558105727420473 0.8955730091947495 0.30353526081803034
O 0.24153600264372715 0.44777124173302413 3.11382579059871
C -2.0158624737318984 -0.40694768893073924 -1.4029722236316484
H -2.9343628396407233 -0.30833904112165617 -1.9665470715142845
H -1.8856527813308106 -1.4169194622028969 -1.0339633834912751
H -1.1604297225502143 -0.09295086155449886 -1.9885651000562024
H -0.04205280870559059 -0.43508200775327166 3.39968900724003
H 0.9177255118185861 -3.4017331986304216 -2.380187413287078
Rh 0.9329085033076251 0.6226195279564344 0.9784055469574212
I 0.8079045782426278 -2.387147981574611 -3.5733586767736707
I 0.8558351716240797 -1.9624765990723487 0.8174212159992448
O 1.5438583142122058 3.5350152021560506 1.3212417657149775
C 1.2740695034092562 2.4291550735135923 1.2118789375050514
O 2.2085212861771186 0.6968710675294736 -1.7039909588064333
C 1.7257712167182249 0.6911423550061488 -0.6656879586972106
