12
## STRUCTURE-ID: 645668949c38c701676c2b48 ; CHARGE = 0; SPIN = 1
O -1.119295746276871 0.13082827354722792 -1.0456470951746626
C -1.8372180409669787 0.32792210926725657 0.15656228692890506
H -1.1779633849483684 0.8694164191528875 0.8325789458907388
H -2.1132476285589785 -0.6257549273990434 0.6150720453094276
H -2.7374472184068117 0.92389509385323 -0.012256487169414246
H -1.6904414925480962 -0.3173436300787173 -1.6815009463161255
O 1.5131660111463223 -0.9059891786778679 -0.6063808797466861
C 2.0205468740201256 -0.10999134283025373 0.43829257691739526
H 2.0868742779015026 0.9424278460085886 0.1439424347260054
H 3.0209814237855004 -0.47817677381688467 0.6639591586728102
H 1.4028643184638305 -0.19126563588094056 1.3394816717820015
H 0.6311806063888259 -0.5659682531454783 -0.8441037118204081
