15
## STRUCTURE-ID: 6456b76d847b6e761d071014 ; CHARGE = 0; SPIN = 1
C -2.9023726942030157 0.25550150627877405 -0.3755660866998717
O -3.6906881993398386 0.9152722078667075 -0.857182291215981
I -0.8568765325902605 2.3114657718128933 1.4524420929825075
C 2.1216014897544397 -0.3600754864977476 0.7534977547586809
H 3.164153624038181 -0.09822556680583418 0.5672033718061775
H 1.9864781802375309 -1.4338299955410923 0.6140035585068578
H 1.8661450038691803 -0.10793830882744686 1.7841399845949704
H -0.8780034166393902 -3.0255923225396315 1.4599267625917272
Rh -0.783428959309785 0.14513927702794477 -0.16247046178858274
I -0.9548586266418831 -1.537153437422709 2.0224608671844826
I -0.3925128323441859 -1.8713109541928494 -1.8838945003278085
O 1.6942934883938598 1.1868617336952365 -1.0178300265042386
C 1.2840513263727216 0.4134583591065156 -0.20495767947439297
O -0.8533127083689726 1.9452110516226158 -2.527615001278789
C -0.8046691432284383 1.2612161644167945 -1.6241583451359016
