12
## STRUCTURE-ID: 64566a6a0be73c22e42fdd80 ; CHARGE = 0; SPIN = 1
O -0.7960026308623985 1.4297520261541572 0.9438833646947592
C -1.2610820120248043 -0.42691909380597803 0.39494747584886664
H -1.0838016489224829 -0.6149290897547989 -0.6498133744519581
H -2.240336760525237 -0.021226694691744447 0.6099070825455314
H -0.9857341626953907 -1.224278082719221 1.061632719041019
H -0.9629869621585536 1.964548048416549 0.15853372866762816
O 0.8406188141757912 -0.2194155857441424 0.5022324563193794
C 1.4457854274732358 -0.41938771864246266 -0.7102405884940789
H 2.5366298549174586 -0.47097292571177307 -0.5735693627968744
H 1.2411852688628109 0.3892184028392445 -1.4335563529771198
H 1.132357363566242 -1.3739874662123583 -1.165437924366523
H 0.1333674481933294 0.9875981798725273 0.8614807759693746
