18
## STRUCTURE-ID: 6456732242a6902ae923363b ; CHARGE = -1; SPIN = 1
I -1.9605715477219772 -2.1424151971699814 -2.058187978236219
C -1.1377565180488258 -0.6034657999503195 -3.325605231116189
H -1.9840727561849154 -0.013600445677686097 -3.6659138068150914
H 2.4164755356643495 0.19837502080341513 6.04619734797629
H -0.6695707790045372 -1.1221185752915126 -4.159695278151647
O -0.8137009293891242 -1.3827965570622827 1.3292834567766783
C -0.10570913450794614 0.23536385161911338 -2.6284457098919423
H -0.4313261929509207 -2.1828200204305905 0.9317441060317003
H 0.7099294932114062 -0.35731429741522225 -2.2154014770480375
H 0.29019136605758933 0.9876308777041671 -3.3089786017197786
H -1.4780799586627946 -1.6714345817403093 1.9675498989736946
Rh 0.5970311890776385 0.43024540282097573 1.5108939805923889
I -0.929573972092831 1.3709523744059127 -0.9158849472665886
I 2.3579735067097647 -0.8886387143244218 0.1603502780929743
O 2.7465824441752535 2.4014535226279516 2.089313002918076
C 1.9018764294970165 1.6537536553654746 1.875692038487704
O -1.0418903428709292 1.8244300201556674 3.5925007725161713
C -0.46780783295824707 1.2623994635596665 2.7745881478798062
