12
## STRUCTURE-ID: 6456697df46ec751d16cd4b0 ; CHARGE = 0; SPIN = 1
O -0.6244700769053165 -0.7855528880937879 -0.0009155498834054926
C -1.6116071580493379 0.07223243888308688 -0.40845601083587385
H -1.6422399409851998 1.0058649890358928 0.18008001356997752
H -2.591843556854677 -0.416673320808722 -0.30183137660002307
H -1.4991834159862656 0.34102179440329666 -1.4723151264764214
H 0.1950156950298807 -0.5749353692363601 1.1702820521953976
O 1.1079193742520328 -0.23483052517717531 1.5118566674530158
C 1.3080143349089668 -0.06216181950342268 -0.46155695287207404
H 0.778563218167394 0.7810715572910076 -0.8702453299167942
H 1.2582704379139635 -0.9654785994840623 -1.042578787785072
H 2.3113463111363965 0.16709668236585334 -0.1291004209760953
H 1.010214777372401 0.6723450603242195 1.8247808221269743
