21
## STRUCTURE-ID: 645676643efc5c0700159879 ; CHARGE = -1; SPIN = 1
H -1.6135585907280798 1.6875830490974628 -0.4248702733671121
I -1.6950875495869764 0.2320366775183536 0.3425482251263448
O -1.4687077513175464 1.2682209708211458 2.0319811565162857
C -1.4349068987571265 -1.6738794028791775 1.6364495752449733
H -0.6222887238428343 -1.9306284714510717 2.3030970127603148
H -1.9579376470823155 -2.485777144070508 1.1435644279284118
H -2.195228395135404 -1.1737413681456854 2.259619164137384
H -2.307577629478273 1.2891291791507313 2.4980896196995066
O 0.5623796889086845 0.7380375116361011 0.5015918717116297
C 0.22340898608575757 -2.542791004809625 0.3385949199008817
H 1.166664331715961 -2.2606270274543263 0.7886004837633008
H 0.4037387098596094 3.808869014331451 0.26217150925748367
H -0.09052460186159464 -3.5724303630834116 0.45049108236201424
H 0.4452324997912591 1.6241146177323644 0.8443741349982011
Rh 1.5502147290575867 0.7366312315119918 -1.40236159449074
I -0.004966361510551427 -1.834184624039037 -1.575354845480807
I 3.546387690451361 -0.47607965576976596 -0.2873315374176915
O 3.065940372012937 1.1230012406740242 -3.9287043129788257
C 2.4751438475096705 0.8955139139546653 -2.9671978151509286
O -0.3555723738075092 2.650499157503273 -2.692566529027475
C 0.3072456677154143 1.8965024977710616 -2.12278627549325
