13
## STRUCTURE-ID: 64566c190982817c61493a64 ; CHARGE = -1; SPIN = 1
O -0.19405171526599163 1.0655568316583766 -1.6571661515419687
C -2.2150837613174463 -0.4534730477157574 1.3638141084847486
H -2.8676212289949525 -0.5179732923078953 0.5015104770323175
H -1.8070842878367255 0.5457810890219327 1.4693919230456407
H -2.7225474856706295 -0.7681730324518968 2.267036312387668
H -0.6765073509159505 1.915391679401327 -1.703578290827201
Rh 1.4353784093097408 -0.7505256145775613 -0.26382604159395595
I 2.741253678570516 -3.0224183858982148 0.09652066686471722
I -0.5340082207341303 -1.7829014593214918 1.038834880353311
O 0.31134085253589056 1.812102760638665 0.37977928080612294
C 0.44246008740313336 0.9213586790315903 -0.4602131544229713
O 3.405562804109172 0.8618882040024146 -1.81368497012783
C 2.6809082188074886 0.17338558851856994 -1.2184190404605961
