18
## STRUCTURE-ID: 645671c41a83b44261159881 ; CHARGE = -1; SPIN = 1
I -1.5373708602894423 -0.4908286266487042 0.8117668345117423
C -3.0633552603120022 -1.9321679570392565 0.2468426179383024
H -3.591737282831406 -1.5414568780025262 -0.6183298596186881
H -3.727954360196617 -2.0333399246036126 1.1018553304129322
H -2.559640854533741 -2.8722611521675736 0.0370069642814321
O 0.2149716287702964 1.530031538405863 1.3989045409530374
C -0.642672121327459 -0.45035728291269855 -1.1017801999500467
H -1.2854125655882993 0.10425475006673857 -1.7757242344422337
H 0.35324218473950764 0.06238852855253233 -0.9737543882399161
H -0.4978894121388196 -1.4808354286930516 -1.4134542029128592
H -0.06305672358438524 2.0480278579648985 2.1812327937367146
Rh 2.3007177010540607 0.489579443673407 -0.22745384460724205
I 3.2454603607526726 -0.7303652676164718 -2.4173809201359284
I 2.017224272363645 -1.7110048821079038 1.180915675949176
O 2.2280251579142067 2.043745749001295 2.206056104982375
C 1.6138683986265714 1.4543110389932976 1.3181601431027725
O 2.539610615318009 3.3281202314097755 -1.0932748960001852
C 2.455969121263109 2.1821582617239645 -0.8615884599613934
