18
## STRUCTURE-ID: 64566f96fd32614b0c7ccc0a ; CHARGE = -1; SPIN = 1
I -2.509916712005332 3.1100084714991714 -0.7591144452069238
C -2.170616269151644 -0.2027138017220044 -1.0745517062794954
H -1.7703577719774937 -1.2195613049257268 -0.9613751187167218
H -2.784984187355586 -0.011848423280338801 -0.18297256593966027
H -2.8714450049296305 -0.23675946176929177 -1.9287172952429323
O 1.9159214519446792 -3.0608576197016215 1.0793274707214797
C 1.3128284513934938 -0.8263567204859107 2.4638430256560753
H 0.639236669320669 -1.4812251499135576 3.000179206406206
H 1.0847497732340616 0.21805442793141308 2.6307516338013937
H 2.34138934614722 -1.0619752019976658 2.701597755205447
H 2.041524529662158 -3.6892084615053893 0.3645174153895616
Rh -0.737476424276108 1.2560366880387597 -1.4842078840507544
I 0.5366771040087748 -0.527087722289162 -3.004443158002165
I 1.0625238455407378 -1.21089856012219 0.3873372450952293
O 0.4582412760070386 1.6731647784327668 1.0276521850599114
C 0.26118104054926383 0.8816939578382232 0.16198966141670737
O 0.8288893533035604 3.6842162296278587 -2.400192206199227
C 0.36163352858109304 2.705317874345871 -2.0216212191130127
