18
## STRUCTURE-ID: 64566f13c456a679a212b08a ; CHARGE = -1; SPIN = 1
I -1.1558826742520076 2.0520005039002838 1.1246929559692724
C -1.8325709830501866 0.1992544302240296 -1.6527757281628221
H -1.908414971205518 0.06062020077422601 -2.7358067460358195
H -2.6893326101776474 0.8107184597120879 -1.3522685457623471
H -1.970923120941552 -0.7912179405070966 -1.1974732275159965
O 0.7544934309462393 -3.1943951433317506 1.8255078193829426
C 0.8412795438025603 -0.5689974633517456 2.460337074116625
H -0.13691793895676818 -0.4296677274347361 2.9024159028245817
H 1.3809277988971094 0.36903371804660373 2.4060785696159943
H 1.4005324054991863 -1.3195788157067023 3.000986404001715
H 0.6523752364861264 -3.988247429454252 1.3008281605810932
Rh 0.07364674530481405 0.918719393199095 -0.9900198758985487
I 1.2031017710158391 -0.6509675397296943 -2.860017612297918
I 0.598887433400166 -1.3446396404016792 0.4980188073773762
O 2.748526928422141 1.3221314071761199 0.4072252058148332
C 1.77809545162191 1.2718988213662068 -0.2112042536511745
O -1.165212755859734 3.011679224024875 -2.7825339147357413
C -0.5726116909528357 2.271655541493955 -2.1439909956238017
