12
## STRUCTURE-ID: 64566742733c0d721b248aee ; CHARGE = 0; SPIN = 1
O -1.1883322084773977 0.7289893026890202 -0.6527537733943601
C -1.8640793731816678 0.18893748946564395 0.46704247347245836
H -2.83641157344592 0.6650344617615354 0.6116003804568139
H -1.239957461396105 0.38894264238508686 1.3361691224497352
H -1.9975498497567787 -0.8914100657836564 0.3633730977929221
H -1.7518411169454817 0.6364568489330314 -1.4310240168728283
O 1.2213763012438648 -0.7612269182928915 -0.890765020439448
C 2.1208418590872338 -0.275916764221673 0.07699723472010965
H 3.0015417592881266 -0.9166401935938647 0.04444208393290549
H 1.688895510166853 -0.31795281887372834 1.082510259752849
H 2.421941120033134 0.7545299010689093 -0.13777076098603214
H 0.4235750333841437 -0.1997438855374241 -0.8698210808851247
