17
## STRUCTURE-ID: 64568ead5d7d8b710f462270 ; CHARGE = 0; SPIN = 1
C -1.7230723478572278 0.9768224911992632 1.4006152483837675
H -1.5141316999477747 1.2022153453330344 2.447365757229789
H -2.3892616557397557 0.11861818035839858 1.3273562432912496
H -2.2367804868603636 1.822696537865108 0.9377063481826545
O -0.42041335535337787 -1.4454571973745207 -0.09873832027220628
C 2.678638778806043 -1.5516227443785646 0.2311036618236441
H 3.38620875785119 -2.335081843574877 -0.011179649203914942
H 1.7085978596768103 -1.950912805283473 0.5115453887694177
H 3.062617095753573 -0.8734346985812704 0.9839617025062712
H -1.2680962328126844 -1.8539667746414368 0.10363364484906262
Rh -0.3755629498065059 0.18506822124869765 -1.2321835904355576
I -2.912308617145177 -0.05617350950278338 -1.8364399898129282
I 2.343809435525576 -0.39392826813435916 -1.5609859201996912
O 0.671584067437397 0.925423922006383 1.0945101822344439
C -0.4349561260524588 0.7494139758639456 0.7128702021943015
O -0.2818885915744224 2.7281294153581377 -2.8050342030392366
C -0.29498393190084005 1.7521897522382937 -2.2061067065010755
