21
## STRUCTURE-ID: 64568d6b187eeb29cf6aac5a ; CHARGE = -1; SPIN = 1
H -2.882384696898079 -0.3204690189059091 1.5840955188493109
I -1.56015719253602 -1.2496086797098969 -1.6138965992568208
O -2.1676874437034215 0.32614203274409514 1.5746069911153482
C -1.9212181218691686 2.1455050754410667 -1.171390144438593
H -2.1967280849355575 1.835389994191414 -2.1812604061977487
H -2.8186309010061867 2.1745546244594975 -0.54444002273331
H -1.4823276817354407 3.142807756848865 -1.223620969128958
H -2.311240637342165 0.9370886576869815 2.307795919633031
O 1.1495304357665554 -1.938299465380648 2.6479208100331033
C 1.9902410570201625 -2.5662234629358434 0.13729361871483303
H 1.1471786524593006 -2.9605619958406204 -0.41938423784124196
H 2.2205439893547863 -3.1833646782923752 0.9928188458863133
H 2.8420780717908496 -2.42201090886382 -0.5153101458803324
H 0.9093857257402043 -1.4514712437183732 3.438105318348562
Rh -0.6082467718195562 0.8067965154967521 -0.28323595881062447
I 0.5045162849793886 2.619126653482477 1.2844279858331222
I 1.439549613531187 -0.6701762072960825 0.8847759035995334
O 2.1353775129560644 -0.6972405868213416 -2.0110666772935004
C 1.696457991759195 0.07409054589264384 -1.1680121005640305
O 1.0489338152255914 2.154167642162623 -2.2446121338076486
C 0.8648283812622747 1.2437567493584782 -1.4756115160603103
