12
## STRUCTURE-ID: 645668f754e54d7265662c6b ; CHARGE = 0; SPIN = 1
O -1.9147467749473166 0.61832724602714 -0.41711674683599137
C -1.6348626955467511 0.4618028641432276 0.9596579105050143
H -1.34947353022782 1.4438430143528043 1.332783146490854
H -0.8070179765805522 -0.23455475649005442 1.1203469761686058
H -2.516135022073706 0.11676357859878524 1.508579672830629
H -2.199514854160621 -0.2335277769774383 -0.7690021671162013
O 1.5055805760575416 -0.9279501954406543 0.2737726683026281
C 1.6319561919273158 -0.1281973677871333 -0.8833849139446714
H 1.8208242421356655 -0.7399359734187865 -1.7712432440810029
H 2.4344494838258757 0.607410227122766 -0.7758045179187798
H 0.686792692373853 0.39796322319995925 -1.0095536435488826
H 2.3421476672165125 -1.381944083330615 0.43096485914778954
