13
## STRUCTURE-ID: 6456894c0d26a02a886c2b40 ; CHARGE = -1; SPIN = 1
I 1.063191613712841 2.1195017134974172 -1.0826732508895183
O -2.9754146108800117 1.7120038390266599 1.306122171926453
C -0.9549735344725464 -0.2136689364270371 0.3581225475832166
H -1.3261042373309315 -1.1495171093489702 0.7919715164191936
H -1.6398351931062471 0.13234812229469559 -0.421200410070133
H -3.066100546285703 2.6425630517766563 1.076313355213017
Rh 1.0164262208327695 -0.3364995090251144 -0.1807883776303337
I 1.5435264597927052 0.21079447450985866 2.5828394491737643
I -1.1085372847917299 1.2551299527297854 1.8826008133846655
O 1.0679691651829528 -2.529483277845419 -0.24694359933261986
C 1.385972975772459 -1.9733696404395145 -1.3057392202884035
O 2.736763581927255 -0.7392881450926764 -2.900010662507832
C 2.2571153896461746 -1.1305145356563575 -1.8606143329814564
