8
## STRUCTURE-ID: 645663d0eb697476904b65f2 ; CHARGE = 0; SPIN = 1
H -4.216769053191552 0.2246882896319987 0.5377560693538095
I -3.4640577839355355 -0.05673768520400707 -0.8138053126961867
O 0.9899236093116704 0.22242385640251652 -0.9672712294297837
C 1.2538305536032184 0.03179963484679805 0.4049698753857349
H 0.9910979728923948 -0.9799824676850424 0.7286062229525939
H 0.6346103822994157 0.7470933030729682 0.9431254265448072
H 2.3049559172989302 0.22486655595571595 0.6419281379232027
H 1.5064084017214554 -0.41415148702094556 -1.4753091900341795
