13
## STRUCTURE-ID: 6456891dbc5f043c17111de4 ; CHARGE = -1; SPIN = 1
I -1.0744384732543988 -0.1643379650867039 -2.927678681828239
O 1.544714771171092 2.707842855029654 0.5971828268612183
C 1.362352113239783 0.03744889210797366 -0.16534567196397829
H 1.9204521924259428 0.3267485302399379 -1.056032727207794
H 2.0548759991981367 -0.0698768624170258 0.6687718638974266
H 1.3105122820887376 3.6353430479400424 0.695183345172554
Rh -1.4163376192916979 -0.7699492431250221 -0.41138410552573157
I -4.0886917743753886 -0.5118165184122162 -0.4336631385731884
I -0.1636822018080436 1.4698565891338544 0.24124772348861
O -1.468426668413564 -1.7957866113542207 2.39028642652974
C -1.464075644788192 -1.3600691300446703 1.325911427251575
O 0.9786780847735397 -2.3074385951273046 -0.5266015574029064
C 0.5040669390341173 -1.1979649888843271 -0.3978777306993728
