10
## STRUCTURE-ID: 64568b1973620637537b924a ; CHARGE = -1; SPIN = 1
O 0.26512754649694575 1.835244766672221 1.149877448835313
H -1.3964853029529192 -1.6583885513564487 -0.5291877853170778
H 0.5960873704706483 1.7989305862307854 2.071459661218701
Rh 0.047590523073027295 -1.164608435333382 -0.4080521240206417
I 2.56779942162338 -0.9038755678642616 0.21908702509652148
I 0.4931094279582007 -2.3510723387471115 -2.6394143055365658
O -0.5792619397197123 -0.21268544333396353 1.561388975048615
C -0.364718420574833 0.7349352098410438 0.786002320327491
O -0.9604163639504092 1.3322553206589947 -1.5521946443004353
C -0.6688322624243305 0.5892644532321317 -0.6589665713519257
