18
## STRUCTURE-ID: 64566ef9b0c8f021ff1d80ad ; CHARGE = -1; SPIN = 3
I -1.8242510944004524 -1.8832129465282952 0.324366317327126
C -3.5027452341314684 -0.5854301599436083 -0.1604232658121694
H -3.170401508350555 0.10681420142090348 -0.927973642579157
H -3.7702936812603536 -0.050293177801412535 0.7434197837022176
H -4.308828544479357 -1.217167708876242 -0.5106569686384997
O 2.090363898655796 2.260406807091596 1.296364959041578
C 1.2906546159523382 -1.008012106488414 -2.256540018816943
H 1.6250236581632531 -0.9924124289094561 -3.285262738092635
H 0.7643502290634454 -1.9271806932903237 -2.0223864876604067
H 2.114655219406511 -0.843586355071382 -1.5697811223001246
H 3.024719394597679 2.549694283007434 1.2579423072952256
Rh 0.10140959451757475 0.1785307573245233 0.8158657538816064
I -1.5416014228006916 2.204004646259089 1.64403012351129
I -0.10439883702393804 0.6408289961300772 -1.993360290491102
O 2.8655462919746033 0.47657424580962154 0.20788251240476743
C 1.9015268749971443 1.0631573561593815 0.7128112970502434
O 1.7027145759550468 -0.4880881224773857 3.2053343350833146
C 0.7415559691634438 -0.48462759381613657 2.5183671450937024
