12
## STRUCTURE-ID: 6456685808809c0341293426 ; CHARGE = 0; SPIN = 1
O -1.2700572423386627 0.7635325602693482 -0.6016980704723007
C -0.307988566719666 0.639249359522088 1.4466695835941998
H 0.4097715949858431 0.3147151220921228 2.197251114841671
H -1.3254134967807665 0.37568116459835943 1.679689276556707
H -0.17769267574029168 1.661254320630656 1.1347178776952986
H -1.872147048512376 0.01863238857833959 -0.6421358103311314
O 0.9605905871149771 -0.9109060562583692 0.13042968088526957
C 0.8895210923363073 -0.7246130381401191 -1.2188054464254454
H 1.8052095724098485 -0.2851248941977647 -1.6240671663111255
H 0.05026617818438664 0.012989815224426049 -1.3663435029045556
H 0.6056196978674034 -1.6432263323720007 -1.7405287575981965
H 0.23232030719297364 -0.2221844099471027 0.6048212204695723
