14
## STRUCTURE-ID: 64567b0a577eb81d084efcb6 ; CHARGE = 0; SPIN = 1
H -3.642123415136521 -0.5817864387515026 -1.3767987668447075
I -3.6596616201595205 -0.3700256557071006 0.19359208463110195
C -1.1942054435043357 -0.022953128490511038 0.24143350335148003
H -1.1568511916676192 0.2596132372867267 1.285448948547232
H -0.9690327335562203 -1.0464214234889058 -0.0302495364036714
H -1.2237048923962126 0.7519714977183642 -0.5157026399054111
O 1.8292731747831947 -0.9962164908201234 -1.4377284867274003
Rh 1.381918518184272 0.383581626176768 0.03479307059760159
I 1.2110945041728094 2.2927487100899553 -1.699340300355521
I 0.40883252514905133 -1.434437958491185 -2.7087240463795457
O 2.2976541464946822 -2.1154076182291295 1.3705567049303955
C 1.8597939327986321 -1.1285955188868713 1.0002510482329703
O 1.5035618472575643 2.3966796595072384 2.229747683175279
C 1.3534506475802166 1.611249502086264 1.4127207331501865
