18
## STRUCTURE-ID: 645689dba7b50a25126cd4aa ; CHARGE = -1; SPIN = 1
I -2.350417962762843 1.2789666658114978 0.32745444935161405
C -2.3134408095169148 -2.055316287080289 0.9786092006930696
H -2.7249549553111 -1.5396146327072242 1.8477958836736317
H -1.85102315218785 -2.988758607640037 1.3067931141711124
H -3.1224571920802755 -2.280387059087579 0.27061785778836783
O 0.7146049668565769 1.9519666724423206 -2.8998048599736888
C 1.5085164295371563 2.324629959815772 -0.30558707753520103
H 1.8204158172979128 3.038589878103007 -1.0564198596418082
H 2.2930657994708303 2.1071588533639427 0.40985962166164625
H 0.6013347462895309 2.6584764568258086 0.1873551245098494
H 0.49245106166944697 1.5650850253436097 -3.748117615651151
Rh -0.9545106196909826 -0.8769739517398233 -0.039965248955824415
I 0.12585691912984717 -2.922812938514157 -1.2848307026700356
I 1.0820639073972207 0.5163586425954543 -1.327240336465666
O 0.13604280778195932 -0.4944016149247357 2.562055300238574
C 0.34275727998621225 -0.6325055245670641 1.3833726465111689
O 2.62330060872364 -1.1135953862468364 0.8035420833669066
C 1.5763943474096245 -0.536866151793672 0.584510418927442
