19
## STRUCTURE-ID: 64568eec4729501cb16cdb3a ; CHARGE = 0; SPIN = 1
H -1.8719619265424323 -2.879301152493706 -0.33434700619882823
I -1.4963524637029322 -2.1061189296207523 1.0098234167849456
C -2.1384410434141796 1.275434950055316 0.028857505835418067
H -2.4264907775309674 1.7139027149174215 0.9879088123675138
H -2.9042204608805386 0.5554504731820277 -0.26898773799062814
H -2.112805715648722 2.070016581944396 -0.7206881183360869
O 0.9625711940115923 2.7303655358730565 -0.9326984273423807
C 2.086797302742086 -2.857911625644573 -0.6953164269831685
H 1.572069179343747 -2.6422953985104773 -1.6266916735678796
H 1.5160929823064697 -3.530335184104045 -0.06356336128179318
H 3.085253009292902 -3.23699896360382 -0.8776747492394914
H 1.3689767453422672 3.571540025950944 -0.6223188651408332
Rh -0.308898629092074 0.2532973248948079 0.12681606511031326
I 2.3057979817872267 -0.9787854650416693 0.3794189303748108
I -0.4809284361063874 -0.4546601338117127 -2.4642401429784537
O -0.21133129328322794 1.0807753177745472 3.01462940380126
C -0.055726733984821156 1.1309551599605139 1.8351952998204109
O 0.6014813966763973 2.3427401478165946 1.2474752848238155
C 0.5081176886836364 1.9619286204611206 -0.023598209858937215
