12
## STRUCTURE-ID: 645668367a8daa5cc56c2b48 ; CHARGE = 0; SPIN = 1
O -2.8245504473573066 -0.39068537052779573 0.7032994200157343
C -1.7856229260984309 0.4796201628464317 1.1046855329039347
H -1.9259244853852597 1.4811151099036484 0.6846709021093426
H -0.8054912737539071 0.09730027687266032 0.8090845274755344
H -1.8345740674306936 0.542747846888601 2.190405059276631
H -2.7521292159007946 -0.5315505986805498 -0.2479187499424269
O 1.169343190041336 -0.7142714480737052 -0.31302230535244907
C 2.1327811575050473 0.005621754045734239 -1.0508428562574155
H 2.324000595644215 -0.46189616919813115 -2.021114361970945
H 3.074124718643728 0.09411517388809862 -0.5010735910021599
H 1.7237045087994125 1.0013281098392404 -1.21230872742508
H 1.504338245292695 -1.6034448478041021 -0.14586484983033146
