18
## STRUCTURE-ID: 645689d1b61c5a7dce3288aa ; CHARGE = -1; SPIN = 1
I 0.9154900485944483 2.6702258856918566 0.4465503103581914
C -2.442274464381447 -0.048541228462450826 -0.4180450114743344
H -2.512148264463895 -0.9612718681426214 -1.0105173146023254
H -3.430098922082604 0.32566949706708365 -0.15973373000489446
H -1.9077485558505585 0.6951004405320137 -1.0377650439266966
O 2.613094405676819 -1.39094757212656 0.2593503320534617
C 0.9539470753254303 -0.6997835247019446 2.3456136852882876
H 1.3674300030842086 -1.6282631054966608 2.715081481160892
H 0.04511863215467846 -0.41775059697057987 2.8634639234676023
H 1.6975027447187347 0.0870492839619829 2.3828419892803963
H 2.8919117698108225 -1.9530247747212526 -0.4634201289672693
Rh 0.6790150895237642 0.8540201341382294 -1.4544601600577105
I 0.1736405646113311 -1.0596520493793538 -3.193537598187822
I 0.456807059093017 -0.9961607550588536 0.32612264110949235
O -1.9435005574205089 -0.1419094524779548 1.9325073465158595
C -1.61942182652357 -0.316298945678645 0.7883701009577345
O 1.1365487576023985 2.884648854115288 -3.570819242340232
C 0.9246864405269273 2.096889777710422 -2.751603580630622
