20
## STRUCTURE-ID: 6456b6f17fe6a627a35eb026 ; CHARGE = -1; SPIN = 3
C -2.414921745888813 0.263371001306359 -0.11877265473529178
O -2.928114936621185 -0.5672466561448813 -0.7147963584213178
I 2.445070827234098 -1.8620707459896069 0.6094806480716906
C 0.6098076743333407 -1.9607130866458828 -2.6637892495041564
H 1.4942545733743904 -1.3342215764740726 -2.787626779064984
H 0.8840914409413015 -3.013351731921225 -2.7357255797125744
H -0.10828879020466799 -1.724712289918903 -3.4502575321832345
O 2.6489391674658966 1.6513215481521957 -0.13605771665050925
C -1.634003094944291 1.367772671191019 2.8355122638150294
H -2.3374635595345223 1.6883294160884816 2.074413297184168
H -0.7593439801169289 2.0087825240040496 2.8563895751609443
H -2.0947720905641307 1.2836440129537956 3.8121772500549413
H 3.1852191813995967 2.3669423743748244 0.26378333849323776
Rh 0.48642881423062234 -0.18073743309673454 -0.17000129687860932
I -0.4241997726092798 1.5769706862929107 -1.967836252625107
I -0.9502834131855783 -0.6014963477134756 2.266366859790761
O 1.3150814991201807 1.8835385261388349 1.6463080733771676
C 1.5864981462138097 1.3242567690568434 0.5967440904653362
O -0.9315166331759199 -2.4454361949534764 -0.8776618249463877
C -0.07248330746790428 -1.7249434667010797 -1.338650151691122
