12
## STRUCTURE-ID: 64566814674fd631da6cdb4e ; CHARGE = 0; SPIN = 1
O -1.85743395773055 0.47284800324837817 -0.8474957547780197
C -1.7194595615695751 -0.3812029329477298 0.26792284197602406
H -2.419390119088614 -0.11589052354129721 1.065377836994089
H 1.621074695268876 1.2892010131011682 2.8019441150974975
H -1.9445440119967776 -1.387859021993804 -0.08033839034432787
H -1.7072349704720773 1.38116621660344 -0.5591768031592192
O 1.5744152397664115 -0.283338565178979 -0.19802131016138103
C 1.7624001422521944 -0.44160196432252186 -1.3708165424704453
H -0.6982011830086755 -0.36064159156736475 0.6606524133909898
H 1.9701716577490977 -1.4309096471910556 -1.8033304341871657
H 1.7371575158348231 0.3912668373669896 -2.087720311342223
H 1.681044552994868 0.8669621764227685 2.151002338984177
