12
## STRUCTURE-ID: 645668456f610210374efcb3 ; CHARGE = 0; SPIN = 1
O -1.4976932711916222 -0.8112004478059334 -0.4326163066821194
C -1.1220883344726484 0.05762346897583281 0.6056460997403653
H -1.3691330564739377 1.1267943214932135 0.421366073374081
H -0.7217702169540764 -0.5624563874306543 1.4437762239540952
H -2.0405394379387722 0.0649991586447885 1.3110033878784966
H -1.374104795842378 -0.4052278275821618 -1.2995352411426957
O 0.7026424595141539 1.1520298960800204 -0.7497435571947231
C 0.5713332480809065 0.5178523279145975 0.44010850671928164
H 3.9233268091750024 -2.5281213661444664 -2.0595025453307545
H 1.1635787951641137 -0.39281036823554594 0.5178072536028552
H 0.7588084624541697 1.2129772018509049 1.2573649009545094
H 1.0056393384850941 0.5675400222394046 -1.455674795873394
