36
## STRUCTURE-ID: 6456e0fc56e8c0184e40f201 ; CHARGE = -3; SPIN = 1
Rh -2.774154750545928 1.5925693679729653 -1.1933481489065614
I -2.884094635980251 4.2114156408721986 -0.8519617549948524
I -3.9075451548820017 1.6478526174788777 -3.5857901907646346
O -1.9523027814735587 -1.2430304346207877 -0.9442214014327479
C -2.436591661544291 -0.1857729228257025 -1.1126443801098636
O -0.7835062097010621 1.3897166320518677 0.901387153184607
C -1.9968994089105334 1.5271712289753616 0.6109892170732794
H -7.013994969560147 1.3733723082019857 0.2745970382584262
I -5.326869599598237 1.5490028447741504 -0.18121187239251582
O -2.8572864580886295 1.5908445106014981 1.6455694924555058
C -5.90387148163641 -0.284972809637133 -1.2146064222956285
H -4.983833342966272 -0.7858530754821349 -1.4981965730274445
H -6.453362753329841 0.011254018097935147 -2.1030122691596422
H -6.495163848033887 -0.8857817443105692 -0.5324346575770195
H -2.4105854632620383 1.5864886239226468 2.51504720429085
O 2.179445330509308 -2.2429092112628135 3.163462438616772
C 1.2281016394976079 -2.7249712677146234 -0.07330170003745717
H 1.20295834843863 -3.242424041197914 0.8781252575057741
H 2.221901069972794 -2.7845491587859352 -0.501998780495984
H 0.48962615092829354 -3.127273431697577 -0.7575104845456377
H 1.5569462574351773 -1.6371468670116656 3.5982746358204007
Rh 2.196346695072976 0.8231693260988663 -1.4564925446824102
I 0.10441068098152065 1.8803674630112057 -2.6398012019293526
I 0.7857265062756912 -0.6647114731629284 0.250633225863356
O 3.9007650955453514 -1.4295863650237235 -1.0986297382997021
C 3.73810471638847 -0.23093803051580614 -0.8250383894484198
O 4.240694295675415 0.8320416994174715 -3.620740610419509
C 3.362107610992021 0.9149014244595495 -2.8511229015759905
O 4.824800753386957 0.4254820250570825 -0.2747500069116953
H 5.572528614009163 -0.19294769567231068 -0.1719855806768597
Rh 2.720878780030001 0.26415409829769204 1.7599759141838038
I 2.331268046423989 2.7332560103577577 0.7865387045344616
O 3.889713496976226 -2.3060545847605027 1.769505695703367
C 3.0215397102437467 -1.5964132374378284 2.261139229629164
O 4.702923756252085 0.6268701639986292 3.9599198822129025
C 3.9092749644775537 0.5854063474720008 3.1136345203514
