17
## STRUCTURE-ID: 64568eca7333a80ddd12b08a ; CHARGE = 0; SPIN = 1
C -2.5852557939060135 -0.5412991418199093 -2.0312547176262217
H -3.2016186088231824 -0.24981501124659208 -1.1887321262971682
H -1.9589914982878738 -1.3920910979483796 -1.7815969043631206
H -3.1725236075739343 -0.7083977198741067 -2.928482656165832
O -0.7287646050973938 -2.6536187141553214 1.799710907658987
C 1.2319718842972653 -0.7753301865460507 2.158265758805585
H 0.9164553436171762 -1.5982554499514594 2.781065225205797
H 1.169438511715807 0.16635978199586615 2.689500677564084
H 2.2278993105549123 -0.9454593685016709 1.7685755282639717
H -1.4831613442090785 -3.10576994029596 1.425651255322046
Rh 0.7007044935104352 1.3955819308839295 -0.7726677009686191
I -1.2608556039639716 1.115418238314045 -2.4627631072258866
I -0.1209994292093185 -0.7222285493049453 0.536361677532854
O 2.9709346200262114 1.6354993029257014 1.1503459330154786
C 2.0831745019393986 1.5144341551116451 0.4371374924096876
O 1.8580979397033783 3.913218707372098 -1.96394227439514
C 1.353493885705755 2.9517530630417825 -1.6171749687358021
