12
## STRUCTURE-ID: 64566db4a524d978bf071017 ; CHARGE = -1; SPIN = 1
Rh -0.5081188281316421 0.6487904127766126 -0.9150279764959344
I -2.963485689111443 -0.14627483776635855 -0.29151111625769427
I -0.7350551061542153 2.887005227875734 0.45821605150841527
O 0.5049209448904262 -1.8112061222044433 -0.05333278770420565
C 0.31448864724909703 -0.6991378033682255 0.33745388032234874
O -0.6776201378757775 -1.2443719618337463 -3.208806151622674
C -0.5816649439803635 -0.5782318176464851 -2.281483975536907
I 1.851704604444644 1.340468347342605 -1.9139874267702683
C 0.6370885175289428 -0.18873354277171486 1.7108535675312302
H 1.079071339010012 -1.0110935704817636 2.2736020593476574
H 1.3423788363740836 0.6434857624128105 1.663464136282213
H -0.2637081842437612 0.15929990566498353 2.220559739395808
