18
## STRUCTURE-ID: 64567316f271222c254f734e ; CHARGE = -1; SPIN = 1
I -2.5574916988289758 -1.7579757188617533 -1.7175618529132755
C -3.680547492274722 -1.0836373506410932 -0.021364858035672955
H -4.4712293875701965 -0.4441844959517023 -0.4003922752621277
H -2.968597340230587 -0.5292409367590843 0.585444766185949
H -4.07110206346251 -1.972730642121471 0.46592662597173606
O 2.192719993548417 2.5743616544214065 -1.587369310732676
C -1.333268661466283 -3.1430284743988133 -0.6477749192804508
H -0.7131260068589643 -2.533822262848607 0.0033196179526324508
H -2.0060337461322666 -3.806005087497401 -0.11230935909008849
H -0.7348697160668195 -3.6719616031780906 -1.3814139432937804
H 2.9296266119155456 3.072766584817764 -1.9456249586142342
Rh 2.3514239611673737 1.8937419376407387 0.4463562694547519
I 3.9079468671086848 -0.32917597347787425 -0.31649333304030547
I 0.046573256178464265 0.5691443861428371 0.18865537309446945
O 2.5566851409231255 1.2542838519656938 3.3450031757957195
C 2.4636605293543044 1.4807665486409811 2.2045727392273227
O 3.196269816643948 4.766338423118564 0.3331244511610276
C 2.891359936051457 3.6603591589879207 0.5579017914190041
