18
## STRUCTURE-ID: 64568a505a3b2b45302c50c0 ; CHARGE = -1; SPIN = 1
I -1.353760506927484 -3.3859499115192557 -1.9649954900309472
C -0.6273527651446296 2.5401455857832866 1.4069661760029708
H -0.24596723044805474 2.384155760342935 2.421975292066195
H -1.6234188285046882 2.9877141928486757 1.4988609483529336
H 0.02592123431540281 3.2717091516132966 0.9120912376739082
O 1.4410061392271565 0.546673313627961 -1.5867266838150271
C 1.6779568284405146 -2.235833123991694 -1.241126021841107
H 1.8467197078773347 -2.9039064907330436 -2.0806329521856406
H 1.4329270405688301 -2.7936165148518413 -0.34232741195158883
H 2.517534009451251 -1.5725736674682413 -1.072622809628984
H 1.35031820631319 1.1561927436281814 -2.319459683182734
Rh -0.7653601065761357 0.7961182542274972 0.23730721835000412
I -2.127182732892414 1.9476003460940228 -1.6934847749732278
I 0.03736040652240751 -0.9372522936743467 -1.7026883170706866
O -2.560703931320754 -0.13428530466994576 2.2384140799090186
C -1.7402838404048337 -0.5358317996016126 1.477824468487169
O 0.6702276940652381 -0.9068652537954717 2.268287144280296
C 0.04405867543766262 -0.22419498786038639 1.5423375795574419
