18
## STRUCTURE-ID: 645688f970a4e76c445c71b0 ; CHARGE = -1; SPIN = 1
I -1.114630038824291 -2.6106240627219055 -1.8642244879873153
C -1.7654631051873768 -0.408669851438435 1.1576001381563221
H -2.4757403468652783 -0.9632808789949813 0.5339207809794508
H -1.9193602362883506 0.6518434105214819 0.9602611437231965
H -1.998683103732333 -0.6255282700900088 2.199474764948791
O 0.11027668776687737 2.451821101405954 -2.8963177448094517
C 1.2608638778852834 1.9687878165103518 -0.476510523799436
H 1.6004639512957295 2.712982800464553 -1.1815867695788285
H 2.0942989820565336 1.4221620475190107 -0.048444300726095305
H 0.6578988975529465 2.426952920147407 0.2988796887714695
H -0.36460122072839035 2.2907095146236993 -3.711189341184381
Rh 0.034622553603517375 -1.3832796763006283 0.25940738757789944
I 2.6325128706644176 -1.8330843417378138 -0.4436354694173913
I 0.059558952974744506 0.6083092233499348 -1.5707475247227503
O 0.46090769278735955 0.6233981384692516 2.4295667874345463
C 0.21323297111894984 -0.13935305147075944 1.5956968512067686
O 0.4130759017377395 -4.115234567754667 1.5569185132187566
C 0.10076471218192459 -3.077912272502437 1.2009301062084579
