12
## STRUCTURE-ID: 64566dbbfada7d7a9d5fdabd ; CHARGE = -1; SPIN = 1
Rh -1.4138185362451203 0.023844899111686198 0.10040546346390673
I -1.7888792630655095 1.5759824067489772 -1.9533308299394039
I -3.591047370495919 0.7903527984048929 1.3293664840229273
O -1.1125632196764277 -1.8823241357308094 2.3807807244522876
C -1.1983182300439672 -1.1416305494179448 1.5093760660981093
O 0.2552894984967711 -1.749975653348563 -1.573147689557869
C -0.10671142281948762 -0.894164632216585 -0.8795701854772651
I 3.6130856367744877 1.5878541170457516 0.08753804859516705
C 1.2779969631866166 0.3758747377053254 -0.26807005412365353
H 1.7882397758496689 -0.450501264246759 0.1868789106815224
H 1.4377768196639202 0.6356876649601325 -1.2975765728090256
H 0.8389493483749747 1.1289996109838971 0.37734963459329823
