12
## STRUCTURE-ID: 64566bb2c7db4a184e5c71b0 ; CHARGE = 0; SPIN = 1
O -0.7509073451611151 0.5020661360474464 -0.20137094284865278
C -1.5757369625935491 -0.17604950859378155 0.6575595468048286
H -1.432703911845017 0.15401828895488454 1.6999783573415876
H -1.4254102306930956 -1.2678089887277735 0.6169001862236296
H -2.6249050029254533 0.02493569417273611 0.39419141865991364
H -0.02013355011077934 -0.18686729302645863 -1.2142502567819102
O 0.9208173251025211 -0.4895869107369546 -1.5313442373047972
C 1.2877033771592385 0.2674765945545321 0.27507603765857225
H 0.8617359247225655 -0.20337377911867419 1.144528881807931
H 1.246341467413395 1.3419404115040243 0.2706387778480057
H 2.253122936023628 -0.149448458373531 0.021495032102487415
H 1.2600759729076674 0.18269781334355048 -2.1334028015115947
