12
## STRUCTURE-ID: 6456685db895a7565d76345e ; CHARGE = 0; SPIN = 1
O -1.1424882056567658 0.07200726592982719 0.7059370190211006
C -1.1317614028277214 0.7511725678086346 1.6973133130133604
H -0.5868765214414219 0.45319024435466126 2.6047150970526625
H -1.6898220204759802 1.696173484897004 1.7648409898032895
H 0.6786642095744538 2.138777914952266 1.4008629704443665
H -0.13707467410573876 -1.4681136092445366 -0.11406443126542794
O 0.4255414691515924 -1.9645901965492372 -0.7281822290873254
C 0.5408113530650075 -1.210442083653245 -1.9130169792102985
H 1.1391771575729592 -1.7988821814242848 -2.6070002184124097
H 1.0424779384140477 -0.25472412797212896 -1.729075109885889
H -0.43898523986989063 -1.0159742273403023 -2.3594838408790597
H 1.3003359365994533 2.6014049482413206 1.2771534194056007
