12
## STRUCTURE-ID: 645666d2718ea80db21d80b0 ; CHARGE = 0; SPIN = 1
O -1.4171086625187508 0.4685024651893329 -0.4068908450172749
C -1.0648840338330825 -0.09957920721809944 0.6753301641031916
H -0.8830193232717386 0.42668448580735135 1.5978568086606364
H -0.7982395990878136 -1.1414099445572456 0.6145853616985514
H -2.771838428514778 -0.6491926058468266 1.4856269815693142
H -1.6610434865613586 1.4121569618562564 -0.323851415540613
O 1.1170658400720994 0.17936254080497768 0.40316363627986324
C 1.4612291681470322 -0.3174505371305926 -0.8794574287483828
H 2.5114121993198757 -0.12355928780938197 -1.100396732746699
H 0.8312548888327004 0.1263290617109442 -1.6543720860729225
H 1.295241146018131 -1.3922099643964374 -0.8597022329170342
H 1.379930291397623 1.1103660315897135 0.44810778873146406
