12
## STRUCTURE-ID: 6456689184e16a40ec1dbeab ; CHARGE = 0; SPIN = 1
O -0.9358374436601296 -0.5201324532548438 -0.4707949893365968
C -1.7230918715959864 0.1843932417318306 0.5102786871288794
H -1.4724176052593658 1.2434324916278525 0.45585294313864794
H -1.5474898520303948 -0.1863696467646954 1.5200320484222218
H -2.761770630101752 0.03538936153964205 0.21077576851597005
H -1.1060168590949933 -1.500704464844142 -0.410385208021183
O 0.5179105178859328 -0.44622354550289184 -0.16768779460340388
C 1.1658550573505344 0.4432658208610971 -1.0271912108470918
H 1.097202904284211 0.12592982056445176 -2.0697013256159833
H 2.200195369002145 0.3633005014609868 -0.6877681062410324
H 0.8256729937531395 1.472496407543232 -0.8963357169825192
H 3.7397874194666616 -1.214777534962522 3.0329249044420887
