18
## STRUCTURE-ID: 645674d98324250c8a3ae5e3 ; CHARGE = -1; SPIN = 1
I -1.7635487627289723 3.7643758049988794 1.7763614111926744
C -3.762351016706583 0.477196112562873 1.19179244723719
H -3.98009439643224 1.167350024028546 0.40184718211460074
H -3.579599382547781 0.8439993128200363 2.1820657462785142
H -3.727526624434281 -0.5738890715062258 0.9896562007389508
O 2.372525258037657 -2.2634440902964803 0.7626696712909772
C -0.1436035330682259 2.6185727754422006 1.0143705332642778
H -0.5437112301421508 1.6858718871615193 0.6407330533710217
H 0.3316175194072164 3.1780294895896817 0.22053153683027393
H 0.5547757631483675 2.4396622488876205 1.8200259982122597
H 1.7276784045958296 -2.127772102025118 1.4656237695678502
Rh 1.689809439097075 -1.7807777353639789 -1.124155109744709
I 2.646333466940701 0.8732432375677066 -0.9414734823435252
I -0.7318868834086069 -1.3617828321926844 -0.18082171468602648
O 0.5203697719606567 -1.43151751291616 -3.852249500779024
C 0.9980656618818612 -1.5604224282969488 -2.811670562033612
O 4.187994499246369 -3.2517385914722117 -1.8810557657585765
C 3.2031520451531468 -2.6969565289892494 -1.6742514147531797
