18
## STRUCTURE-ID: 64566ff03e0ecb0a8d6cd4c1 ; CHARGE = -1; SPIN = 1
I -1.070282589447255 -0.277508976876974 3.028154319872482
C -1.147931332154727 -0.7915185197348334 -2.5766442272789383
H -0.0921380451876201 -0.5856876528054055 -2.7012930178034087
H -1.696757212661626 -0.3766287813655651 -3.411577513816132
H -1.3129713109679013 -1.8598757456023332 -2.5302258300015823
O 2.0493323026047645 -2.8809473770483645 0.008610499923367466
C 1.109217904860433 -1.9681042413904746 0.25907741845722865
H 0.6928011800896126 -1.9638844455598892 1.2656833140642632
H 0.3394705163293842 -1.9986541680126397 -0.5077125600476171
H -1.4999627499346404 -0.331665236474584 -1.659638808139851
H 2.6507836971946834 -3.0160133703181367 0.7596246223305765
Rh -0.15927293794563926 1.8845646270473828 1.7915985822041978
I 1.6624388493436049 2.4274478283184715 3.6567983475220474
I 1.9002056076531704 0.18734132786160546 0.06113699528640462
O 0.5098447564160878 4.586036908335753 0.7083882980840125
C 0.25942738871702703 3.531049209404463 1.1017199694992794
O -2.573882441148442 1.6860842319400662 0.04933780226212357
C -1.6203235837609218 1.7479643822814799 0.6969617875815577
