12
## STRUCTURE-ID: 6456b801712e2f02e6750ee4 ; CHARGE = -1; SPIN = 1
C -2.0960758012723537 0.3107272432748715 0.038548741795560684
O -2.8211959518311773 -0.1458815934013472 0.7998621204977934
H -0.0903474903417202 1.4221036783407686 -3.664612762834962
I -0.043443893765180784 -0.05470874131452012 -3.037361008744558
O 0.3670791061201704 -0.28533417050815824 3.230636909520729
Rh -0.11171142805859435 0.3013365577672166 -0.3445106396324186
I 0.3436137389620419 2.9930240664571848 -0.49493159118571745
I 0.3867578316174851 1.1622821511780337 2.081595687280822
O -0.25847604720369877 -2.584059305398206 0.5263310325968519
C 0.23796489882492938 -1.518613807092657 0.24788615825894242
O 2.6318102528328158 -0.820812788702607 0.4402934458590588
C 1.4540247841152922 -0.7800632906005928 0.17626190658792046
