19
## STRUCTURE-ID: 64567a91c821f46017662c6e ; CHARGE = 0; SPIN = 1
H -1.0004361255399028 -2.5185419153737656 -0.5939654095783489
I -2.923327046505483 -0.8857625551197094 1.092005627508887
C -2.852881628099259 0.2694272772737645 2.896112352368527
H -1.8966870894739902 0.7769630400175153 2.9124871629066447
H -3.6755253992457493 0.9714963983633668 2.865744516302302
H -2.9511163256281416 -0.4165930453099698 3.726634906231197
O -0.19889069624075467 -2.493920758387429 -1.135043071145801
C 2.507057405347451 1.4749342335109201 0.8417744277557134
H 3.2256524489032032 0.7000449972035271 0.6057943510742311
H 2.7122415973712526 1.916030356906998 1.8082816702643698
H 2.484297505124606 2.228058666125959 0.06378895607517585
H 0.42294025081050446 -3.1394605997092517 -0.7650490140081958
Rh 0.6256018076697163 -0.5975384486059733 -1.9983553263714815
I 3.0210825323577395 -1.5669772231878634 -1.6913150617420605
I 0.5741096117089789 0.5683026823745289 0.9247024516331234
O -2.1431187243377248 0.27833421751561055 -2.7365266759238245
C -1.096215713124184 -0.06699046374713177 -2.4398013876312947
O 1.831789397766414 1.6899060893481965 -3.4616907141946314
C 1.3334261911267717 0.812287050800744 -2.915579761523733
