12
## STRUCTURE-ID: 64566abd7a407f7f517ffa80 ; CHARGE = 0; SPIN = 1
O -2.0627351345397322 -0.15691320056555036 -1.133062664341592
C -0.2924016485235772 -0.4098495591459232 0.9859760655512195
H -1.4294008793079582 -0.26301601425520676 -0.3271552853799797
H 0.05465368580494251 -1.4359549065487873 0.891957950642247
H -0.8091998952909037 -0.10273364955276144 1.8830737342999366
H -2.8974641814561717 0.13435153285165774 -0.7640480305406867
O 0.8320303953236735 0.6567232061041715 0.6546282402695174
C 1.3261706734996268 0.46158776446852984 -0.6601657137338501
H 1.8253818566993227 -0.5040449626874229 -0.7620708932556681
H 2.0358011794366626 1.265689635093293 -0.8490510389378921
H 0.49639923522171303 0.506793658621942 -1.3686740355916551
H 0.9207647131324269 -0.15263350438392279 1.4485916710183986
