12
## STRUCTURE-ID: 6456673cebebba783f7c7c4b ; CHARGE = 0; SPIN = 1
O -0.22448949991401002 0.03162505001010367 -0.28456218642077913
C -1.0979696932836367 -0.5057249926991157 0.6856324424585687
H -1.5750354007688243 0.33781711777947077 1.1788295314423551
H -0.5460193328870726 -1.0977367073258524 1.4235288335755731
H -1.8589990819142572 -1.1381554278507149 0.21611313328220672
H 0.6640324458117391 1.564767595768323 0.431320251887974
O 1.0686194792865342 2.376150809093473 0.7737369382374402
C 0.49693455456365043 -0.9612762867418159 -0.9817509785421153
H 1.1414598053145397 -1.527579463437133 -0.3001487724365681
H 1.10771047622403 -0.4455453508501 -1.7189961555774502
H -0.18354470920847574 -1.654439406596586 -1.4879267685405944
H 1.0073009567757722 3.0200970628499566 0.06422373063339273
