19
## STRUCTURE-ID: 64567b0217c1a13d0f4ed2b5 ; CHARGE = 0; SPIN = 1
H -1.7916986880298282 -2.484959424646199 -1.706405102515735
I -2.9593170230740156 -2.5813434856034236 -0.5688215886933804
C -2.629655880379968 -0.5983554726002369 0.2248331425569537
H -3.44670879055976 0.034781239985261156 -0.10660183181119233
H -2.5995213665596846 -0.7002906408324653 1.306251456299388
H -1.6629668329778726 -0.2569778886044798 -0.16874992151522744
O 3.073143205855726 1.2919398820283061 -1.6054777824520303
C 0.6799731976369296 1.135349740011817 3.0560602397538417
H 1.6120743477576656 1.3192882608684635 3.576616209030906
H 0.4594334950497949 0.07356154575544649 3.0208496356023833
H -0.13296567476323073 1.699340147809541 3.4963759445485976
H 3.599270722396909 1.864356269366295 -2.194114205600161
Rh 1.0667255037484098 -0.15925101263831212 -0.7518227406814822
I 0.9187318364834959 1.8373181000317405 0.996539596552456
I 0.8232078252672881 -2.129427696884004 1.011564295675362
O -0.49353356297648726 -1.9499552190656035 -2.499380023107569
C 0.2884538060034879 -1.2253369071066793 -1.995775829207553
O 1.4078957754800816 1.7007784528086505 -3.0502151714355885
C 1.7874581036410986 1.1291841093158625 -2.0417263229999456
