17
## STRUCTURE-ID: 64568d795e408b22bb41e580 ; CHARGE = 0; SPIN = 1
C -1.9608510451583236 -0.45385900791034783 -0.22622441306875987
H -2.291588269791805 0.2096594978716273 -1.02852936560678
H -2.4266681476441803 -1.4331424849222811 -0.32753944135737406
H -2.193188963196859 -0.029036483197180208 0.7550101505941635
O 1.5999319295740866 0.29931429763172646 -2.4452221958330074
C 1.1017522737747323 1.1023391620227447 3.2211219409251908
H 1.902814200340978 0.3759124754879148 3.2959438384994657
H 0.1602511466738093 0.6712122498580205 3.541659168939183
H 1.3324382044218477 2.013811053867501 3.7593945933657436
H 1.895596950574738 1.0480374977891354 -3.006945489916349
Rh 0.11040681585346172 -0.5392970097925729 -0.3088662620437907
I 0.8912719494553678 1.6303514366469256 1.123275035614953
I 0.3505388239117013 -2.233385535775005 1.638890311466797
O -0.17724321278204058 -2.249271545299384 -2.75967553486797
C -0.05973552485814347 -1.43425800046947 -1.9220650730302937
O -0.5182487596959269 0.8655699392934654 -2.931360629870848
C 0.2825216285465251 0.15604245689709687 -2.378866633810435
