13
## STRUCTURE-ID: 645673f17f0c2d0f3773b9e0 ; CHARGE = -1; SPIN = 1
I -1.9716004325840044 1.3964261665002624 -1.47464627984755
C -1.8449343232283317 -0.3289021426876925 0.3749093249213784
H -0.9793018513169759 -0.5348417131576917 1.0257404181179595
H -2.3297842641564315 -1.2187040830249654 -0.023014232608832837
H -2.5507266448711525 0.27835776619294855 0.9244229533616586
O 1.0727223841752997 1.4329169736481528 -0.08785152193298942
Rh -0.0344331102960332 -0.24678602816655215 -1.1344586168899862
I -0.8443139633952405 -2.025523752341285 -2.8605503477586067
I 2.637259321056181 2.9649384990151506 1.793370477561177
O 1.5078196577187426 0.24769145349901936 1.7587146604696897
C 1.5278116810731932 1.1929168673852424 1.018105118531594
O 2.382453354781761 -1.8709422502852964 -0.5275423424803471
C 1.42702819104299 -1.2875477565772984 -0.7871996114451404
