12
## STRUCTURE-ID: 6456684a1bdb9717ce28a821 ; CHARGE = 0; SPIN = 1
O -2.5085189454045667 -0.5241835204026712 0.8095658066763977
C -1.5248200820561297 0.4554438598878699 1.065774694335986
H -1.06427851639628 0.30779350137982553 2.048284723074696
H -2.03286785189716 1.4182367987990194 1.0555976076833142
H -0.7452380040740966 0.4514436367306789 0.29977279493265874
H -0.45158724174402753 0.16075831752592892 -3.090709956873581
O 1.4670195552273184 -0.19381467014729367 -0.4974280867725587
C 2.599262775310077 -0.2435151145756062 -0.107872987075251
H 3.169198320034002 -1.1833249931237706 -0.08230889338141834
H -2.075152507161598 -1.382501950356837 0.7344472886507412
H 3.1362818054187547 0.6470934959038652 0.24872062599648948
H 0.03070069274371098 0.0865706383789834 -2.4838436172474743
