12
## STRUCTURE-ID: 645667bfeb7f686e074efcb6 ; CHARGE = 0; SPIN = 1
O -1.3086156133610947 0.8399205348850197 -0.9434181513054654
C -1.4676393588135244 -0.10152855047987892 0.02816244174988246
H -1.8316139437912948 -1.068543501011562 -0.3401739441703681
H -2.061033825151049 0.26959176983516436 0.865219587373924
H -0.3634041327937908 -0.3225771136967417 0.39165672305219307
H -0.3521468383418984 0.5819349925278176 -1.3160685891694353
O 0.9829046979651477 0.029653872258807647 -1.2651764385994286
C 1.057765539935603 -0.2520710490860199 0.820384686634084
H 0.6192657403056825 -0.6319667073120877 1.7417079107314624
H 1.3673915472988407 0.7746767161256096 0.9164762323667882
H 1.8161656031052724 -0.9219986566084103 0.4525925328297711
H 1.540960583642107 0.802907692562251 -1.351362991493399
