12
## STRUCTURE-ID: 6456676bc820a725a40b5358 ; CHARGE = 0; SPIN = 1
O -1.5445356335764082 -0.11896664288290004 -0.18953042214160493
C -1.951304648575079 0.5186718859421098 1.0018936640392058
H -3.0016359846866996 0.31210086950554483 1.2271435543415439
H -1.7982953527583536 1.6006362120821833 0.9479410010591105
H -1.331774762066521 0.11393410351291386 1.8003974659502515
H -2.080993027539149 0.2139331881497369 -0.919239237146418
O 2.3773660991432624 -0.09530428360814296 -1.5818665567858936
C 1.9231514193153734 -0.4102169820506947 -0.28082234520459165
H 2.254271495210144 -1.4085073171475637 0.023206525156206928
H 0.833846588759949 -0.35450642886046957 -0.212346100125044
H 2.363869036329997 0.32621251165132426 0.3890842373706605
H 1.9560347704434906 -0.6979871162940496 -2.2058617865134305
