12
## STRUCTURE-ID: 64566b6d4748603f2e2726b3 ; CHARGE = 0; SPIN = 1
O -0.6454395555147502 0.939734937235089 0.3707043616280152
C -0.7303768061676599 0.3808794320179326 1.6776562517222289
H -0.30823239867015456 1.0920157514438775 2.387825029951675
H -0.18655326674117698 -0.5607977437366786 1.7470004605633225
H -1.7842334821514447 0.2214609171356208 1.9012295985682264
H -0.9034789495924381 -0.015135619748800669 -0.6285755902077635
O 1.5030937189501494 0.18628373591428388 -0.6639639484149117
C 0.9632042139994462 -0.5898658087041057 -1.5279485899458325
H -0.38230405783467153 -0.6181328369480514 -1.3018072286874236
H 1.1871034580392203 -1.6686611429049645 -1.4513150987623165
H 0.9519613509619627 -0.2548490342258666 -2.580382668695001
H 0.33525577472151374 0.8870674125216527 0.06957742227978042
