12
## STRUCTURE-ID: 645667ec1843e810b77c7c4b ; CHARGE = 0; SPIN = 1
O -0.7949270191642133 2.3149046868768766 -1.4758591002305355
C -0.44766974851155933 -0.43196913833137407 1.373239545027454
H -0.7748003554267515 -1.4775326711556296 1.3879725357478334
H -1.2736113288575963 0.21394874439836217 1.661336738698596
H 0.38008223890932163 -0.30773075577605913 2.080184354564356
H -1.4044329963734423 1.8911169004762474 -2.0854775811446356
O -0.06284057178600988 -0.043394959722589645 0.07303407618930019
C 1.0134490955956916 -0.8034995970542531 -0.4322965405122222
H 0.7388060434006202 -1.861023185785177 -0.5152616183123632
H 1.8945306816148686 -0.7135526205947528 0.21270858440351442
H 1.2427494987594445 -0.4052884190589709 -1.4180587010349675
H -0.5113355381604505 1.6240210157273223 -0.861522293396239
