12
## STRUCTURE-ID: 645666093277c44b69224151 ; CHARGE = 0; SPIN = 1
O 0.3942075571220583 1.3638611510359797 -2.8121822856468905
C -1.884600907647663 -0.5098364391932703 1.4206774927948727
H -2.5125416004721894 0.34170803761125546 1.1933560450181995
H -1.5956113872599387 -0.4752333472670966 2.4629987774427846
H -2.4323377428446724 -1.4230233317125138 1.2284947769194505
H -0.5533010858036171 1.237679936326367 -2.9041639411225018
O 1.1896540494539767 -0.16074251455856797 -0.41264829194532926
C 2.239102645404906 -0.2271560255185939 0.16549850176529288
H 2.3698699734362525 -0.8427854679736374 1.0655802368996115
H -1.0002929146017345 -0.48166720899596543 0.7977703132888123
H 3.127896640219662 0.32346003076866003 -0.17107121819529308
H 0.6579547729929721 0.8537351794773705 -2.0343104072190092
