12
## STRUCTURE-ID: 645669a8ea518c677f4dd53b ; CHARGE = 0; SPIN = 1
O -0.20350583744269465 0.21625773158858166 -0.27089485779257727
C -1.2424996026897612 0.29121858851798804 0.6809280121160203
H -1.2039828261887777 1.2906020548386488 1.1080061305016584
H -1.1047785108872683 -0.45567940369691484 1.471223222125822
H -2.217535818315222 0.13275990175498628 0.20784995807719914
H 1.4948492799640427 1.1969143567357292 -0.02965586205901903
O 2.381601713699611 1.492828299931616 0.21925958106214183
C -0.16098870261039175 -1.0263179198393746 -0.9385514246023533
H 0.029809465685990407 -1.8433565655209636 -0.23343780519808624
H -1.103201199348663 -1.2212143914323432 -1.4619404988959739
H 0.6504598784807398 -0.9662135975958943 -1.6600626834267602
H 2.6797721596523854 0.8922009447179374 0.907276228091925
