16
## STRUCTURE-ID: 64567976e2a3847e18623195 ; CHARGE = -1; SPIN = 1
H -2.7731318715699276 -1.7182318425541583 0.5927249738933874
I -1.2620489556109487 -0.9697530036621593 0.3106553294273834
O 0.31818019350674187 1.0096936594052537 2.161389308376907
C -2.1843659842259933 -0.8162278964940032 -1.6571451328542806
H -3.224297364117468 -0.5483045582965285 -1.4975444623562377
H -2.063932031887348 -1.7790422826162369 -2.147119890643416
H -1.6563759399359663 -0.040882947236992775 -2.203961263136503
H 0.37993562926815416 1.5994625813237717 2.9357842963528835
O 0.5328867743311608 3.477355939616691 -0.24384343875031445
Rh 1.3629190383790535 -0.1372841306604272 -0.18097735622217276
I 1.227570823507734 -1.379882806635552 -2.4897424225440465
I 0.4476002557167751 1.9649110531459966 -1.3477017817331787
O 2.4193836796292048 1.6716361960678805 1.7860896083998556
C 1.459065499384492 0.9950789019156194 1.41926144492943
O 2.811387265518922 -1.9634018089404437 1.6751512200355898
C 2.205222988105542 -1.365127054378678 0.886979566824659
