19
## STRUCTURE-ID: 64567b06ba3fef6165224146 ; CHARGE = 0; SPIN = 1
H -2.1149429228849574 -0.5052839072988916 1.6492354072613498
I -3.098758895524388 -1.7861140116109937 1.6329930488310167
C -3.2935016179536074 -1.8792059877236795 -0.5143250378304389
H -3.63391857488246 -0.9077421949776416 -0.882963413358164
H -2.2944247364956127 -2.305174634572893 -1.018020262315367
H -3.994184544739636 -2.699836467019295 -0.7451311338541227
O 1.6484940188782027 3.184611066748592 -0.6942168531086453
C -1.2529420150100543 -1.586657344942188 -1.1147829126329045
H -1.320703489841372 -0.5523248813753274 -0.8088901430101885
H -0.5777989028003088 -2.170338196972276 -0.496363670118873
H -1.0833126879210453 -1.687044116076089 -2.1851988922184162
H 2.2314395007822014 3.9160230556753874 -0.8990296323745431
Rh 2.3377942177474775 1.5867582032779846 0.5195426814209614
I 1.7005370709945173 -0.2654886337431963 -1.4340947381862137
I -0.1588434017984655 1.2187574491798845 1.4627085762661824
O 3.6408400231834146 -0.35893343270987416 2.3468734049640796
C 3.064419548851328 0.34340952306998795 1.6169472939246172
O 4.4776855445252455 3.6737155479458177 0.788354625046741
C 3.722121864889532 2.780868963124711 0.7763616512929188
