12
## STRUCTURE-ID: 645667e0a0d6cc26ea6aac6b ; CHARGE = 0; SPIN = 1
O -1.0857270147839244 0.38826344053806106 -2.5167740508132255
C -0.7373524487819955 -0.38736347724361375 1.1869411896341078
H -0.2571237355585118 -1.0105996061983602 1.9489459139106682
H -1.6634998243945591 -0.8556440208275954 0.862054158922372
H -0.9534995933020423 0.5973932573976362 1.6156133593811395
H -0.9667818294432529 -0.4378993868556401 -2.9917789743084207
O 0.08266785825497555 -0.2713620533059381 0.044283716331065245
C 1.3326090611673829 0.3212007963732787 0.3246496659701589
H 1.8928513223483183 -0.2770857357289204 1.0511225366944157
H 1.2057068116781076 1.3351320212245468 0.7194323557987183
H 1.8783008123728684 0.36125261747784343 -0.6151080947533554
H -0.7281514195573606 0.23671214714870814 -1.6293817767676426
