12
## STRUCTURE-ID: 64568f0753c45732c73dae50 ; CHARGE = 0; SPIN = 1
C -1.5379723808088945 -0.18939291463413466 0.4584884588678272
H -1.542538978480526 -0.1688387011638028 1.546054733604731
H -1.6765630919606274 -1.2199552319207028 0.11706973158879888
H -2.3403081840852455 0.4461222518128114 0.07690091362767348
O 1.7247851559610359 -1.6354892012603597 -0.919245063696051
Rh 0.2610529448047904 0.40061345340404253 -0.4222369229951819
I 1.3784920238559657 1.6938654241129234 -2.508569188156496
I -0.6034941313839229 -0.16978166315892715 -2.953843389824579
O 1.6460139558717344 -1.4282989718486292 1.3632421936990178
C 1.53134720675928 -1.3266192806703925 0.20308318933272543
O 0.6605238178076295 2.1446349889931198 1.9660251244233429
C 0.49866166165878106 1.4531398463340526 1.0730302195281896
