20
## STRUCTURE-ID: 6456b6b6ec08506c2d4efca4 ; CHARGE = -1; SPIN = 1
C -1.864152432198948 -0.03035671041823985 0.9682317452021013
O -2.91601169494858 -0.4664279709899254 1.1062429175231692
I -0.9769660469777711 2.8992575074926417 -0.47034775961751085
C -0.3018672795061866 1.4897573612188828 3.0299260395064107
H 0.268671876598414 2.0396331416912434 3.7778847740901655
H -0.6752668096106712 0.5658372272131519 3.4735884814773312
H -1.1488236923450363 2.087260054345396 2.6971487135462193
O 1.5594437580123894 -0.029441180433318184 -2.0153680445238256
C -0.5253840566163499 -2.6013010016401386 -2.694472041694643
H -0.8473199451048782 -3.2988323632831125 -1.929743326625301
H 0.5400428375429981 -2.418774805786748 -2.620801424919306
H -0.809195901281043 -2.931344348163848 -3.685946204599079
H 2.34990118728812 0.19474331122047064 -2.5439192041981564
Rh -0.1898781511114026 0.42435468691113365 0.19125654658247074
I 0.8103107219994172 -1.9671371224009713 0.8308299440275987
I -1.5189875451564747 -0.7132408550857847 -2.330345591689075
O 2.3389653257313086 1.5960362136867274 -0.7272167891280362
C 1.4616391464220237 0.7656701222048996 -0.907959802585461
O 1.8174274159436503 1.2486982869119438 1.9590733077900928
C 0.6274512853194156 1.1456084453052908 1.891937719835378
