17
## STRUCTURE-ID: 64568d10d1d45f3c011a5614 ; CHARGE = 0; SPIN = 1
C -1.2749610872633004 -1.4472821815784507 0.23906378791294805
H -1.948521198903758 -0.613788528482529 0.4230935590337097
H -1.3053462617795268 -1.733592018865567 -0.8126238633348991
H -1.5517717590917754 -2.2973248229513588 0.8669844071045795
O 1.4863639655643965 2.550143843556515 -2.4042924463941615
C -0.6580673207401843 2.021483746485927 -0.7709300167092327
H -0.5595394760142306 2.8728763875542285 -1.4306339914309478
H -0.5715387972190221 2.318119666459691 0.266290184483523
H -1.5774059180099833 1.4806606270767377 -0.9573257022143042
H 2.227729491574688 2.3845210506470225 -2.986087323409106
Rh 0.7630235202272783 -1.0196373757466017 0.7115102481951735
I 1.9022950169613106 -2.658046415568045 -0.9778464012246576
I 0.965374644168595 0.7254096765055911 -1.2553476158074113
O 0.014928749370405118 1.105259784249952 2.654120329245917
C 0.23318200790425583 0.27465606938460263 1.9031209579118353
O 0.8329486096106988 -3.493883497191426 2.492033132151439
C 1.0213058136401774 -2.469576011536337 2.0388707544855746
