13
## STRUCTURE-ID: 64568948ce3d0255a94d3041 ; CHARGE = -1; SPIN = 1
I 0.5357990851238026 2.2007125494196433 -1.5829632450960465
O -3.2413255607032085 1.5138696660773434 2.547566154288194
C -0.9096299180748503 -0.6888532589850734 -0.871323162321785
H -1.6307365443888866 0.0379309726121521 -1.2609893030608257
H -1.4249901534252012 -1.6520199722715783 -0.7763734976683567
H -3.35833157878461 2.447701190553445 2.737053936630883
Rh 0.963418185672635 -0.30398288230979986 -0.7075441635904345
I 1.8957675048554588 0.4819259590492212 1.8705503970153805
I -1.2522802315710941 1.1779620640131874 2.3178048320581106
O 1.1519786262552383 -3.2227031252234575 -0.10925156452528731
C 1.1165084437703956 -2.107117995735573 -0.35691606843217744
O 3.5144697861648226 0.15569899949878022 -2.2604575284603583
C 2.6393523551054656 -0.04112416669838919 -1.5471567868372484
