10
## STRUCTURE-ID: 64568a3c07b568338c6b0e10 ; CHARGE = -1; SPIN = 1
C -0.9681334631819709 0.6773149313164538 0.9167295380097497
H -1.5019889708491012 -0.15885453616697612 1.3424566382610583
H -1.3163342640102613 1.6596429070573087 1.2099184524471276
Rh 1.3838841337543817 -0.4792940627842034 -0.16626478753426935
I 3.2107608884682035 -1.448138994815382 -1.6557993702420362
I 1.1393571970230087 0.3258863408877975 2.305950070886849
O -0.20141131138723242 1.496128658721588 -1.198255033270084
C -0.4954367085281502 0.5446375521263126 -0.42680171960789864
O -0.941105203859264 -1.7362559434767693 -1.43526509481844
C -0.30959229742961397 -0.8810668528661311 -0.8926686941320812
