12
## STRUCTURE-ID: 64566b4dbdc1765e020b3f6e ; CHARGE = 0; SPIN = 1
O -0.810177112563038 -1.3850315230678 0.18683266013472993
C -0.7560994894512876 -0.8990798356550104 1.2875498091119197
H -0.13446794558804992 -1.322632411021243 2.08693379821449
H -1.4086611726654208 -0.0678245546529338 1.5900397795057162
H 0.45315096583189357 1.6204257949617955 -0.7291462885034536
H -1.8446629153136354 -0.8736063994611086 -2.9441503080002747
O 0.9483604457748276 0.6185603815157673 1.0261021450511096
C 1.1406638763824486 0.8597850576230993 -0.3529428461670459
H 2.171918933937441 1.1617789381356727 -0.5515556959561929
H -1.641834776713526 -1.0980508550119759 -2.226350360773438
H 0.9375715122460804 -0.07928690970644416 -0.8673410391049506
H 0.94423767812229 1.4649623163403216 1.4940283464874127
