12
## STRUCTURE-ID: 645666b05c618068fc374190 ; CHARGE = 0; SPIN = 1
O -0.7050606281093682 0.5964599025686985 -0.0677779785830199
C -1.4553347369845064 -0.0029530667346553264 0.9097674388250839
H -1.0950232640297117 0.26533692069457054 1.916946133284712
H -1.4607615333437531 -1.1026116284586804 0.8262832605801866
H -2.497652335957255 0.3413530810722919 0.8355819558109786
H -0.242661841695757 -0.14278731679915796 -1.1973273342811295
O 0.5880396198188916 -0.5474135340767704 -1.670037889125915
C 1.337839480404787 0.09822837952258069 0.05933509532811975
H 1.4317046351850042 1.1692566200611814 0.07730006834595363
H 2.1889623263250115 -0.42359405942020933 -0.35711358360910656
H 1.0038807612771303 -0.3475683829033169 0.9806237029549792
H 0.9060675171095393 0.09629308447345503 -2.3135808695308495
