18
## STRUCTURE-ID: 645670d621fea14f3d4975bb ; CHARGE = -1; SPIN = 1
I -3.1458125580636076 1.0326737191052437 -2.3918466501398488
C -3.03560805153462 0.1480175547077132 -0.45508353587552647
H -3.116113861478241 0.9355610420546547 0.28238842653099966
H -2.0792527755956827 -0.35478255288100735 -0.363172547257776
H -3.8481243379563397 -0.5598894562615099 -0.36248189250294915
O -0.051907059076615594 -1.182954522241563 -0.28005447758367047
C 0.5860337282492006 1.7897548269785004 -1.377404268387531
H 0.16715906372223088 2.6211239840366702 -0.8240886756495556
H 0.011328411030212636 0.8846985867184218 -1.211182159475759
H 0.6791652024203017 2.011646444172944 -2.4321778534990357
H 0.12232868907929402 -1.9099004362318615 -0.8818719778329702
Rh 1.2809561012875657 -0.8672971391062237 1.285481117141391
I -0.3606983014896175 0.9141567883991648 2.296302937912563
I 2.5539364999632777 1.3993514341126667 -0.5932248886631991
O 2.635953720810312 -3.3101487240577976 0.23457940997252646
C 2.1721713569059062 -2.3458519708393317 0.6706689429196935
O 3.049661341428751 -0.5544967930805949 3.669654084963486
C 2.378822830297667 -0.6516627855860837 2.7335140074271522
