17
## STRUCTURE-ID: 64568ce35842e57b1832491a ; CHARGE = 0; SPIN = 1
C -1.6349168981155058 0.41667650354339475 -1.5198047261166292
H -2.396673020723709 1.0780871835200005 -1.1138075248102584
H -1.649025033477968 0.4420312690873806 -2.6082455707986187
H -1.7706474739909372 -0.5994413502558137 -1.1495364770025598
O -0.6568037437681149 -1.9859191881648177 0.6220751002868687
C 1.5853121231899654 -1.3231663344744269 2.27358755582826
H 2.119640827021673 -2.241376442904077 2.4860994582629883
H 0.5752546458469492 -1.3620620581584484 2.6615367786103774
H 2.131585751522846 -0.46406703648385894 2.644935618317995
H -0.7257183354355845 -2.937877431235007 0.5560445040895584
Rh 0.36612276324433735 0.9482677094757297 -0.8579945954474644
I 1.5553262527015255 0.32840868167871967 -3.1246778918873055
I 1.4401252145289392 -1.1409917169920794 0.135611487686452
O -0.6804921271471752 1.3037941680046647 1.9105712986597527
C -0.318590876137865 1.231716849556234 0.833458642757546
O -0.0875687677176257 3.629711561544735 -2.1610975281331117
C 0.14706869845823373 2.6762076322577757 -1.588756130303814
