13
## STRUCTURE-ID: 64568c82ce6402590e3ae5dd ; CHARGE = -1; SPIN = 1
I -2.1254337961043612 0.5190909378533365 0.0074405492201891285
C -4.492119148011559 1.0504546579290601 -0.5059357191972489
H -4.464472313944788 2.0766652798006158 -0.8658435822036694
H -4.790720823161682 0.3158972462512573 -1.2503618483148249
H -4.963385089924029 0.9205592271255355 0.46794835969464427
O 4.454242545077695 -0.20360557248085717 -1.0310995091060653
Rh 2.7194004906090026 -0.4739986800885677 1.4419536277246832
I 2.072697359983849 -2.1077845488962956 3.2495101298146953
I 0.5556049061968232 -0.1254627397571672 0.2801229509229037
O 2.9870010535433176 1.166662385015978 0.03471590331020699
C 3.324012913131487 0.0677501133330755 -0.5356960986808176
O 2.3507277103660065 -2.175021594923611 -0.8660555747874287
C 2.3724441922382424 -1.0312067111623504 -0.4266991883972722
