13
## STRUCTURE-ID: 645689485db2673c746b0e10 ; CHARGE = -1; SPIN = 1
I 2.7708356205097866 -1.5711104616743905 -1.7632694953806143
O -3.2039472002050733 0.9251995573161301 0.6103891594242824
C -0.7335538944219195 0.39637081056306267 -0.8801602137324492
H -1.0839211654555736 -0.42927922635869303 -1.4914114351963847
H -1.0533273277655582 1.3604047481688524 -1.2449202309062697
H -3.743407825975345 1.1505245673738513 1.373136973275265
Rh 1.137288484114745 -0.4504219386898851 0.15171324876561618
I 2.442534476542795 0.647112155880778 2.271430537014968
I -1.233478544180363 0.22842675576021607 1.140633735876125
O 1.0916948347657005 -3.1758315841476352 1.4242543561784136
C 1.0370470712839894 -2.126427302254995 0.9638139950533593
O 1.3862570030259393 1.9636073469359274 -1.6407197821306394
C 1.1859784677608711 1.0814245711267436 -0.9148908482416405
