21
## STRUCTURE-ID: 645677e20508736157242a33 ; CHARGE = -1; SPIN = 1
H -3.7425921944435823 -2.1212817388288308 0.44246411998039
I -3.803077870498087 -0.535962617403027 0.6694848407518454
O -0.5635008094359212 2.5640202182801364 0.3115433011651573
C -2.2377745866960863 -0.14143329300622737 -0.8742205679484808
H -2.7256492668479817 -0.15636908942471128 -1.841039203582251
H -1.4830767738501642 -0.9124156521704565 -0.7621815631420892
H -1.8681767135597944 0.8412818329672844 -0.6114940656093335
H -0.7138819916076917 3.516548439785602 0.47009165861865176
O 1.340804765092616 -1.69083457025292 -0.9107933852431417
C 1.537401937107795 -1.8799802476707952 2.3382778117116647
H 2.3462577655858747 -1.3331013754545236 2.807338397180196
H 1.8442989216198578 -2.254312885709834 1.3674824756746322
H 1.1522522014312393 -2.6660695674258372 2.973648750585978
H 2.1252580685069056 -1.9011259756394212 -1.4223113921230348
Rh 1.0223462677389967 0.4569917703007709 -0.6558397300473607
I 3.4979406302516054 0.768618311148527 0.4824652261101346
I -0.049584065692490124 -0.4955590043242721 1.9412914359696696
O 0.09814735536363409 1.3544000538779932 -3.342454126244291
C 0.3580414849149908 0.8698189131001908 -2.3050057114903875
O 1.2413790998709167 3.361005825045676 -0.7130853011040748
C 0.6231857751473573 2.355760652804649 -0.3656629712139086
