19
## STRUCTURE-ID: 64567a1eb408ca1fc4530d54 ; CHARGE = 0; SPIN = 1
H -3.028725474342248 -0.1196665659018524 1.0087743111276117
I -1.4407376828438687 0.05962820535146289 0.5336009743925216
C -2.176965948357194 1.374509987515787 -0.9854663884404542
H -3.2579292114641385 1.4066363500419943 -0.9141312552523119
H -1.7341540607922543 2.3500230248712426 -0.8175611484636095
H -1.8483961986047877 0.9614163099416735 -1.9322924374532975
O 1.9285188980459609 -1.014814159725602 -2.4163082271481158
C 0.7417426140490315 -1.737530868231497 3.004456739881839
H 1.037600870799129 -0.8143038977385487 3.4937941197280558
H 1.0171198844987879 -2.603838227876653 3.5950566619408098
H -0.3202492189625784 -1.7323092271671172 2.7649552933620805
H 1.721456376514528 -1.572785489285454 -3.1917518545942607
Rh 1.20310192951194 0.4205659365679089 -0.13486151241423913
I 1.7563542514752049 1.9336121355204219 2.0174429130080864
I 1.820295678628395 -1.8680027749651984 1.1204055476470884
O -0.28648185587410185 -0.9819493090224422 -2.1411261126052823
C 0.8211595647994386 -0.6464220384257949 -1.7464036195902912
O 0.9999524038662453 2.7309681450885113 -2.0038191202217566
C 1.046337179052499 1.8542624634411526 -1.254764884904488
