14
## STRUCTURE-ID: 64568ef2ffb7393699662c63 ; CHARGE = 0; SPIN = 1
H -1.0027219644590843 -1.0876339083303426 0.9517751156349793
I -0.9033303306472734 -0.1150411871212393 -0.3147653082951842
C -3.1482696300320967 0.0006741113841035331 -0.01525288506834062
H -3.538299661036251 0.6507552444106145 -0.7880622231151667
H -3.5408835819383597 -1.00378627133497 -0.10947256202935925
H -3.30449738017104 0.4202879058555705 0.9718704189199394
O 1.9193494635643376 0.742291600787275 -2.3889540677366385
Rh 1.75932512269965 0.23934204313473958 -0.23530209653813897
I 0.19156241506688668 1.9176951428298301 2.7789405384053603
I 1.8910354966446739 2.778180392238555 0.8537490348786816
O 2.4483963701283695 -1.4898321506161474 -2.5179044503697314
C 2.136031403857476 -0.41707137706226644 -2.1001323432701136
O 2.807952690846624 -1.6340649553854847 1.8643857586194053
C 2.284349585476094 -1.0017965907902453 1.0491250699643166
