13
## STRUCTURE-ID: 6456b7a4d6052d000f159878 ; CHARGE = 0; SPIN = 1
C -2.6995971876426785 -0.3188721310091359 -0.035032481395191106
O -3.600613301665477 -0.8278732763531886 0.42800693642963805
I -0.9700753237836821 0.7291705054324966 2.1602862892019234
C 0.18853385937023143 0.5753623811491008 -1.2651542864603456
H 1.097529430463635 0.9284716910732559 -1.7585229627161587
H -0.46511588639496965 1.400717569514893 -0.9807574168044978
H -0.3403364962758302 -0.1332041515350464 -1.9005482407543373
H 1.9518798794631578 2.732740257582841 1.8351663860062268
Rh 0.8116407326314529 -0.34004897881894186 0.5186459940436049
I 2.6941491246256213 1.5051590090413558 1.1480542910288578
I 2.6637923003201287 -1.8401030862236876 -0.6341930213396093
O -0.9955507531631042 -2.6684594264284467 0.20112981030402505
C -0.33623637794848477 -1.743060363425503 0.2829187024558494
