12
## STRUCTURE-ID: 645667022a08d442f15ede0b ; CHARGE = 0; SPIN = 1
O -0.07502194672558213 0.28610869126565713 0.05159879354157154
C -1.3293310430791345 -0.25918379698695393 0.4002358872764617
H -1.814451079141957 0.3445686654362585 1.17468456628516
H -1.2222916803942887 -1.28702169746768 0.7638869971402593
H -1.9359728271605228 -0.25265669819498354 -0.5022187974099113
H 0.6234206754878058 -0.2469248704662326 -1.6663904999078656
O 0.9348345532946212 -0.417064198414936 -2.567775555550553
C 0.8196789629759851 0.3411639432020744 1.1416767778124837
H 0.4150432278499258 0.9647117245030744 1.9460952918873453
H 1.7423311731486988 0.7792608476345793 0.7685489098152425
H 1.0208826255449217 -0.6616174619278489 1.5343003601656444
H 0.8208773581995344 0.40865485141699165 -3.044642731055844
