13
## STRUCTURE-ID: 645673e00b943037a75b5c17 ; CHARGE = -1; SPIN = 1
I -3.0776610388928147 -0.43671370375798485 1.0178851279270222
C -3.1068152305442815 0.061878742502625365 -1.06523590880012
H -2.4590697074112327 0.9171570621055894 -1.2112361904210034
H -4.128386911937451 0.29417123863328315 -1.33323049156273
H -2.733550005976135 -0.7969929175503345 -1.6084204029931959
O 2.0405406105856834 -1.081923717796695 -1.3133911255295472
Rh 1.8913469562612637 0.17442159829553935 0.3431256521394639
I 0.6848700058715481 1.9631563578167035 -1.1290418187314735
I 0.29482696430295735 -1.7925089244187835 -0.7966502872777835
O 3.9014288095761622 -1.6995558690836632 1.5267203678984729
C 3.1126513239740605 -0.9586908608960546 1.1365991744932464
O 1.7823569929558474 2.052048381671745 2.654244522200974
C 1.7974612312343923 1.3035526124780314 1.7786313806566707
