12
## STRUCTURE-ID: 64568f054e127d135007101a ; CHARGE = 0; SPIN = 1
C -1.1702151547879007 0.13942459491093648 1.0146920350352353
H -0.8649035974622861 0.4865240844971633 2.002223024369875
H -1.2390883962031305 -0.9530450152293014 0.9806068641545929
H -2.1136400142499263 0.5968197052600145 0.7149779460780487
O 0.9009676890694148 -1.5785300836789542 -0.5965448336760151
Rh 0.32226898587125347 0.5862305674015127 -0.37219984616216545
I 2.340117413947276 0.8013620287089548 1.2683166230239737
I -1.1582476774656625 0.26827081444555706 -2.4953043167007265
O 1.8267949799919858 -3.6070723112240226 -1.1052263565807792
C 1.3690419653000256 -2.597326286410485 -0.8537662641909202
O -0.19905926429140433 3.4890170449312854 -0.26413746561441004
C -0.014036929719648948 2.3683248563873405 -0.2936374097367071
