13
## STRUCTURE-ID: 64568bfa1bc86d7e63399e34 ; CHARGE = -1; SPIN = 1
I -1.084640559265029 -1.4505710470605535 -2.377651926188721
C -1.5119978575496749 0.5391826171358425 0.4416789231438596
H -2.3719631465381976 0.003017126074361392 0.04051696480242438
H -1.6592888525584442 1.6096766275423777 0.2889944170777519
H -1.4557751010479731 0.3449961145781355 1.5148991240927185
O 0.9404130635773102 -2.1779996734268905 2.4962737762047746
Rh 0.28092827023248523 -0.1677847886726204 -0.5032640965659946
I 2.8018078025696123 -0.8932536193275329 -1.508304845054304
I 0.09046026442702432 -2.4416361078323097 0.855274812928875
O 1.91284629706867 0.7097358143261984 1.8397809774678724
C 1.2668643728031646 0.4491701628251621 0.9414824865762809
O 0.4370855631900298 2.159608757942719 -2.3916825698067865
C 0.35325988309103584 1.3158580158950963 -1.6379980446787594
