12
## STRUCTURE-ID: 64566bb931d07d69034d3038 ; CHARGE = 0; SPIN = 1
O -0.8170194142087956 0.8683394110693607 1.4482334928799119
C -1.7540146735778792 -0.11992462060615645 1.0912391589583685
H -2.6876718901742804 0.12806600059450718 1.5953010863763029
H -1.4276518659383919 -1.1144087730267154 1.412780854065491
H -1.9290425400001134 -0.1331137793536831 0.010023123535883815
H 0.02938687756427322 0.6505266688250024 1.0173279423297485
O 1.5216717009221976 0.13195128763797925 -0.030356933681509008
C 1.2575082745301216 -0.20763610927151022 -1.3770224194979919
H 0.9767170946248539 0.6736302259074844 -1.9606045428703205
H 0.424638528715267 -0.9083250410022514 -1.3652296424013868
H 2.1207596082581017 -0.6908406973735177 -1.8410229381971603
H 2.2847182992849793 0.721735426599263 -0.0006691814975634762
