36
## STRUCTURE-ID: 6456d55ee9e5e934933dae44 ; CHARGE = -3; SPIN = 1
Rh -1.7109815368684076 0.09167802959744109 1.988457029533644
I -1.597967472262767 -2.066739474810125 3.4543709113623264
I -2.8153422043853666 1.5973417211126528 3.863765263041516
O -1.341737391544446 2.300786459479936 0.03695863283749719
C -1.5260649992474096 1.5132045217380858 0.8826540039442262
O -1.319305619374717 -0.7777899376528226 -0.7271815022947798
C -0.9383860508029127 -0.7167384099497182 0.4084950446485672
H -3.9289028234812573 -0.4304368110334468 -0.721272340188743
I -4.449681873107908 -0.6903652181715477 0.9409303730902966
O -5.071400370154739 -1.4853708427341965 2.7762499906868867
C -3.910670578957459 -2.7172293296633443 0.578660504960785
H -2.865011557999838 -2.755016049318681 0.29225635603404104
H -4.534770689050099 -3.088685802999218 -0.22319550038647845
H -4.072534104211208 -3.2505663025770093 1.5055161859506758
H -5.589999024150249 -0.8806430936341335 3.3088164542219562
O 2.8455874002811377 3.5858397140923355 -2.638962249039806
C -0.07585791100220983 0.9180527828915207 -2.8192283237324203
H 0.21350644913232417 1.422125535407141 -3.733575791191697
H -0.27191850380959187 1.6513621066179758 -2.040044545838741
H -0.9589135698119727 0.308571109353562 -2.974758456226675
H 3.570782770349758 3.4143231273039834 -3.263560482140057
Rh 1.1174341803654249 -1.4121190562272947 0.2214569863430532
I 0.505358369095013 -3.766184103011067 -0.8096531251575512
I 1.5263278049680806 -0.28291020380483667 -2.143911918221538
O 1.1273554257942178 1.039156273652631 1.8536581925807838
C 1.7526823861164849 0.28028456113182 1.1142113779641027
O 1.9521373409683016 -2.279389818815817 2.931685287772557
C 1.50957307180701 -2.0262751022529906 1.8990309000317183
O 3.096543297143668 0.5061358928726312 0.9930137479875862
H 3.3935542557100575 1.2293975164528637 1.5816708078201633
Rh 3.723731271261768 0.9460264615426655 -1.56803243514748
I 4.240399831519148 -1.6824631319503747 -1.3432261317078693
O 1.8732277495938296 2.817125217542956 -0.8129297549467371
C 2.758581164951162 2.6389736997703657 -1.6528341780198506
O 6.401093342818831 2.284185526525735 -1.5742611565055307
C 5.371570168346657 1.764352431520426 -1.5852301600664442
