18
## STRUCTURE-ID: 64568970c70e24010f5c71a4 ; CHARGE = -1; SPIN = 1
I -2.396169362617817 -0.49524730939250716 -0.6270528895362293
C -0.2125072805494877 0.7459980044673165 2.1137117948311204
H -1.2343890573715974 1.1087790710352758 2.0898510453840937
H -0.19621178539907186 -0.3356079908225576 2.0807991784519237
H 0.34471511197461585 1.12869995626108 2.9601536767867875
O 1.0319614811412448 -0.9281282768401986 -0.0632156427106693
C 0.4312979667171225 3.4750194022975776 1.0622001940546302
H 0.8458763647999112 4.15162327340647 0.3237086592755978
H 0.9384404797087506 3.5966892644136865 2.012372024854333
H -0.6358732499507161 3.6407378830031316 1.1606136857762248
H 1.9780040704044222 -1.0500553584810373 -0.1891699450988324
Rh -0.2229966816155564 -1.930841174535014 -1.5487258568874063
I 0.6250261090634952 -0.07953079298126625 -3.450299619415676
I 0.7344238244280331 1.433602350214662 0.34309333724468133
O 0.708068152437004 -4.716139330274846 -0.9117480602233909
C 0.43353431361086825 -3.5959227338076154 -1.0657871430376578
O -1.917608203108414 -3.351607033650058 -3.532608246723613
C -1.2555922536727486 -2.7980692043141326 -2.7578961930259016
