12
## STRUCTURE-ID: 645666f5ba94b638c34ed2be ; CHARGE = 0; SPIN = 1
O -1.0895004863242725 -0.27600467812489116 -1.0878068873550184
C -0.37113564740946664 0.1154461577079423 0.060546421238760244
H -0.5984626872626595 -0.5257239393227596 0.918329891744587
H -4.563161410474707 -0.7872882467219815 2.572710565266595
H -0.5937988958441179 1.1528903167927846 0.34237326570428983
H -2.0211435540387814 -0.3952702164502588 -0.8830272312363264
O 2.0424247909539597 0.8586424025604051 0.2573147610133345
C 1.1421757859150923 -0.01154773553664091 -0.34596159770580054
H 0.9130207404276195 0.61109118182327 -1.3745029684662742
H 1.39253555096533 -1.0794724215120146 -0.14742330929094388
H 1.5132838449347084 -0.2799363001892311 -1.4857582331585724
H 2.2337619681572964 0.6171734789733688 1.1732053222453693
