17
## STRUCTURE-ID: 64568d36ed657757fd1688f0 ; CHARGE = 0; SPIN = 1
C -1.5611293626650873 -1.557498934365378 -0.0956695404839034
H -2.221212632805423 -0.8884926283655414 0.4584910482450379
H -1.69977293673965 -1.4187390422135857 -1.1695982763565977
H -1.7957620375445311 -2.598623900187139 0.1603374760840351
O 1.6029072173857828 2.4955805690252393 -2.169394599679549
C -0.5411202031339728 1.9250974520222635 -0.550590596623472
H -0.5360236777647144 2.76775259731249 -1.2329304088221338
H -0.38968485654895535 2.2422563494106664 0.47427512395355814
H -1.4328240398612035 1.3190830456643696 -0.6556691541355936
H 2.338937499668972 2.3651733225861697 -2.7741795010734798
Rh 0.44460856551002187 -1.3448468909636524 0.4146243290866175
I 1.3890116439775793 -2.983118683063352 -1.3303708992839218
I 1.1220095728698898 0.7391100049924756 -1.149363340861757
O 0.2944044422327107 0.7961601662018398 2.551592990637998
C 0.33498645036867364 -0.12834266462574523 1.8414439640324236
O 1.2601899912349634 -2.2841563763456842 3.0165879021112962
C 1.3904743638149455 -1.446394387085457 2.2104134831694373
