18
## STRUCTURE-ID: 6456898fd6dfc4727f2fdd7d ; CHARGE = -1; SPIN = 3
I -1.0257717794027237 -1.4069956308321772 -3.397561263256673
C -2.1885667883421354 0.6546575348426826 -0.5399562369462552
H -2.8708170236728154 0.49779349592947997 -1.3728622335568192
H -2.2388161289503445 1.6939266211371002 -0.22146772223031838
H -2.4499703070015384 -0.003637064562761788 0.2865472594358023
O 0.07044339918265596 0.5603645133862222 1.8661530106560582
C 1.8110573690349494 -2.2418484094299536 1.5085981471710246
H 1.7880047011411784 -3.175921659737796 2.058050400897148
H 1.715374371450098 -1.384528796600098 2.1646526902451546
H 2.697450925142446 -2.1637611072261715 0.8868358082487602
H -0.1396285166204528 1.106201460158345 2.6545019099507323
Rh 0.0011613646467748056 0.03138845401970747 -1.2299573565328072
I 2.7451325018107338 0.12246868496676142 -1.512026159044969
I 0.08440106180738294 -2.2297891642204912 0.1895349210052285
O 0.21611270651062722 2.5079244645638865 0.7844358637659684
C 0.2657978520440837 1.2825486900966023 0.7544861797065352
O -0.303787102936458 2.566203556770868 -2.7308762668323796
C -0.17757860584442856 1.58300435673778 -2.1490889526821935
