12
## STRUCTURE-ID: 645666d24ccbfc320523363b ; CHARGE = 0; SPIN = 1
O -0.6438438889114168 -0.19740593747274 -0.41961212584592994
C -1.5518323267702616 0.08096420467514671 0.6819598934012345
H -2.394352290646413 0.6402823637450286 0.28363106971561
H -1.0491866314308078 0.6430096419366356 1.4693272076783879
H -1.894837368224031 -0.8775000470437537 1.0671794058434356
H -0.450482903284828 0.6432016956021377 -0.8922121917500336
O 1.2801101163683324 -0.07209351250501315 0.9300887426877936
C 0.6269607485308465 -0.8433537014445919 0.03053653540357821
H 1.1716626828971959 -1.057103697238746 -0.8940354692893363
H 0.3013351904780204 -1.7631471085745707 0.5252890687856941
H 2.723384204604663 2.23332619281385 -3.3101166036926157
H 1.881082466388674 0.5698199055066239 0.5279644670621993
