12
## STRUCTURE-ID: 645665fff3c7d373252abdd8 ; CHARGE = 0; SPIN = 1
O -2.0679031073675906 -1.6027508988002632 0.9250555286181161
C -0.12814923201935294 0.9048839638651326 -1.0857357794221525
H 0.40430347431013314 1.8616875478541672 -1.0686304620060127
H 0.2483212108483904 0.3009929924613426 -1.9184363507620967
H -1.1931759516454887 1.0813621483280085 -1.2158828989798915
H -2.473990868028972 -1.112356706183293 1.6441503041868835
O 0.026010849506120266 0.2237727748676562 0.14062195858964777
C 1.3720611330252312 -0.08740043570336775 0.42865296913318507
H 1.7973863125277136 -0.7374475129830862 -0.34390349561973765
H 1.3764875274100874 -0.6055383133309489 1.384758577202756
H 1.9756432446086742 0.8238271329468598 0.5002314696472566
H -1.3369945931749427 -1.0510326933222163 0.609118179412043
