12
## STRUCTURE-ID: 6456685df7d2a479ad1d80c1 ; CHARGE = 0; SPIN = 1
O -0.95500583132789 1.0191352322536276 0.2564830451535295
C -1.1010388192263902 1.1449782158753161 1.4466264473437114
H 0.9606875361594535 -0.5670527237436465 2.135694000303732
H -1.5905688285992003 0.37850723908394407 2.062123673708951
H -0.8648352816475524 2.0796391888069357 1.9721994860203045
H -0.2241225267960896 -0.36331742628204144 -1.7000050799780573
O 0.8622337194625277 0.37409251263175003 2.3152170092953006
C 0.22259977347892426 -1.0504983541648198 -2.4073355124692455
H -0.31416694387247357 -0.9994161698232442 -3.3455903202415813
H 0.16853292399929168 -2.058738063964128 -2.0177610196039524
H 1.257793862705678 -0.7805333384217729 -2.570910609447918
H 1.5778904156637434 0.8232036877479936 1.8532588799150596
