21
## STRUCTURE-ID: 64568de847097a12033d7d74 ; CHARGE = -1; SPIN = 1
H -3.896579725125965 0.7632278496994693 1.5962649726164058
I -2.620013289547473 0.40434678266042784 0.5622290963520677
O -1.0482962124362214 0.2434702349518238 -1.0678208307653623
C -2.848145556642091 2.4487064166991357 -0.03642633435103668
H -3.8636836925510565 2.582468815225211 -0.3881366025964234
H -2.1218100499116743 2.627074390274882 -0.8177532553293116
H -2.613688720636801 3.059793556314995 0.8281219135536583
H -1.4179705154458409 -0.06664114555231287 -1.8944116056489426
O 0.8872962322621141 -2.811330858896758 2.8601248516382363
C 1.6079499007898617 -2.7913463575739197 0.2637343227998478
H 1.0977371068208406 -3.60799359020385 0.751711706020841
H 2.6815134788837005 -2.931334371121221 0.33802419494756203
H 1.3075109895765518 -2.704561393841128 -0.7770077611828551
H 0.6112876357747555 -2.4804406086180286 3.715079652255332
Rh 1.3474602296258025 0.73524294639048 -0.6567470731215358
I 0.512178898250748 2.2135126109965184 1.3515279608856965
I 1.0907742566997116 -1.014003303373089 1.2710672355390082
O 3.493034271502233 -1.076867530010727 -1.7112169138940045
C 2.6470849492066733 -0.36251294080269736 -1.3516475731608915
O 1.6352121315522807 2.7390957500041173 -2.8688618917434012
C 1.5111476813519191 2.030092746776676 -1.9678560648148822
