12
## STRUCTURE-ID: 645668a77a2cac618156ede0 ; CHARGE = 0; SPIN = 1
O -0.7235770226487733 -0.05457357567705056 -0.6286363519226046
C -1.5368947042913323 0.455466684309873 0.3740193102565207
H -1.710014524399302 -0.27327372911051645 1.1708772776456344
H -2.485340238078836 0.7775967818783466 -0.05836309085626273
H -1.0598252974485307 1.3574530253812855 0.7720166600707974
H -1.8260751712150747 -1.1113821473146854 -1.7021142936358795
O 0.8506877393228756 0.5764140309074144 -0.2534359754949723
C 1.684376867293835 -0.4474203205420949 0.26703141988694196
H 1.697179919376239 -1.3273690841528818 -0.3753860055706838
H 1.3074074719503659 -0.7144922486225105 1.2524844185113015
H 2.690693563026303 -0.030959890112432664 0.3553853548433651
H 1.111381397112231 0.7925404730552595 -1.1738787237341703
