18
## STRUCTURE-ID: 645689f1904619519e051b74 ; CHARGE = -1; SPIN = 1
I -2.345306343030346 3.312164736235302 -0.8966874658075901
C -2.9452835393055246 0.17663819948433734 -2.0179298765058875
H -2.7048496774645256 -0.8412645445692593 -2.329487781125509
H -3.959971172034035 0.2016147981478667 -1.6002904828489637
H -2.8919522466039234 0.8399021613879404 -2.8841343751948636
O 3.6011819261314226 -2.0055183429546948 1.013707152356607
C 1.773778641090901 -0.543777269200871 2.4131925608823974
H 1.1848112365680705 -1.4089547484559535 2.6935476930634255
H 1.2450849271907263 0.38176931687252513 2.609375691472298
H 2.7514829270622654 -0.5699770686164843 2.874340946959795
H 3.9671687682512746 -2.5528624677010625 0.3161942394023229
Rh -1.6732147755642193 0.8295908652574292 -0.5486473391338378
I -1.5785639080098184 -1.5145592265393857 0.5616633485690549
I 2.083092261129618 -0.6339908257335016 0.3142595384355297
O 0.19763397195528296 1.6507048176381798 1.0301665762109373
C 0.5791799904841806 0.9688720075782897 0.07523699790735461
O 0.599463148182431 0.7344286145090173 -2.3505967421384617
C 0.11626386396620586 0.9752189766603218 -1.2739106825046032
