12
## STRUCTURE-ID: 6456685cf5f544666533a751 ; CHARGE = 0; SPIN = 1
O -0.6863263796263087 1.01593407336346 0.6033297715973022
C -0.9391318852013469 0.9987854750344717 -0.8259971430116582
H -0.9506274045242011 1.9999351448268425 -1.2443618380419084
H -1.7504422981048304 0.3572296557072157 -1.152402895673439
H -1.2142014115089468 0.3691178817841717 1.1218524088332944
H -4.037364584084132 -2.8092045300488415 0.6660178914121259
O 0.6055531752782298 -0.8595295688446611 -0.28188716971394906
C 0.3297380449429318 0.415657247225483 -0.38535157752492166
H 3.559157427850071 -0.7631659270761628 0.9618755764263666
H 3.973972159237904 -0.2971444194516209 1.426109684913695
H 1.2167007604353623 1.0432619357774415 -0.3521767662704108
H -0.10702760469472043 -1.4708769682977942 -0.5370079429464892
