13
## STRUCTURE-ID: 645673bcb249444cdc2648a4 ; CHARGE = -1; SPIN = 1
I -1.7206310715296702 2.406010412052582 -0.26978849936634897
C -1.3379518890365427 -0.9333286700374885 0.38471446865013775
H -1.651045100177833 -0.9525351993323097 1.429660346734971
H -0.9624546127290899 -1.9203859271841737 0.10813724179037842
H -2.2058379683041816 -0.711580296458794 -0.23684305602689534
O 1.1636735859366496 -1.1169401627879438 -3.0749189270446644
Rh 0.15828151526951015 0.5652151900152792 0.03491225073574083
I 2.3085187264096176 2.3360102216156817 -0.3389945205503612
I -0.07128857962936865 0.19567285987793417 -2.587161564004827
O 0.2966530108448598 1.3567414405039109 2.9252049389113606
C 0.23395808048590663 1.0053034338692863 1.8484012932901286
O 2.3121942970143214 -1.4930572768243016 -0.18483855179919534
C 1.4759300054458266 -0.7371260253096757 -0.03848542132041823
