12
## STRUCTURE-ID: 645667af821be4361656edeb ; CHARGE = 0; SPIN = 1
O -1.0614019668462615 -0.8833208689246935 -0.8860424463495271
C -0.6460591598369673 0.28771708351036207 -0.42518891266370645
H -1.257660794773385 0.7880688568542352 0.3272149528738512
H -5.541655855470716 0.4417009352110998 -0.020861333121852857
H -0.31584128291696084 0.9414649933500191 -1.2343470032510948
H -1.64520972539077 -1.371210366102711 -0.28315075578354065
O 2.4785444845523665 0.6367936199791056 0.09811543411458282
C 1.5964103610822502 -0.14598704906971235 0.692514697737141
H 0.4390483248166234 0.09988827689319064 0.20991949517820024
H 1.4458603226022468 0.14413930621229168 1.7337018863565328
H 1.6716257361289837 -1.222994137268127 0.5239938555158462
H 2.836339556052624 0.2837393493549264 -0.7358698706064184
