19
## STRUCTURE-ID: 64567afaa48e0a689532bae0 ; CHARGE = 0; SPIN = 1
H -3.624410929946414 0.93560299162907 -1.608900129432735
I -3.0679937462384084 0.18881536320575 -0.3195943422440709
C -5.021730628266841 0.4176533556317555 0.6582426772452805
H -4.935451885558647 -0.016803168974405317 1.6490447394703631
H -5.235067318415502 1.4802312797282737 0.7181332053368147
H -5.752383865398355 -0.11957154684156542 0.06209560388013704
O 0.34413971622884126 -0.458525651973158 0.6054093789547977
C 3.123179218329101 1.0941733346639597 1.6283459955350807
H 2.3138543790652415 0.3918096857554406 1.803242000140852
H 3.069187995244437 1.9390452182289204 2.30268044289083
H 4.085185549396187 0.6006238579849749 1.6893459586155057
H -0.11859025681057041 0.38156074300391013 0.5026806254822055
Rh 1.4161508130930274 -0.9031497799439269 -1.0689584896235955
I 2.8902246174172794 1.8345534519122613 -0.37714207395357985
I -0.42574803015759594 0.2604396802033562 -2.5361108333917306
O 2.9656571643425087 -1.7454921455100392 -3.4800809366790113
C 2.3593360918914152 -1.395367586928513 -2.56077706934695
O 3.1499999707562076 -2.827054866071442 0.4254772313039725
C 2.4644611450280736 -2.058544215704652 -0.0931339841839216
