18
## STRUCTURE-ID: 64568ad819052112006cdb4b ; CHARGE = -1; SPIN = 1
I -1.7900408887258976 1.5490908403564392 2.796412025103836
C -1.4439602031989518 -1.2816770810301636 0.3831397235663747
H -1.5149873665185383 -0.549606249062044 -0.4207163795852923
H -2.3119456854184466 -1.1547124057797207 1.0328827685573905
H -1.4423341795698943 -2.291092214151371 -0.02806000169608289
O -0.30766673532366456 1.581681840254595 -0.18205584582622816
C 0.8419748904451598 0.47749599991686154 -3.058997871068828
H 1.9150577134735665 0.34555323407679234 -3.0228113172338964
H 0.48812424974440644 0.909250253980132 -2.129805580137425
H 0.5472040920161376 1.0852541822700814 -3.903575504637532
H -1.1838678495918191 1.9805099179581351 -0.1537100851055645
Rh 0.37707543500380636 0.7887216800309722 1.5129473056533609
I 2.751562418278815 0.5732041831102763 0.35464804695614277
I -0.05415707469562521 -1.446323162313792 -3.2885162181975898
O 1.7194195628554039 0.204800204994244 4.113387322058131
C 1.1750540769408273 0.33861114807602716 3.109133218232347
O 0.43974667662285416 -2.0009275131187403 1.6768044885504645
C -0.20625913233815155 -1.1098348595687404 1.2088939048104006
