13
## STRUCTURE-ID: 64566c6c52ac43281e32491a ; CHARGE = -1; SPIN = 1
O 0.057444575597633635 -1.7110029200384909 -1.0693288427536884
C -2.2427836435026123 0.594630818724161 1.2709392408322924
H -2.9718604152751142 0.189305347146415 0.5797565317011675
H -2.7181059215151633 1.174086494217298 2.0525025554959546
H -1.6202280125559276 -0.18983209398635573 1.687471609472944
H -0.2559059659313082 -2.5680872624254807 -0.7167408633296047
Rh 1.2292049829562113 0.8030284687480967 -0.7145877036514872
I -0.9218998050845767 1.9131525098571047 0.16881486297046946
I 1.9884224239562878 3.183522943304304 -1.5794502896790872
O 3.5664266057945953 -0.8930482100983599 -1.4516965016526635
C 2.6819354406625298 -0.1784629398941202 -1.2058565784286075
O 0.6057878288515971 -1.3790139848172867 1.0638249888516107
C 0.60156190604591 -0.9382791707373 -0.08564900982922788
