8
## STRUCTURE-ID: 645663c6d6069d335b37419b ; CHARGE = 0; SPIN = 1
H -2.231239410195015 0.8124473082755072 -1.1232881916649307
I 0.47882805524309174 -0.17618388732154008 3.7847894124084953
O 0.8288961161216658 -0.22270484074071156 0.2389163592634081
C 0.6289297523924978 -0.23365000380903436 -0.9469789683289305
H -1.4940595426055516 0.5409360136205895 -1.133725685410243
H 0.22318939870557025 -1.1162695035234225 -1.4612112579301944
H 0.8759338561370712 0.6257175830975696 -1.5861258611668132
H 0.6895217742006722 -0.23029266959895403 2.227624192829207
