33
## STRUCTURE-ID: 6456bf410fd0420dbd750ee4 ; CHARGE = -3; SPIN = 1
Rh -2.5902292554768307 1.3618438162466742 -0.192082254384754
I -5.25997641751215 1.5361332937480057 -0.11320366599989455
I -2.4590417602646593 -0.22097095360380153 1.911892082323824
O -0.578052738569066 3.1423365650556114 0.7714250588994896
C -0.8400877674594069 2.1506085987316674 0.13323105635855423
O -2.2035356513639752 3.8375749513333357 -1.7743662204476904
C -2.4605602508955626 2.8019180356868105 -1.2820758654007818
I -2.794594752160394 -1.0921839514763474 -1.9730920783761225
C -4.239013809702957 -2.542309433518792 -1.1014894096676375
H -4.100890068233732 -3.473438349027281 -1.6379800548184726
H -5.232498503814062 -2.130088727428113 -1.242282533234134
H -4.0091195224173495 -2.636608666926083 -0.04487478001663561
O 2.695648376302428 -2.4821368351220867 2.0758347286557126
C -0.33608911176737316 -2.982133992910709 0.06400793350024499
H 0.3049866338709724 -3.453874100438834 0.8020176140471952
H -0.5958326315912057 -3.6516852210789827 -0.7544662536524639
H -1.223449787544602 -2.5833865447854936 0.5474208506524819
H 2.8560683212314397 -2.9696484916402883 1.2456983106499533
Rh 0.678035136163177 1.3726315892398626 -1.1065783134821698
I -0.341434142415745 1.295257746404313 -3.588988468930835
I 0.8157970601792104 -1.3267839567940456 -0.8554814457318107
O 0.7876608696868468 0.8871550234405037 1.6876858831698438
C 1.4596465631432725 1.3498346911222465 0.750218485819377
O 1.4839200711238745 4.235484339568864 -1.2455383878858752
C 1.2704507434393504 3.093155271392114 -1.2548080641178812
O 2.3548598831524163 2.383021918408594 1.0856761905109062
H 2.378147994743348 2.4635226233096503 2.0540111539072132
Rh 2.99592506365615 -0.30850788063675333 0.17524145813697992
I 3.5157984250807983 0.41622071733039784 -2.3772588951518916
O 2.7969018190878736 -0.49626599477861794 3.0231907196200525
C 2.812037839046604 -1.1159355116587986 1.972308291679665
O 5.481006088055242 0.824102496853343 1.3779867117961215
C 4.577515283226092 0.3151569339530252 0.8667201615714452
