18
## STRUCTURE-ID: 64568b9991bc410d8a248ad4 ; CHARGE = -1; SPIN = 1
I -2.0433949688963247 -3.265607220381174 -1.1334913395661215
C -2.360612023101478 0.1318849567103354 -0.17112147334411487
H -2.6167993568845307 1.1632223936278965 0.08182847334683777
H -2.6636961479676016 -0.5119960765008544 0.6591548354591512
H -2.927006995376287 -0.15804976417353983 -1.0586948265112193
O -0.04862096226565742 0.11431865734672488 1.5399039555142073
C 3.0201946761492424 0.9988248914252387 1.11832435048404
H 2.161770323494903 0.8818443111506574 1.7740518836859722
H 3.099142352354851 2.0153674137742246 0.7487179809236906
H 3.9348747141843843 0.6615583304702363 1.5892622282697313
H -0.6013375849097137 0.7651836441102801 1.9832928921368669
Rh -0.29878726876709555 -0.04839429994855257 -0.4768137892644026
I 2.641015210268715 -0.285687889938551 -0.5780725271863382
I 0.023450490819559966 2.6158877332807995 -0.7894524270923035
O -0.7231094652389564 -0.27397709066191145 -3.4258405113356636
C -0.5296443775418973 -0.2098506979431825 -2.2969845486862677
O 0.32493313861810486 -2.625779248245214 0.5476181873760467
C -0.3923717549402276 -1.9687500441034136 -0.1116833442100884
