13
## STRUCTURE-ID: 64566c75f408a72fd11a561d ; CHARGE = -1; SPIN = 1
O -2.6888698747921818 1.3663614188916107 -0.7163287450761538
C -2.057309044372793 -0.9556850536634683 0.7777767441765224
H -2.970957926669937 -1.3469983661370435 0.3508937467132721
H -2.270038754564429 -0.0553307915830796 1.3382166225665875
H -1.5346588093381277 -1.6952539495787493 1.3722141586782894
H -2.7558260623862405 1.8445238660603778 -1.543501786382118
Rh 1.6166204896192957 0.06606649346222866 -0.03887140699778781
I -0.8020796155283396 -0.3890483147150741 -0.8655036985299176
I 0.9804949511015755 -7.86263123908426e-05 2.4771042563083756
O 4.342577174447903 0.8064483170814462 0.9400771332803035
C 3.2984805639074475 0.5428830303596249 0.5381136813145879
O 2.6227381841294197 -0.12407681579528418 -2.851159201443849
C 2.2188287244463645 -0.05981120807015768 -1.7790315046081064
