12
## STRUCTURE-ID: 64566bb2e032ad34395c0b0b ; CHARGE = 0; SPIN = 1
O -0.05549778007550693 -0.2723309712375851 0.061469770987130794
C -1.247465218750011 0.27617252477051557 0.5815898175999684
H -1.083254522035984 1.2963556359081363 0.9452846227570268
H -1.6324752448999227 -0.3379508389847658 1.4025858040787988
H -1.9675845374290202 0.2907376048086276 -0.23314916109013928
H 0.3549422801095298 0.24303719867380694 -1.7450216976250992
O 0.5078697767403784 0.3965012072762888 -2.689250890041332
C 0.979073355301373 -0.3420699453207659 1.0187810098239005
H 1.838772354836492 -0.7832161221969121 0.5198873788439754
H 0.6833394026868603 -0.9689905717982202 1.866820126141931
H 1.2397068744220892 0.6562367250113105 1.3871503904084728
H 0.38257325909373435 -0.4544824469104305 -3.1161471718846427
