19
## STRUCTURE-ID: 64567a1fb408ca1fc4530d5a ; CHARGE = 0; SPIN = 1
H -3.145297848918939 1.655730170066273 1.7757224389095843
I -1.8423056610416546 2.539599292606728 1.5976542815360204
C -1.6972058975720017 0.43975676826230214 -1.4748876480501596
H -2.36077978561359 -0.320289493824593 -1.057270134139892
H -2.2766634167259268 1.354293358907183 -1.6247312966216807
H -1.3726643618834171 0.09658088585308094 -2.4593933583273606
O 1.2958111609090441 -1.4674443652023916 -0.9850310497615741
C 0.9760232393727724 -2.066376886842173 2.424804161082807
H 1.295640937269556 -1.2774169140738092 3.09677293185148
H 1.7407823259232575 -2.2840990378019423 1.688586006447928
H 0.6714386408137776 -2.955094126209294 2.965104936264471
H 1.874748028378503 -1.9899224739635035 -1.5783913710732727
Rh -0.06567835068593526 0.8060451313153625 -0.18223068175762597
I 2.15254825232421 1.3631239139192515 1.3270816824533092
I -0.7498719705947273 -1.3532701651747832 1.3469155411443967
O 1.5349037399986778 0.20338369691540528 -2.445946926375371
C 1.0711843430322556 -0.24045267584232274 -1.4239916168520137
O 0.587300709020697 3.2091686231269354 -1.799698622366869
C 0.31008591599344465 2.2866842979623434 -1.191069274364221
