19
## STRUCTURE-ID: 64568ee992117b2cc3351d64 ; CHARGE = 0; SPIN = 1
H -3.6182771177457638 0.05376983059187811 -1.6893375394514822
I -3.050850780769699 0.9665527328717709 -0.5276776526274809
C -1.9137882023079498 -2.019597811531458 1.4432563853506404
H -1.2927095212215778 -2.835864804941684 1.8170177925049396
H -2.4016296335801863 -1.5289087578614533 2.2862688276585192
H -2.6750426889679426 -2.4255582337312136 0.774294215385791
O 1.7543199090979338 2.2295001626889155 -2.720942545723447
C 2.278918410781206 1.701717732833454 -0.14047169247450705
H 3.1257865703520697 2.096531673995141 -0.6846775486953467
H 2.5888062215956333 1.033729558352433 0.6550172897220765
H 1.6678265155527967 2.512314534092259 0.2365468827769656
H 1.4040098979351974 2.2179973668408253 -3.613328887017194
Rh -0.7215297305108616 -0.6924003875033842 0.30087050753183636
I -0.881691214419272 -2.144448597871572 -1.9033865621373596
I 1.1226195100681287 0.5927776108488487 -1.5291439793363537
O -0.18868027299819812 0.7740308716211985 2.845477030256163
C -0.42964170885901964 0.20957720714991382 1.8824274629727433
O 2.0867602986114466 -1.6664328000812187 0.4675866596335823
C 1.1447935373859888 -1.0752878883645187 0.10020335367011818
