19
## STRUCTURE-ID: 64567aec048fe97d682a157e ; CHARGE = 0; SPIN = 1
H -4.648324590663502 -0.3362621858934498 2.661811933992185
I -3.425867870070867 0.652627677038471 2.6119919701013528
C -1.9114124553296776 -0.4677279546119184 -0.7050345021986584
H -1.4521342685815468 0.3991269714614726 -0.2275331957356713
H -2.0541718593675293 -1.2792077866519973 -0.0011064374717613507
H -2.836817684897961 -0.19445949186660022 -1.1966672687011202
O 1.3624543947997736 2.6765258507305485 0.5391989474315128
C 0.7282835365332747 -2.8239114476883023 0.9806893440637926
H 0.40995408315102905 -3.0438303292742304 -0.03306456203136717
H -0.1116267344035478 -2.757479432107437 1.6626462649503508
H 1.4535540391221322 -3.551110721365401 1.3277645231097055
H 1.794358382423559 3.4012032499161267 1.0317404196044502
Rh 1.2533065409224298 0.5544229015336996 -1.1508938945403604
I -0.5264932854110932 -1.1515269099651422 -2.241310762800434
I 1.7314015514189491 -0.8638481964599569 0.9759560220574024
O 3.4082330620669103 2.286225384827034 -0.27996279216257614
C 2.225667988121702 1.9879451768052683 -0.2398052502354961
O 1.3470417586947083 2.684823423754275 -3.2412907025116726
C 1.252593411471329 1.8264638198175864 -2.4751300569216443
