12
## STRUCTURE-ID: 645665044cf5ca58aa4975b8 ; CHARGE = 0; SPIN = 1
O -2.8993497612852375 0.35267895522966153 -0.31832749678453975
C -2.018341673510971 -0.48531410042741924 0.4026973534185461
H -0.9997274897167006 -0.08972898281969234 0.40175120794228314
H -2.0146890716590877 -1.500275949608763 -0.00842276166964826
H -2.389670138930042 -0.5211399348190372 1.4254788656499526
H -2.545909098180191 0.47129979702999036 -1.2077185781109425
O 1.183661735544859 0.7782294105060241 0.014881753810792497
C 2.340012935939497 0.00484450399371307 -0.22130372319284577
H 2.886693962264741 -0.19071428684443925 0.7059281039145182
H 3.006862810732521 0.4922602800214455 -0.93865150781664
H 2.0026437882941073 -0.9421838988123981 -0.638787742131571
H 1.4478120005064405 1.63004420655083 0.3824745249702378
