12
## STRUCTURE-ID: 645667023515c3675f242a3b ; CHARGE = 0; SPIN = 1
O -0.16115876188479467 0.16268948761623606 -0.21944377529383166
C -1.2881923129220387 -0.3327629913861915 0.4708743574172226
H -1.5708870488106532 0.4249639547369005 1.1976662018702209
H -1.0485851134721427 -1.2677720244329649 0.9889135731976686
H -2.120607992752549 -0.5095070084343055 -0.21871025442203446
H 1.1601629255978725 1.0410311270494903 0.8834435886985447
O 1.7801665044731922 1.569347497931799 1.40786838589026
C 0.3022267395902584 -0.7253593725067633 -1.2136864087872181
H 1.1596113487220345 -0.2503752193579195 -1.684385229475842
H -0.4752478109628066 -0.9092589729856306 -1.962901803429421
H 0.607057685012621 -1.6814579736025026 -0.774227476933033
H 1.6554538374090237 2.4784614953718496 1.124588841267454
