16
## STRUCTURE-ID: 64568def1998c945bd2648ad ; CHARGE = -1; SPIN = 1
H -1.2854222167738338 -1.72745185481543 0.43298545331954075
I -0.9781770976286676 -0.022907961432693337 0.7615451700758477
O -1.0767981800582251 2.077659345378133 0.6952041114791865
C -2.736955561975101 0.15574124631037042 -0.43883821778953075
H -3.5383087704277543 -0.34181790881509727 0.09454041766757112
H -2.550140537700536 -0.32066735302381405 -1.3954220778376372
H -2.929086664248191 1.2144426730461255 -0.550587873499773
H -0.6630178110443714 2.407995963789362 1.4893984802260551
O 0.7380271036849649 1.1933554076821997 2.673163530025016
Rh 1.3068717749696293 -0.0958882050885737 -0.4995645042119253
I 0.12649020029709615 -0.9624701057486712 -2.6580481551779305
I 2.198022678773666 1.4293050192169316 1.4936360270117002
O 1.9478571769927333 -2.3207912679879246 0.8790761932184418
C 2.416308146742509 -1.7837511170751428 -0.05028694548760323
O 4.034623057445901 -0.4926787269320875 -1.7105194825584404
C 2.9897067009501743 -0.4100751545036925 -1.2162821264605133
