18
## STRUCTURE-ID: 64568af48054fb02a75c0b00 ; CHARGE = -1; SPIN = 1
I -1.8279711935930887 -2.8582316545463273 -0.47585914682143166
C -2.3131634457810786 0.5162127012920634 0.19061765990028393
H -2.9284304001941934 0.21981375865411756 -0.6584265637643963
H -2.202310046397696 1.601389506586646 0.19252575010429715
H -2.847994729317283 0.23473691272064345 1.113142055925966
O -0.9879268104624405 -0.13734193830624664 -2.126687652045914
C 3.094105430841799 0.6606309141324015 -0.21721846163464312
H 3.444646688285251 0.761500479681118 0.80306182587771
H 2.307427488948426 1.3791613394890834 -0.42427694321837456
H 3.903138667637051 0.737060861076202 -0.9323647333254435
H -0.6950389034408431 0.36616650474402707 -2.91085722355137
Rh -0.595788908046965 -0.7179441091433095 0.6310487625018288
I 0.27026855993409166 1.1842331673757809 2.3395700931233874
I 2.2264661824087324 -1.3082776325086254 -0.42308788517951645
O 0.06485783079614184 1.4759547532958108 -1.0326935834588904
C -0.5850155249670492 0.44257191600309026 -0.9838431695918061
O -0.06807830668617848 -2.64792882591838 2.8872820885912067
C -0.25919257996473477 -1.9097086546281299 2.028067126567134
