19
## STRUCTURE-ID: 64568e1084374e44e32b66ad ; CHARGE = -1; SPIN = 1
O -1.9872235750875225 -1.299554954877847 1.466070301944061
C -1.615163704374152 0.3036985595902226 -1.1276259807841922
H -2.5711429985433276 0.33365798163484633 -0.5993572149444962
H -1.2114083281443984 1.319517780186903 -1.167514488345459
H -1.7982272197985878 -0.026074843601150244 -2.153181551229599
H -1.8110952868308916 -2.0009645114704524 2.0981361422298
O 1.4620284047766063 -0.9199609372093298 -2.2466329545487165
C 1.1579257179159503 2.4283906475354002 2.0352381953529157
H 1.6779698202968143 2.3758862533837455 1.0857954285528038
H 1.8380651100536882 2.228691931687001 2.853537302102915
H 0.6642075855454899 3.383205268992171 2.1601098090186963
H 2.2317731535148875 -0.5143181496180154 -2.6986715879474024
Rh -0.33457141813000957 -0.9454495414718482 -0.026067962761782158
I -0.3634695006303257 0.8430980613554084 1.9901540456198341
I 1.453067274737018 -2.5386236490764236 1.3040404061712427
O -0.9689636622092097 -3.1847206133031354 -1.8521138532996457
C -0.7023734939329986 -2.2967959393276054 -1.1727672690178044
O 1.7453408159327226 0.7580993157000692 -0.8158905212694865
C 1.1332613049082807 -0.2477826601099899 -1.1332582468436758
