12
## STRUCTURE-ID: 64568eda53e8a21a237cab83 ; CHARGE = 0; SPIN = 1
C -1.6024760805586609 -0.3162025228028727 -0.11949224020512923
H -1.8527063943175266 -1.373171689608534 -0.261203681170722
H -1.8819149045542185 0.014294151502784973 0.8809786109698144
H -2.0615761245038917 0.30252465389296596 -0.8957924139387689
O 1.7553907241066886 -1.7414837005060746 2.641581777781272
Rh 0.4858141152299775 -0.26606718253516876 -0.4284119755286365
I 0.5074741788627869 -1.6526699059417618 -2.6096479503988266
I 1.438250002848142 -2.25339364401323 0.91091535243635
O -0.00040102660413184564 2.167250037843349 1.3524201844919181
C 0.3439546846792496 1.3315334549470297 0.616037395166536
O 1.8407254010313292 2.249085651434532 -1.2593478133427356
C 1.0274654237802614 1.5383006957869767 -0.8280372462610616
