14
## STRUCTURE-ID: 64567b0d2bf1893e3e333beb ; CHARGE = 0; SPIN = 1
H -1.2138828313653791 -2.352940801711464 -1.7783652712892495
I -2.544035341349988 -3.220572106611856 -1.7451426122787301
C -3.3288159380389346 -2.2138281000405797 -0.006394989093814309
H -4.343441308952449 -2.5749917688283057 0.13827988237666783
H -2.6619943620358386 -2.472613616958693 0.8100775210748149
H -3.27438457703732 -1.156028813479929 -0.24858810112671126
O 2.237290993659261 4.341452404314743 -1.7611914830854478
Rh 1.8860026746994631 1.3070002262860803 0.4082364318720756
I 0.00582848180577143 -0.04879449771540128 -0.5825248874178599
I 1.2516498179105187 2.7800491085683605 -1.5548845386399666
O 3.9305007892135233 3.4021506728000324 0.9872735398347625
C 3.1760025982520044 2.5491904657209052 0.8388273185590615
O 2.591428271092949 -0.5027680809235597 2.68696155129717
C 2.2878507321464454 0.16269490857964905 1.807435637917213
