20
## STRUCTURE-ID: 6456b8baad2f3b7426068a0d ; CHARGE = -1; SPIN = 5
C -1.8035809539670706 0.770602360463896 0.41160941962178693
O -1.2561456515901288 1.7378902718889095 1.2491082354681282
I 3.8811357930719557 0.5144616141145257 0.02106834516456076
C 0.8437128708960658 -1.1778097643585828 1.8398046604923268
H 1.3269896190984536 -1.8781807169099038 1.158494607874823
H 0.10712543084375108 -1.7235875428562095 2.4319110322224953
H 1.5903707456800675 -0.7457535406036757 2.505204088836907
O -1.9445924633923206 1.1607261042092443 -0.9100145852929937
C -0.6110506616857818 -1.8190488308779444 -2.3906632841570543
H -1.3045196651311703 -1.8325592328087512 -3.2228964746472837
H -1.1263239655247705 -1.6794985064270684 -1.4470573071682733
H 0.01805767896130127 -2.701217913671921 -2.380576554262221
H -2.5515408638689787 1.9100207548589743 -0.9928785588943283
Rh 1.3614973082964155 1.168217686571036 -0.35157260392424317
I 1.022908621503555 3.709878591852733 -0.97363596406944
I 0.6856145014612167 -0.09368395610680377 -2.6767598854715673
O -1.0840491012076108 -0.391980756573925 0.49862504239817357
C 0.15582642116743572 -0.06062167442368136 1.1093143973355661
O 0.6908050995819536 1.8854674862693133 2.462072979687305
C -0.002240764194352463 1.2466775653898214 1.6588424087853664
