12
## STRUCTURE-ID: 6456688259794848c01d80be ; CHARGE = 0; SPIN = 1
O -0.2788533941385906 0.16745812764247134 0.18385027967244444
C -1.2736587546187117 0.07792423685450144 -0.8332753327033522
H -1.1500262903986203 0.9490878613426222 -1.4772644515830602
H -2.245807059865195 0.1335206005399103 -0.3407585386915252
H -1.1892354178035562 -0.8475518912745822 -1.4021908018297449
H -2.4533118145750454 -0.8154207737810991 3.9169046682907056
O 1.4053492492159685 -0.6878890061500299 1.3249237449534006
C 0.5309438049284708 -0.7638466053724855 0.42300018269712025
H 2.180709948331941 2.010804667926397 -1.6646472192588972
H 0.5352293729048988 -1.6951294750645045 -0.1569480792648576
H 2.535862225017751 1.345726194004884 -1.8542684859980874
H 1.4027981310007114 0.1253160633319004 1.8806740337158425
