21
## STRUCTURE-ID: 645677f933ec4310fb2a1573 ; CHARGE = -1; SPIN = 1
H -2.6165382489160445 -0.3746638627836437 2.607197756426436
I -1.9917472076899383 -1.3063099183474105 1.478818787986658
O 0.48966875249492775 -2.184720186712671 -0.655981183764096
C -2.7289448409574804 2.166348816210471 -0.7952037399557209
H -2.211763364361531 2.6906599065111765 -0.016563135058891905
H -3.0233341332734867 2.6979666825333912 -1.6781290659002175
H -3.176910260769499 1.2176217733971428 -0.5747614573999386
H 0.8081767363762155 -2.7591546167225007 -1.3786437535510543
O 2.5333296960173635 0.7917011721413965 -1.4612583861036958
C -0.2480494218869012 0.9375602989071374 -1.7938257524237495
H -1.2347894200139347 1.4339248106690288 -1.7437725115643143
H -0.34991954081504933 -0.1367694907417404 -1.8910686862651325
H 0.4015182776125721 1.3245440169785805 -2.566889242208464
H 3.340065864459976 0.6580949147891035 -0.9651626593098624
Rh 0.919157045091427 -0.6791847757266338 1.6928978611299264
I 0.5015982394204076 1.089770897911277 3.6377844076986823
I 0.6759128122370291 1.3333330045207208 0.09892138584270214
O 2.6462205457586534 -2.1566723978396314 -0.10042509719936452
C 1.505487064236128 -1.791414185928716 0.16201932187762907
O 2.1447495567206474 -2.9172140677396476 3.2378175678604575
C 1.6161118482584582 -2.035422792026834 2.7062275818821067
