12
## STRUCTURE-ID: 645668fffe1c3c4bd8242a30 ; CHARGE = 0; SPIN = 1
O -0.7648545274866594 0.45093544190022594 -0.5921230041122326
C -0.8835554513186649 -0.21019252476095096 0.6725660423233422
H -0.6997407099001909 -1.2772734153563758 0.6250243610790139
H -1.8367396267634644 0.05334258839078335 1.1289343919162529
H -0.130657956792117 0.38464374540451557 1.5314990405192521
H -1.568524685053287 0.27065606194131125 -1.1403856819942169
O 0.9492450244721491 0.09903817747650143 1.534280653079365
C 0.4038115270227631 0.06240037273390378 -1.351905040693261
H 0.5209678032489395 0.7747170989685285 -2.1646369128224237
H 0.3214907695005429 -0.9581628684826832 -1.722014018321393
H 1.2489178140330965 0.12992577314305712 -0.6670971437515479
H 2.4396400190368825 0.21996954864115675 2.1458573127778644
