21
## STRUCTURE-ID: 645674d435457871d96a603b ; CHARGE = -1; SPIN = 1
H -1.2935548207345537 1.3009078756606218 -3.8520573024923523
I -2.3917644046736224 -0.1865837520304715 0.5866140645438366
O -0.05804182140365443 -1.8171117997515476 2.0671936014560925
C -2.0659648688536083 1.9519271382255676 0.5953801379052687
H -2.890679666776706 2.4093927619887388 0.06278470704722183
H -1.135692714705268 2.1515838454653475 0.07668652518637725
H -2.029194528672552 2.2749673734200804 1.6293014352046773
H 0.196309396326299 -2.5438496073284966 2.6458638998921358
O 2.7663432809709643 -0.31968908970827437 -0.44704400719753185
C 1.5021506314133064 0.48325424702534975 1.9853764027787837
H 2.329932315705247 0.32522055774999703 2.668756458595426
H 0.5568317562077307 0.5500996696215941 2.513019605883996
H 1.6844907065922965 1.3268257662999245 1.3306599960109728
H 3.664711010371634 -0.5576773558599096 -0.20584363293553729
Rh -0.2605873901984919 -1.193923835611104 -1.2839456336216142
I -0.6566118907617456 -3.7307797932647 -0.8689355587426051
I 1.3559095293839012 -1.23744469345342 0.7312708804830964
O 0.8054114995714543 1.5543321255929587 -1.6669962778420526
C 0.34909378332484353 0.5025136313376621 -1.6459917152910082
O -1.426221232248369 -1.7867204700295378 -3.9666433986258407
C -1.002870570839116 -1.4572445953503608 -2.955450188239343
