12
## STRUCTURE-ID: 645668614896a12ace41e591 ; CHARGE = 0; SPIN = 1
O -2.117054561664116 -1.964500426241501 0.28766889575222465
C -1.715860689574221 -1.3468844357973206 1.2358756981575463
H -2.3978089285371476 -0.7819630425945787 1.8903201533780722
H 1.812997178286112 -0.16359598517843668 2.744703923863964
H -0.6527386449256254 -1.3030712730065555 1.5085836800594228
H -0.3027985664011254 0.6149667283116007 -1.9771322243327016
O 1.506701192679809 -0.8289157872774909 2.1226380317012414
C 0.2617339872703074 1.4904128098062788 -2.2716190610709135
H 1.2547571777180786 1.1921155029732986 -2.5808839244070017
H 0.3324779970786632 2.172347797136557 -1.4345911999076082
H -0.23954811958150063 1.9813961315291349 -3.0954204514641015
H 2.2571419776507784 -1.0623080196609855 1.5698564782698656
