12
## STRUCTURE-ID: 645669bb1cbf1a26111aaa18 ; CHARGE = 0; SPIN = 1
O -0.3968185352839034 0.8285520357858278 0.5841228434546202
C -1.3496604382314468 -0.010755172472853815 -0.105959685047579
H -2.1845397955767445 0.6135832358290397 -0.412188086913667
H -1.679244569561898 -0.840445643831427 0.5165951173839702
H -0.828399222275873 -0.41044928237120376 -0.9838792316047383
H -0.7672137174227381 1.0969395072245003 1.4560060927621123
O 1.0789520595690147 -0.9730262765568771 -1.7913810203205047
C 0.8794174847394427 0.16739671894014788 0.7698338641462671
H 0.8198298995211599 -0.6178776297376413 1.5181388547269674
H 1.609985823524595 0.9217123839953921 1.0407487072107284
H 1.136193427572553 -0.2973128351956134 -0.2348252447743957
H 1.6814975834258405 -0.47831704160929556 -2.357212211023776
