12
## STRUCTURE-ID: 6456698ff985c11994374198 ; CHARGE = 0; SPIN = 1
O -0.9598830458200613 0.8408677096267365 -0.10112652783901244
C -1.9241028748691378 0.2408529268068576 -0.9427900788424762
H -1.8610169233368001 0.6315709650556653 -1.9619175034126637
H -2.9350486161783613 0.39310052712189936 -0.5564455513547131
H -1.7077210338112048 -0.8255323082110306 -0.9586667195344323
H -1.1293317295053782 1.7900301240210377 -0.05913943494109053
O 1.7591453173079938 -0.035026971153148484 -0.21153242314853288
C 1.9334630869003897 -0.6938854284706502 1.0207086497871694
H 2.972887372908466 -1.0173927985569555 1.0647456912081197
H 1.283925874583259 -1.5716712933249617 1.100573234445131
H 1.731490926820278 -0.025596342273334363 1.863630075439143
H 0.8361916450005757 0.27268288935788576 -0.25803941180664625
