15
## STRUCTURE-ID: 6456b84f73a55d23242abdcd ; CHARGE = -1; SPIN = 1
C -1.2825219322485524 0.15194970864691046 0.5858840078649283
O -2.0952336164337466 0.8584271796951632 0.9853044128268301
I 0.27396086101904343 -2.1288197808189055 2.447229264782848
O -0.7904920983252975 -0.6492674258793155 -2.712999745954007
C 1.4188338600574817 2.408593181727348 2.2406781905189774
H 1.420519746275678 2.084080584823131 3.264123638899053
H 0.8249299599302177 3.2529161734092416 1.9465311541026298
H -0.8072863205740469 -0.19033114661750272 -3.579687975069227
Rh 0.0658269247802671 -0.9308311955292141 -0.04089452277178978
I 1.8797301529911323 1.034397279533895 0.8190232785167749
I 2.303007545483905 -1.9789622405132357 -1.0913642181600607
O -2.3130886953166883 -2.654900040791108 -0.46887585854737757
C -1.1929797703391416 -2.401442448116935 -0.5565781988299581
O 0.3830990347438188 1.1179165042664523 -2.0391631463080038
C -0.08830565204403659 0.026273666164070505 -1.7992102818716709
