16
## STRUCTURE-ID: 6456760c2e8b3631751dbe94 ; CHARGE = 0; SPIN = 1
H -3.01997322924466 2.2105925770567736 0.8866753897630336
I -1.820916131393684 1.0829620370864077 0.920702180968346
O -0.27180763705671634 -0.7138049425728356 0.8337640563308113
C -2.9597966245121117 -0.06298758777031448 -0.4606884596209629
H -3.017474837426443 0.5070080413714301 -1.3810185464610245
H -3.93271688106191 -0.24560225597453542 -0.020868813808344384
H -2.415397227741769 -0.9843147934607387 -0.6214329046482117
H -0.31440882998866426 -1.1791567625124224 1.6730804326370334
H 1.3463850746461594 3.1208374583095564 0.10128372322577757
Rh 1.5645561427527392 -0.652038528214685 -0.254019874726974
I 2.0894865982210478 2.1963376473477307 1.146735657490902
I 0.3157196476553741 0.5096800152784586 -2.2254107132497936
O 3.988549717710494 -0.8714115211671334 -1.9678270872308028
C 3.0609785636568723 -0.7537233378309293 -1.2966856413730528
O 2.9815364358274006 -2.436355683480856 1.683348374201679
C 2.4052792179556817 -1.7280223634660592 0.982362226501446
