12
## STRUCTURE-ID: 645664fae14f534af83288b6 ; CHARGE = 0; SPIN = 1
O -0.7341287174252589 -1.0332169957569697 -0.9808726735524406
C -1.1586474039406685 0.16504727836894836 0.6978194444565406
H -0.8587154600756921 0.6086947704033245 1.6457903077058786
H -1.7627952386233892 -0.7113286208273104 0.8593397694982132
H -1.5865250297830107 0.8940285524476761 0.031038925366687176
H -1.340834749395506 -0.6540769062354134 -1.6172721267896264
O 1.3679882493058835 0.21329705655215395 -1.1815870502842358
C 1.4402113938135614 0.2423921969365945 0.17846683047377596
H 0.3160423865754862 0.11278282212282399 0.5245601034900546
H 1.8296720905105412 1.1922936103978912 0.5479794313745169
H 1.9610626055256 -0.6171671228770965 0.6179528064924371
H 0.5266698735124401 -0.41274664153261786 -1.3232157682318078
