15
## STRUCTURE-ID: 6456b7edbae70542c86a602d ; CHARGE = 0; SPIN = 1
C -3.23905124895227 -1.3185485695635948 -0.522209532270887
O -4.098883855982525 -1.9964179494958643 -0.25563794820464636
I 3.1177012517573646 0.005279596310984018 -1.688185207508397
C -0.023765793618688955 1.9651190552423434 0.23854333238281614
H 0.04678202888714219 2.849685742471712 0.8742863664688102
H -1.050375931474564 1.5908480507142662 0.2587545349280882
H 0.22560085173496686 2.24389887009768 -0.7883635063277178
H -2.1462133426058765 -0.7404146053305154 -1.5321158721340515
Rh 1.0050366276526246 -0.782924573670696 -0.2943257276149896
I -0.6779992189693778 -0.3853782084688043 -2.3921237700337974
I -0.9256292928034789 -1.868362832693864 1.180873698019785
O 1.6349880951217555 1.025565441722263 1.7211988865508405
C 0.9272520335519979 0.9614032062610769 0.7756819811051942
O 2.9803310263920415 -2.0336893013838 1.5494156503999323
C 2.2242267693088875 -1.5160639222131884 0.8742071142390376
