12
## STRUCTURE-ID: 64566b4aac5e6b522656edee ; CHARGE = 0; SPIN = 1
O -0.8089759223253649 0.8021665229893119 0.13932612215637205
C -0.24033315785584147 -0.2196947916324032 0.9358846976009327
H -1.618814211881503 1.116477149064683 0.5570445808710401
H -0.06567982862545067 0.1395995004650705 1.957962059590063
H -0.8969585761487942 -1.098367988984055 0.9692538720333224
H -2.0064638205662466 0.15954109950144094 -2.97760429719532
O 2.0437988478065696 0.4226355162727491 0.38301938081897824
C 1.096429169174947 -0.6155965124381435 0.3085175443712514
H 0.926181093674049 -0.9036720027903768 -0.7378937609155503
H -1.589534138519586 0.4469666095554487 -2.3859496102271174
H 1.522811548317232 -1.4625315788680977 0.8493463801129628
H 1.637538996949994 1.2124764768643652 0.0010930307830625148
