12
## STRUCTURE-ID: 645668dcc1f2af5c8232dfdb ; CHARGE = 0; SPIN = 1
O -1.0091683771873352 -0.4144826189546718 -0.027108047448646214
C -1.33863326532393 0.25071103775213044 1.2234885334378096
H -1.4399402105979626 1.313118337092619 1.011141588371787
H -0.5530873868207168 0.09697958034762152 1.9633872769763212
H -2.2891516164959915 -0.14588227869898884 1.5708826640391715
H -1.053811170631291 -1.3901732728670928 0.1199274245344082
O 1.303029142594937 -0.4168581041727145 0.33412734535450334
C 0.34377062553190213 -0.03483715977954009 -0.539926421935793
H 0.3191002190120147 1.055585660935755 -0.6088051954236385
H 0.4053693248591709 -0.47360609229991285 -1.5386166640811818
H 3.6258614586679236 1.4423498600798617 -3.642961364984367
H 1.6866612563912415 -1.282904949435014 0.13446286115966755
