18
## STRUCTURE-ID: 645672ba260115598e623190 ; CHARGE = -1; SPIN = 1
I -3.9621865517191504 1.6155094394798704 0.15042873252015976
C -1.5091043841490726 0.43812569655926925 1.140032963203374
H -1.192833817814211 0.9860412171959877 0.27078743962278506
H -2.0914351039284784 -0.44401902136079746 0.9473086557061424
H -1.7889090678573003 1.0055002533825086 2.010359452825917
O 2.117176364979313 -0.023569760241078867 -1.2544055664427431
C 1.5493551878540144 1.403969756588588 1.5076778778344866
H 1.8651044305759774 1.4401259501170547 0.46690731094863275
H 2.396992490535583 1.411075466739306 2.184798727224777
H 0.8265877313018816 2.1755110444354098 1.7513105984109185
H 2.95570681288244 -0.4937745185545163 -1.2070718715832223
Rh 0.5111659987521568 -1.2592839711137673 -1.297696662879427
I 0.5520225405594594 -0.48486839373919666 1.7569504188128249
I 2.027198979027665 -3.3600432968663556 -0.8382172684504932
O -1.8846470486940037 -3.043129749555433 -1.3957997861632034
C -0.9601278776997259 -2.3512154453521834 -1.3410585190219069
O -0.9842961330783924 0.8773134843862068 -2.7514256806158883
C -0.4277705515279431 0.10673184789919933 -2.1008868219532433
