12
## STRUCTURE-ID: 64566b5f89312801876c2b51 ; CHARGE = 0; SPIN = 1
O -1.275318816166533 -0.17251766467008198 -0.07429005460978533
C -2.195846005100742 -0.016782248958554163 0.6795637569294385
H 0.9995411109387757 0.9688353102756416 0.21776131465251822
H -2.966401954763906 -0.7849354692933557 0.8287675514113606
H -2.320317239322094 0.9043112789570908 1.264344514650167
H -0.8173519214691535 -1.6785328328288378 -1.2933486643084557
O -0.5872401412369462 -2.402888820939227 -1.8908705263637628
C 1.9841531949369362 1.2605239529592696 0.5586929815455617
H 2.3945461552374416 2.003330536095045 -0.11261697205869971
H 2.6307166257608596 0.392920832137494 0.5749054086957935
H 1.9141328124992387 1.6751326662184256 1.5558476889184945
H 0.23938617868613918 -2.149397539952901 -2.308756999462635
