12
## STRUCTURE-ID: 64566bc216e57c6eed2a1570 ; CHARGE = 0; SPIN = 1
O -0.5072739958657084 -0.6906561869075803 0.3539852655171696
C -1.6816012106545675 0.016002560606975955 0.3400022821488901
H -1.5554763775972413 1.0550028896810573 0.6871015883386163
H -2.410669781102036 -0.4705807507385845 1.0048805078826835
H -2.1263943874503384 0.04003924958871797 -0.6687733259397888
H 0.6368382475962959 -0.17837753225380112 1.0279473839742956
O 1.5896502622029014 0.22152166330700634 0.916581229408831
C 0.9346719988730946 0.10122867564956167 -0.9618301922672168
H 0.08469410659146898 0.6828578356715922 -1.2756363502708525
H 0.9470556265464737 -0.9153613878503788 -1.3119107190349804
H 1.8635631185376207 0.6388334841596397 -1.0966053227048094
H 2.224942392322032 -0.5005105009142018 0.9842576529471734
