12
## STRUCTURE-ID: 64566abd7a407f7f517ffa88 ; CHARGE = 0; SPIN = 1
O -2.4682723876896167 0.1948461162996719 -1.1988833275127486
C 0.3013715576941956 -0.633849920363634 1.3038691055789384
H -1.630573279867975 0.12945829744509327 -0.7162497040509562
H 0.5283809775357957 -1.6485567437354256 0.9587279787189293
H -0.6009185034491972 -0.6462028507588171 1.9107544174088509
H -2.7740238570909606 1.0964359619144575 -1.0731513844296838
O 0.04562571484243391 0.22307843063984073 0.212304265624747
C 1.154153503131251 0.3553768367650876 -0.6515880956292555
H 2.007141832775142 0.7960455791599429 -0.12468294496971606
H 0.844890259270675 1.012765967159503 -1.4608560964005226
H 1.4507461676945252 -0.6165115834185735 -1.0606464929962178
H 1.1414780151537518 -0.26288609110712696 1.90040227865764
