18
## STRUCTURE-ID: 645671c310e225312c7c7c4b ; CHARGE = -1; SPIN = 1
I -2.2971678324035025 -2.035944680921514 1.1279086941081942
C -0.6314290294826586 -0.5973403116588926 -2.381100625964735
H -0.5676573167722195 -1.2916469256687981 -3.2093564206189016
H -0.4876778023092572 0.4260211354408724 -2.7086041689030207
H -1.570871873613799 -0.7039467493341428 -1.8504068060721386
O 2.8260910797989314 2.0576770477972874 -0.0871015583807092
C -0.5856978054081311 -2.735673742291968 2.2062569283797644
H 0.04453484778800319 -3.2708569808245094 1.5080742882393139
H -0.06794464095996205 -1.8725744520621455 2.6052190480525486
H -0.9382385691702491 -3.3769719467178128 3.002466937867449
H 3.332372108283491 1.815380597403627 0.6946884197271407
Rh 0.8004374358316995 1.8588502319497868 0.18050229445943702
I 1.1456888276919857 1.0852269996271318 2.6724869434889262
I 0.9582728278604892 -1.0675630599191452 -1.0047927995407633
O 0.5643447141625196 3.3562975658449696 -2.396527869085241
C 0.639507759339502 2.755583466307465 -1.4131011718144126
O -2.153356575001133 1.8006779784145501 0.6183446455228551
C -1.0112081556356944 1.7968038266132538 0.43504322053431005
