12
## STRUCTURE-ID: 64566b5c2acd864ed5530d74 ; CHARGE = 0; SPIN = 1
O -1.509710436579214 -0.14042443488212358 0.11164886220511223
C -1.2295632965982037 1.184445601599028 0.10269234750874864
H -1.348519696215137 1.612896480872306 1.0879917638674466
H -1.1300979573659118 -1.8255688552398943 3.0035815791434732
H -1.3050402163667922 -1.5238862099709987 2.3076622603666794
H -1.4021013715788821 -0.5041461566300223 -0.7792828443622956
O 3.234062992042679 -1.7412891716276906 -1.045554716344239
C -0.8564073084952043 1.89366495994811 -0.9480835286895469
H -0.741000398482323 1.4521674027642628 -1.9236408410519568
H -0.653724001536434 2.943051782046506 -0.8593081301780636
H 2.7940569509557847 -1.432358070208277 -0.24912974409180016
H 4.148044740219653 -1.918553328671213 -0.8085770083735419
