12
## STRUCTURE-ID: 6456699c6d4f6d64152c50c0 ; CHARGE = 0; SPIN = 1
O -0.6044209984958625 -0.6037368447035755 0.3559556200394475
C -1.7099134923912083 0.03093446000498325 -0.1469898074733634
H -1.6546152600037125 1.1272959402892822 -0.04124145761333719
H -2.6060850936943685 -0.3098765359111227 0.3927206203635995
H -1.8617486096550402 -0.2061838379263989 -1.2131512110665053
H 0.33100775468771115 0.08904138146771891 1.1818135553942895
O 1.2913433214040133 0.47789034658023205 1.2412587992163155
C 1.1632710169719283 -0.08484408067278014 -0.66613919771592
H 1.217767497950868 -1.1530861471984641 -0.7762890722273108
H 2.120951084904122 0.4180620783412333 -0.6586167917365913
H 0.45501657738195517 0.40653628749951093 -1.3110203805353287
H 1.8574262009395934 -0.19203304777061753 1.641699323354709
