17
## STRUCTURE-ID: 6456b6770ccb27014a75cc1a ; CHARGE = -1; SPIN = 1
C -2.344379787289982 1.5325934078943526 0.41874620064332846
O -3.372393511129392 1.910010793683075 0.7603980331431809
Rh -0.6389973812454944 1.1505941762250584 -0.30108496417083774
I -1.8004661910187254 0.8772592605086157 -2.7015117835691798
I -0.4282669249418333 4.200431753726392 -0.29182970949782133
O 1.2197184997018213 1.438500871981746 2.0171957752404936
C 0.44957159334782915 1.2188944119164575 1.1838435444231796
O 1.84171579989189 1.6447404473216434 -1.7509209795228422
C 1.1007168378723586 0.8177461096442219 -1.2326992987377803
H -1.2784960433260888 -3.4028868893739244 -0.04160384104803666
I -1.0757684479177403 -1.7224888798635416 -0.28222732235242204
O 1.4662439709922355 -0.49666154677859586 -1.3244626594896451
C 0.47078963843913885 -2.097461549706848 1.1909335835792791
H 1.1041031271491881 -2.8859021807854432 0.8000005774288309
H -0.01097795947642089 -2.386690925738052 2.1181783716179994
H 1.0312074916856546 -1.177920632241507 1.3110335367736496
H 2.2656792872655833 -0.620758628413659 -1.873989064461393
