21
## STRUCTURE-ID: 6456788843983a4eb241e597 ; CHARGE = -1; SPIN = 1
H -0.8014795108748616 -4.35026332472716 1.4360254414928253
I -1.094121416508264 -3.2054982698445547 2.4769957220880108
O -1.2694616937715797 0.32717434117559874 1.058098773316846
C -0.9055002605299592 1.5935433210767411 -2.810157477753855
H -0.41076643463413415 1.1186914615737382 -3.6469574896863333
H -1.8328887203208617 1.081602166718948 -2.591682320654504
H -1.1087301611457725 2.6297771727487764 -3.047811643918902
H -2.139741548804055 0.7503230040084496 1.2142019729201963
O 1.6213502427450945 1.581170345906875 -0.3378914501239145
C -0.7348913436843247 -1.9465802923371514 -1.2526708017751471
H -0.9528564170749525 -1.3492226218597705 -2.1178966894642994
H -0.25521851941459467 1.5533341172030413 -1.9427249471250372
H -1.544470545069197 -2.354072283322624 -0.6759373973530317
H 2.491556063647593 1.7726075558856047 -0.701664640361156
Rh 1.593182749961477 0.41426336499864586 1.3218725408786274
I 4.245440428495312 0.032997474148942975 1.220453177440994
I 1.029909092415036 -1.5888614793634899 -0.30663373020742757
O -0.44229386264786646 2.080032136154037 2.159840570309911
C -0.25641858534713596 1.033735129145107 1.5514984430165324
O 1.3281000030260508 -0.771329130998571 4.042491728569845
C 1.439300439536951 -0.40342418829106574 2.950550218389756
