12
## STRUCTURE-ID: 6456670dbcc27f6c5d750ef0 ; CHARGE = 0; SPIN = 1
O -1.008283831965309 -0.11370137172656568 -0.13199624706010143
C -1.339017618216553 0.48576173342594214 1.110459571785828
H -1.0934397552261739 -0.1607435409978186 1.952099516152887
H -2.411977785217375 0.6926301982033228 1.0928890464037573
H -0.782681283774646 1.4179061113196523 1.1888553462252214
H -1.4176427370308562 -1.0032215470270551 -0.19886725232489577
O 0.651842126710067 -0.6212841897210785 -0.1255637108472057
C 1.2412314992962266 0.09529006061701646 -1.1568968440853673
H 0.46709168332835843 0.7192052206687323 -1.615908647176331
H 1.6288988802285063 -0.5775646267663975 -1.9258515105160017
H 2.0289539729403017 0.751630148250083 -0.7786805204753182
H 2.0350248489274363 -1.685908196245879 0.5894612519175214
