13
## STRUCTURE-ID: 64568b3c7e63943d63493a70 ; CHARGE = -1; SPIN = 1
I -3.1494924698660705 -1.3639513915761206 0.4401314565107504
C -0.9772121881110669 0.7033855851702278 -1.2904702546221367
H -1.7588215689735753 1.4213983931883514 -1.04478226811497
H -1.2944303469943619 0.09713867921303632 -2.1498517640941004
H -0.05072408495105406 1.2343221194489307 -1.5256340354879674
O 2.0198642526656814 0.24010860991305155 0.0014158121685400196
H 2.954841148517411 -0.04475638608024736 0.08633522786027714
Rh -0.6281549128929185 -0.7200581158863048 0.18727710758601104
I 0.16984169158256995 -3.034450392930139 -0.7810626752591701
O 1.6764903230895065 -0.7927579698819746 1.963758746909829
C 1.2540882020556972 -0.1749682440383904 1.0009907776101028
O -0.07144737781753369 1.7041629102027693 1.8905190410749313
C -0.14484266830430984 0.7304262032566883 1.2213728278578293
