13
## STRUCTURE-ID: 64568c21e3ae8f2cb97cab7a ; CHARGE = -1; SPIN = 1
I -2.3080476792810605 -0.5419723673617426 -0.16633521126835346
O 0.1242869023495877 0.45155807888472776 2.8186759651483047
C 0.17449332292128444 -2.074130843647915 -3.0185871359921785
H -0.8067959233924452 -1.870103031568366 -3.426616700341144
H 0.20258389467919377 -2.959709204179949 -2.397854295969327
H 0.4214200964116542 -0.055497899078318126 3.6052485400437737
Rh -0.04401707662653696 0.8490089398800037 0.05140935586797837
I 0.9997128198073257 -0.433736693035054 -2.067156650739083
I 2.22517777703693 2.2267629253141936 -0.011157682949984987
O -1.5659158427845654 3.294256623621954 0.5858698316476209
C -0.9905261482639188 2.3216164610573085 0.8203086863658892
O 1.0916873498851356 -1.1171504176994682 1.526588511165691
C 0.4759405072574054 -0.09090257218738368 1.679606787020806
