12
## STRUCTURE-ID: 64566b561bc43438266dc171 ; CHARGE = 0; SPIN = 1
O -1.2763651897491137 -0.28192487018148615 -0.09965322104201832
C -2.2146724902295087 0.041141974352859774 0.5749321227630501
H -3.1367339975247392 0.4474147079527095 0.1376839908873946
H 1.1536105972979769 -0.032562838954250266 0.7656093578564973
H -2.2055524072664054 -0.05141548916557611 1.6692828659060914
H -0.9847606378477259 -0.336658121601765 -2.069809370355754
O -0.7933807447997934 -0.3857570594391975 -3.0159425981865278
C 2.1067712432151233 0.2707377093921874 1.1786649603997745
H 2.6609439967461053 0.8263352840725118 0.4335666767062346
H 2.671745268127477 -0.6055309182765063 1.4682926064789017
H 1.9426694260063324 0.8966008757244743 2.04617119132799
H 0.07572493602428426 -0.7883812538759669 -3.088798582741643
