12
## STRUCTURE-ID: 645668f380323339267cab8e ; CHARGE = 0; SPIN = 1
O -0.6420779285043947 0.3609293990225766 1.1819770222078052
C -1.82656128366029 0.15938162972570874 1.2396068723797762
H -2.3061388427488683 -0.6774272425938795 0.7171670005936646
H -2.4978283458797486 0.8012369395682744 1.8182668139727411
H 0.7306106370427318 -0.3404657487082552 0.6874983990024076
H -4.327284867512037 3.014747359620115 -1.4146998354461557
O 1.6488387593584857 -0.6549978163141432 0.3771869187649722
C 1.710028334384884 -0.6387401297101074 -1.0710005276493013
H 0.9759370887631256 -1.3510422227616938 -1.4397196381972355
H 2.703847436126109 -0.9616983504522743 -1.3720162816442854
H 1.4939413270744124 0.3492593291539079 -1.4735432516855005
H 2.336687685555584 -0.061183146550238814 0.7492765077011266
