19
## STRUCTURE-ID: 64567a99621c596edf5eb02e ; CHARGE = 0; SPIN = 1
H -3.2909387940376087 2.2829625476267883 0.5827944627802586
I -2.0118409052066846 1.504875824331535 1.3329603189927417
C -1.491855404136255 1.0212651611496666 -0.7075136797374545
H -0.5068169181901567 0.5719181945362288 -0.7041657142403814
H -2.2344520686538436 0.31982022658575376 -1.0727758251466912
H -1.4904830846720487 1.9514911464125462 -1.2641384245151501
O 1.0802297959064173 1.8685161472669103 0.7948971422650091
C 0.6902205362336006 -3.0354448462371195 -2.9279518636113253
H 0.3069259738692129 -3.2018099450302575 -1.9294098568748743
H 1.6380126946065983 -3.537950885708426 -3.0684938368485635
H -0.028008881306659808 -3.3395275888755473 -3.6771654288295275
H 1.8076755680949588 2.316804960703584 0.31629992540061286
Rh 0.003079256566828051 -0.028267223649271363 2.461660317800416
I -0.4581650016500384 -2.089635525821409 1.07836240653175
I 1.0238963335945803 -0.9351933375026444 -3.1587714160601563
O 2.6461335728384836 0.546795170401025 1.7062357016748655
C 1.4842384326653681 0.8777768602733408 1.5879963959902759
O 0.5409312664216887 1.7729219615660627 4.787586645086587
C 0.2912176270555602 1.1326811519712454 3.861592729341615
