12
## STRUCTURE-ID: 64566730c3c94412686f2ca0 ; CHARGE = 0; SPIN = 1
O -0.8352480962492974 -1.6320909957838825 0.43595258173226026
C -0.8668573396849659 0.26030251637137825 1.0570193165254231
H -0.1637270517758652 0.5306524505929137 1.8241984512537768
H -1.8025710367189545 -0.1069336764629889 1.4560786186933294
H -0.9813930519137826 0.9758082079718774 0.2611468390086969
H -1.3993085189103378 -1.6415383374592882 -0.34654393971677305
O 0.9844740357290191 -0.15434120295411097 0.1250205991904911
C 1.1833136181274932 0.6005634842194624 -1.0008707627075333
H 0.49959366669802596 0.3336432968554905 -1.8255379735679957
H 2.211473708008279 0.45449359028114344 -1.3651861163743897
H 1.0646151805718655 1.6769537981333782 -0.7916596370194463
H 0.10563488611853357 -1.297513131765368 0.17038202298214164
