13
## STRUCTURE-ID: 64568c2f9c610d05792fdd80 ; CHARGE = -1; SPIN = 1
I -1.4784191978451482 -2.633354406286499 -0.3654671066512197
C -1.4552933420095158 0.758309124141188 0.26789000197632573
H -2.3390885911981103 0.39004629451749445 -0.2541808653077482
H -1.2042108332351307 1.743248981261639 -0.13161600894503203
H -1.688405812522529 0.8573688868564434 1.329528955668312
O 1.2366361779754667 1.5350578091499507 -2.368568372275778
Rh 0.17616487360429112 -0.5854943745254172 -0.08421259443896853
I 2.4919800708147815 -2.0894135235357187 -0.512264732775861
I 0.07931239541230245 0.07214067305603739 -2.672526732264969
O 0.3306589968956173 -1.4362539987712162 2.775529108773682
C 0.26823175942035066 -1.0604399915326455 1.7050379571617784
O 2.1928555247881354 1.610760623777171 0.2650854863161758
C 1.389577977899486 0.8380239018915856 0.045764902763301495
