12
## STRUCTURE-ID: 64566bbe28e11f7510462273 ; CHARGE = 0; SPIN = 1
O -0.8689288865282099 -0.8425602479943336 -0.36514217191887466
C -1.925710912763039 -0.3329223445648395 0.39629025234782894
H -1.9707153613874768 0.7624100853859087 0.34780167655220534
H -1.8497694316293423 -0.6339900531523397 1.4482459466511182
H -2.8509495543429937 -0.7374526257497808 -0.017617888763748615
H 1.8289901107072197 1.2567648786181123 -1.225541698171914
O 1.9457039878412432 0.35355717071040244 -0.8865563370831869
C 1.435487412854699 0.2505395395271986 0.38020522432433157
H 1.9245179827393286 -0.5102411347038903 0.9589206912400011
H 0.024587150404939386 -0.4719694502421526 0.054205377098179144
H 1.1026990784351047 1.15506555251616 0.853140896175175
H 1.2040884236685405 -0.24920137035042536 -1.9439519684511104
