13
## STRUCTURE-ID: 645689d6d33af66f35071014 ; CHARGE = -1; SPIN = 1
C -1.5317330700202854 0.6926608320570097 0.12203450438104584
H -2.1481935696272023 -0.20312107611505387 0.23101485114584666
H -1.6334391479161612 1.043416687890495 -0.9084626812245132
H -1.9414148339789028 1.4629116093801149 0.7880765946340057
O 0.26105208876229213 -2.174529738437846 -0.2467062675854569
H 0.332516196937831 -2.906373750858771 -0.8951578351039047
Rh 0.4469518316732368 0.328334856207008 0.7021051031654112
I -0.4452239889236563 -0.831056183753632 2.8706166786156735
I 3.0540846317013095 0.06372974754043781 1.4093611566696311
O 0.8322608989231594 -0.7878456891608653 -1.9079117952947735
C 0.542389721511389 -0.9835078635284741 -0.7529110281575707
O 1.2725524258605962 2.6134898898656305 -1.0023644885357939
C 0.958196815096395 1.6818906789139452 -0.4096947927096015
