15
## STRUCTURE-ID: 64566e0d51ecd512f67ffa74 ; CHARGE = -1; SPIN = 1
Rh -1.4337180994877716 -0.17272973964496915 0.04079138114007222
I -1.6918896984260037 -2.19201345799226 -1.7263033890402817
I -2.6391822335426216 -1.4369847647876437 2.031656627359387
O -2.2203473865706407 2.207288647187403 1.3886898643011434
C -1.3300273275823353 1.3718040061475196 1.2466593662685679
O -0.7117049592191054 2.018098303651139 -1.8281680076804478
C -0.9104045663554132 1.083682991864351 -1.1627787584730205
H 2.5801271092459204 -1.77754045967195 0.9703843019406406
I 1.0488317230766318 -1.0796189674848542 0.7224088489709563
O -0.16691164340648523 1.5220607530047154 1.925722331648749
C 1.8324645215291666 -0.971633491206308 -1.3018411433796575
H 1.1878979869037085 -0.30546083946240943 -1.8653442130892157
H 1.7920591311436451 -1.9715480166571038 -1.7217623678543137
H 2.845359854093901 -0.5892909123894453 -1.2450106346828214
H -0.18255441140259837 2.2938859474418023 2.524895792570201
