12
## STRUCTURE-ID: 645665cfc08e2264336aac6e ; CHARGE = 0; SPIN = 1
O -0.2742553010447492 0.36662475631136565 0.41034817085214303
C -1.4585733439717254 -0.3600962353072953 0.01660581794669979
H -2.0108480688316934 0.24718925644423545 -0.6980076558376568
H -2.058111096167954 -0.5240108941047903 0.9115605224666198
H -1.1956647749090292 -1.3240666439537934 -0.4242253078522945
H 0.3014637849986048 0.5548771692196663 -0.4128439488037808
O 1.3345407691831055 0.8529605286591068 -1.5792868719366642
C 0.7067665492336057 -0.27805841090536143 1.3653003896565992
H 2.1332529650439507 0.39614158614139805 -1.293641169282943
H 0.1296630430305501 -0.39774206103123 2.313476788229451
H 0.8493971950699819 -1.3271254762086937 0.9992932499317371
H 1.5423682783653592 1.7933064247353836 -1.60857998536991
