13
## STRUCTURE-ID: 64568a93119f4e2a274d302d ; CHARGE = -1; SPIN = 1
I -1.0070992429750678 2.5221828746668744 -1.1702402186505678
C -1.2974753368820593 -0.23697817488194758 0.9750673782346043
H -1.0024246354007673 -0.9902649460040351 1.7118888145095936
H -2.0596768522615467 -0.6919524929747121 0.3269938430193865
H -1.805173825784327 0.5712485727708803 1.509137550060541
O 1.3514356531449565 -1.3782680213322982 0.24845781786431756
H 0.9411105091059961 -2.1852313512652635 -0.08153534957047587
Rh 0.2598111119578135 0.25421314540350626 -0.44125588713068226
I -0.738211105178033 -1.2320209363857275 -2.4836061061501655
O 0.6866444714636841 1.336862862263312 2.2985859886591373
C 0.5114139193041052 0.9493326942998844 1.233783553646845
O 2.507973732334339 0.550884717456216 -2.4410547243298715
C 1.6516716011709087 0.5299910559833033 -1.686222660162658
