18
## STRUCTURE-ID: 6456708d23b5fd28b27c7c3a ; CHARGE = -1; SPIN = 1
I -1.3701516527694921 3.0778617945709246 1.5566889062995048
C -2.438967868486409 0.186752434591592 -0.1588954383504099
H -2.566674969238372 0.024751321563692523 0.9144036129259516
H -2.9279119367343283 -0.6306723409124102 -0.6926573799965049
H -2.923907735640169 1.124760983615222 -0.43514888013359193
O -0.16854333479468547 -1.3638182535980443 0.6530882891809693
C 2.9574910077945193 -1.2875495097348642 0.6972097227335452
H 3.507201432361854 -2.140833731255964 0.3199710977637158
H 1.9788760239087066 -1.5736979818638326 1.0758889087496823
H 3.517545779463128 -0.7329898492061374 1.4395279969461372
H -0.5997103592491689 -2.178309905490045 0.37506684972159915
Rh -0.39862712421402163 0.21157355292958577 -0.6103224041195318
I -0.7011665264303545 -1.4260234395812026 -2.7446114245429247
I 2.577842220250344 0.03594787955616993 -0.9595972383221087
O 0.8831538706172829 1.1607041762549721 1.7289188069377277
C -0.022263140155792217 1.2787264963819225 0.9855312933685698
O -0.7197363400778821 2.565769429190409 -2.4229020492942337
C -0.5844493466048718 1.6670469429882733 -1.7221606698675882
