12
## STRUCTURE-ID: 645664f7b53fdf3a0a1aaa1e ; CHARGE = 0; SPIN = 1
O -1.769943974194189 -0.3038043407801621 0.35621896882497084
C -2.1815666897235197 0.3275468307900961 -0.8831424215905672
H -3.259430608666281 0.4660818308992448 -0.8514728870587571
H -1.8984134591965736 -0.2676262309336485 -1.7487489588732248
H -1.6971636969686024 1.2991849619029874 -0.9335149567459078
H -2.189897103991872 -1.1875869463792417 0.4362079654770677
O 0.8217810709482123 -0.5911128482582396 0.0066553392365867195
C 1.91626136360219 -0.3952287659549681 0.46419149508937474
H -0.7564652686502695 -0.39660871810677817 0.3560793179124251
H 2.077818832142818 0.10781690568571424 1.4250351234501577
H 2.829372157605256 -0.7082129093330117 -0.0513561392715454
H 6.107647377092819 1.6495502304679999 1.4238471535494397
