17
## STRUCTURE-ID: 64568eb620e1f35abb2cdf80 ; CHARGE = 0; SPIN = 1
C -1.567949399203692 1.2879423683110598 -0.26785006052297416
H -1.804365123130743 2.3203270830246767 -0.5252762141488267
H -1.6778393585014237 1.1336315840822702 0.8034307683895434
H -2.271519754500999 0.6105320691643648 -0.7858965127812966
O 1.3511796431347929 -3.340676006900837 1.3833041430670312
C 0.21821668617879514 -0.9257473805801002 1.9701841586627247
H 0.5415236149923922 -1.692587348449539 2.6606279872313525
H -0.8475313035527948 -0.7546968819556298 2.0544867447265927
H 0.7895977717911482 -0.016640331941005296 2.1048886382709715
H 1.6124492720428936 -4.109849430962106 0.8786681727046133
Rh 0.06660809709620584 0.4562552040946037 -1.4260352698643646
I -0.022295572805652156 -1.2541311653561351 -3.368634296263584
I 0.6192596755515187 -1.7277785433866033 0.03395193636978393
O 0.7723338912571653 2.305315802389828 0.7821522451337407
C 0.3789797090652392 1.5882032073208951 -0.02243843786440212
O 1.3475270287314445 2.247574175504488 -3.4636048768359826
C 0.4938251218536195 1.8723255956399445 -2.8119591262748216
