21
## STRUCTURE-ID: 645675a7de649e094b1dbe9a ; CHARGE = -1; SPIN = 1
H -1.5699278978371232 -0.13624045987290484 2.536960516586608
I -2.675426920772906 -0.4242893819540831 1.3545467034099874
O -1.0090077493352871 0.9914698259101309 0.672369984388614
C -3.0343148016268175 -0.32947585298224696 -0.7887616903528739
H -3.5353693533425288 0.6015526785301213 -1.0197392596602717
H -3.6472824237977997 -1.18833019081405 -1.0279510661841558
H -2.072500251659959 -0.3813565510442059 -1.2995826936584993
H -1.3351410081689103 1.8856488905211009 0.5568560838021642
O 1.474520910100502 -0.9801123851375576 -3.2061927780265655
C 1.486221138225282 -0.0859012413536888 3.2531384442832065
H 0.7858590456797419 0.6443354290933151 3.6401953600817265
H 2.242407226190113 -0.33225492080575786 3.9873440896581522
H 0.9778048798044733 -0.9798726175481344 2.90587807239477
H 2.2240937232484854 -1.2744951319332942 -3.758890192724361
Rh 0.5944372972109148 0.20958908574678414 -0.7787685509189134
I 0.14840163789349364 -2.2125579732319887 0.14823965515960916
I 2.5031769278816913 0.8124319016793142 1.536205154640175
O 3.151643607007271 -0.3568372636826514 -1.878016782266375
C 1.9296337216257458 -0.42388251461507076 -2.0353758331717704
O 0.7449925180817706 2.3605139973319327 -2.842682480740483
C 0.6157777735918438 1.600064676162943 -1.9557727367008062
