18
## STRUCTURE-ID: 645670b09f663a7fd8224140 ; CHARGE = -1; SPIN = 1
I -3.8859999074920193 0.9041081221596888 -1.281047686516905
C -1.1046041397165995 0.301256309476561 -1.4112508783936186
H -1.063555615239949 1.3580493683897665 -1.2310565369011583
H -1.363838629477243 -0.014125555308272789 -2.405275006273446
H -1.4213379249393572 -0.3129441348070132 -0.5890845943722214
O 2.382088138082065 1.8011980808888757 1.2358640807043129
C 0.8851985628902536 -2.318205559382718 -1.3685566256887638
H -0.05562963192704525 -2.484072928463463 -1.8835320371303905
H 0.855947751254117 -2.6610559491968586 -0.33787904756767134
H 1.7200424358570312 -2.7632026141434594 -1.901608444414518
H 3.161532544292433 1.2885016313549267 1.473521570305004
Rh 0.6334642724105624 0.844273370807249 1.6215253779438088
I 1.882820442562602 -1.2967836231618501 2.451653808308314
I 1.2261482968603865 -0.17558465243821006 -1.3398054362422145
O -0.7559906500978548 3.440788333802309 1.104990699633317
C -0.2149412446739479 2.4351154772384755 1.2609522522031924
O -1.9312740471519647 -0.4049431519555752 2.5008017105796045
C -0.9500706534934732 0.057627474739551 2.099786793823465
