12
## STRUCTURE-ID: 6456691589112115bd248aee ; CHARGE = 0; SPIN = 1
O -1.1827682122863539 0.7489001542583894 -1.8689669401529168
C -0.19424504354092473 -0.37251347384980327 1.3984883453599055
H -0.07590959680885111 -0.006833441421915681 2.4144071940115532
H -0.4576731293641643 -1.4269139378059572 1.4284389277712113
H -0.999644403605 0.17546878187727696 0.9143262193024532
H -1.763654789793128 0.2074486779895248 -2.4105519649965883
O 1.0166564901296253 -0.6440377226723017 -0.7083833415100497
C 1.1022662919272475 -0.17806743894230798 0.619574145648484
H -0.9997239804831244 1.551569820810539 -2.3651754312046425
H 1.3807716315590217 0.8869012470190185 0.6257036002739127
H 1.9155211350093868 -0.7460373756543283 1.0814935612491818
H 0.2584036072562703 -0.19588529160813634 -1.1293543157525043
