12
## STRUCTURE-ID: 645669e2c3578840a0333be8 ; CHARGE = 0; SPIN = 1
O -1.5574199255585888 0.7352127604340146 0.7373017618269379
C -2.0448769248138583 -0.024690038258450158 -0.3429343870169619
H -3.0765514998468606 0.2829406206193084 -0.510037915246519
H -2.0252703728945427 -1.096398302151191 -0.12048917460528917
H -1.468424453041406 0.16077826694693667 -1.255649353007521
H 1.7376955512127483 0.3507641933749659 1.620756714445263
O 1.174061584044924 -0.10015790562487921 0.9805082692374181
C 1.8534777039852233 -0.1695232535006935 -0.25760777245553235
H 2.0414292105696497 0.828459528400651 -0.6635758502703389
H 1.2066406861742731 -0.7163420609506679 -0.9412605537458334
H 2.7999375216687903 -0.7072042464956357 -0.16099279808102981
H -0.6406990815003752 0.45616043720565064 0.9139810589194343
