12
## STRUCTURE-ID: 64566718b79bf0420862319e ; CHARGE = 0; SPIN = 1
O -1.0708215337230156 -0.6684126469883646 -0.6158799961821525
C -1.0146041085486583 -0.26931007782720007 0.7351773529516603
H 0.6360316013776706 1.6989523189695601 -2.374989893697189
H -1.7265280846786846 -0.9107200373201424 1.2633818022827792
H -1.3532545851656772 0.7737873573988704 0.8329614639669305
H -0.3891943559074089 -0.16472118124822752 -1.100075321190869
O 0.9168363211827764 0.8855525925668577 -1.946027514526039
C 0.3789935215661963 -0.4126416421170618 1.3367414238663884
H 0.7060493180436804 -1.44782763441673 1.2803113544466005
H 0.3672120757443988 -0.10030334449724075 2.3768485060546047
H 1.0832526405234235 0.20689426703521557 0.7859150281251591
H 1.466027189585312 0.40875002844445046 -2.5743642060978735
