18
## STRUCTURE-ID: 64567156e450fe7cf0399e34 ; CHARGE = -1; SPIN = 1
I -2.3669371507264048 -1.0049239792461357 -0.8732286508523488
C -1.5494466681039138 1.8818595283936494 1.5445109160844823
H -2.435803895396319 2.275905326318909 2.095256413725471
H -0.943497729888331 2.7902329963779433 1.7976736364879218
H -2.2794986157730346 1.4932641186383262 0.7590283815779622
O 3.005578847635726 -1.1991413919704947 -1.0669898634594446
C -1.002406962427427 0.6684369698789476 2.3149217433479476
H -1.028083112887767 2.0582170888059146 0.5293236448251871
H -0.6660764721389414 0.9316781297360252 3.3138932656915947
H -1.730542409638623 -0.13838481901030164 2.3547864079401117
H 3.9085011069728335 -1.288808192580458 -1.4221886742545435
Rh 0.21845961458940918 -0.9845017972118505 -1.5202421113919113
I 0.22918943716877577 1.649796493670526 -1.9282153498242025
I 0.830210637943325 -0.3038580196855566 1.3854386366146159
O 2.55269107844903 -1.1312440300298559 -3.252350114930589
C 2.077636688114684 -1.0822712868516444 -2.106205977543842
O 0.7495784329270646 -3.8564571874164066 -2.117989427487015
C 0.43044717317993497 -2.759799947817512 -1.8074228765514315
