14
## STRUCTURE-ID: 64567b4ce5043821614d91e8 ; CHARGE = 0; SPIN = 1
H -2.3573496321728005 1.9390698091344556 0.9491003597946344
I -3.8359426094535296 2.226545843205113 0.44326369446768216
C -3.7443678499746986 0.7756198346629006 -1.1501472572073845
H -3.0084668534870067 1.153216748495721 -1.8530159276219262
H -3.4110167817446033 -0.14216818507029697 -0.6738587242685136
H -4.743608548048765 0.7048275370925716 -1.571806489431308
O 3.0345743777239425 -2.9521791916507008 3.0239195231689653
Rh 2.249073792260262 -0.5294319980332398 0.28087357409300456
I -0.1666635879883851 0.12181073763980389 0.5889786051655899
I 1.666609317420632 -1.9057036142982866 2.327395541046811
O 4.929919735644809 -1.801906229666595 0.5824370442865502
C 3.938653478834619 -1.2573310607662493 0.3836113576275982
O 2.860930091546661 1.1479843203666864 -2.1233314962944974
C 2.5876550694388554 0.5196454488881144 -1.2074198048272184
