19
## STRUCTURE-ID: 64568eaa879dac5f96670ffd ; CHARGE = 0; SPIN = 1
H -3.6524347678529843 0.364803028450269 -1.1588957422641522
I -2.814323878251385 1.1165587660073892 -0.04448731526856845
C -1.7357683595168962 -1.9750081949483396 1.6200399558093213
H -2.413719119649474 -1.4598790915986235 2.299834070371988
H -2.340718618850431 -2.48256524084917 0.8588066657898322
H -1.176059740572446 -2.7312118216771615 2.16925521413485
O 1.5762453844740627 2.333337331982548 -2.889962122775984
C 2.0796992380755985 1.8162465144980868 -0.3198499767612505
H 3.117844923816907 1.6586925660723424 -0.5841751805408371
H 1.8662776394153584 1.462609873538448 0.6830887083734086
H 1.8218933978530767 2.859200755901669 -0.4429929868042435
H 1.2710929183426802 2.2798486083082636 -3.797074439709677
Rh -0.5518373314886494 -0.7519493671669765 0.24230284601417734
I -1.1559351390497918 -1.9125215890741936 -2.0902147690495236
I 0.8955086988142659 0.7283592863463251 -1.6975914034662831
O -0.08149385897624423 -0.25190239913659623 3.1521862530535985
C -0.30868648479899913 -0.45570570844485325 2.0452549581865447
O 2.330770965904792 -1.5290515522614159 0.043153825293542676
C 1.271644132312979 -1.0698617659449494 -0.0886785603862689
