12
## STRUCTURE-ID: 64566a57b623844f666cdb4b ; CHARGE = 0; SPIN = 1
O -1.7652980008771921 0.18292947895953357 -0.9262541212521358
C -0.47043043968927944 -0.15475882156677953 -1.0911883848082111
H 0.0040387106727487205 0.594083618173414 -1.735238357852473
H -0.28804320907563885 -1.173241206522005 -1.450888878709252
H -2.3035675370950055 -0.5308653595532751 -0.554884318781997
H -2.91313473632029 0.44806631371256567 4.069052061792492
O 0.21815068315967504 -0.11124766630592721 0.2501380339928551
C 1.6575519049397345 0.018337844265065174 0.17428071432496436
H 2.0412529050634936 -0.005028205216966529 1.1921677890590692
H 1.9526958556467842 0.9427345426542497 -0.32178824441109444
H 2.0364280502317937 -0.8423577567403792 -0.37379192745488776
H -0.16964418665683859 0.6313472181405025 0.7683956341006769
