12
## STRUCTURE-ID: 64566908b94a55315312b0a1 ; CHARGE = 0; SPIN = 1
O -0.003034591392667429 -0.7370784578775169 -3.0139662126195073
C -1.7100212998013957 0.36727634073221455 1.6710791277943604
H -2.3917669462681284 -0.40398351804176164 1.3371901535054098
H -2.220821754774054 1.3212381503321535 1.6792992050320872
H -1.3648835972814113 0.1344779223115406 2.6700356132441847
H -0.8701851230785778 -0.3285918869847202 -3.0729499321132328
O 1.1688122514870527 0.12290205733431903 -0.448676050721904
C 2.2727711036491085 -0.07860254423142107 -0.02357069323906702
H 3.0082350383916956 -0.6839777926655142 -0.5704643033858788
H -0.8645206244822369 0.4161313788167604 0.9974804681639158
H 2.6099839594995666 0.33095574666965527 0.9381134795405396
H 0.3654315840510724 -0.46074739639571155 -2.163570855200917
