12
## STRUCTURE-ID: 6456672e9ba5ac111e224148 ; CHARGE = 0; SPIN = 1
O -1.5845428170216735 -0.6460159348664496 -0.40294985080277873
C -1.6452810717632798 -0.02088276491689678 0.8619249375448569
H -2.1456436387944113 0.9503128442729003 0.8030474052346522
H -0.6176069642961236 0.13167707427189063 1.1881255738570946
H -2.1607911905969557 -0.6494599214147246 1.5939707980400957
H -2.4833663765391636 -0.8064636531309101 -0.7142307407765482
O 2.0708944153648168 -0.17067151112588622 0.429982973321038
C 1.6951388377129273 0.44923065776961074 -0.7834656064021399
H 0.69970056020123 0.12828747782046157 -1.1018708686568457
H 2.417375432354762 0.23861833422610662 -1.578526464979582
H 1.6824576508131706 1.5212227775383682 -0.5928853181907542
H 2.0716651625647122 -1.1258553804444629 0.29687716181089924
