17
## STRUCTURE-ID: 6456b7853a5108539119eb65 ; CHARGE = 1; SPIN = 1
C -2.4181856812654012 -0.087243768274255 0.8513092517522077
O -2.654006513422251 -0.6236763087673006 1.8241143388356058
H -0.333133698947833 -0.2560060222661221 -3.738209697381576
I -0.506569282249332 -1.4691624677900337 -0.7122397025007091
O -1.096662738561073 0.07266499666940267 -3.201492133267231
C -0.7112189549191081 0.4100544898401651 -1.8676308280057492
H 0.2587582862183254 0.9181948223678128 -1.8275739569481888
H -1.523111332417493 0.9534118358878187 -1.3728211745132206
H -1.5779614270308144 0.8195724632236545 -3.639611117076156
H 0.41960552772362286 2.8971763267146162 0.2917537862589087
Rh 1.2787732860860717 -0.22239961663311353 1.569189243545189
I -0.21838689004027606 2.0212246326543744 1.4775919139491236
I 2.8888711418435418 0.6204128267682337 -0.3155187139941664
O 3.4215872743338096 -2.2751928340866194 1.9195215375252495
C 2.58319843401191 -1.5062580274838187 1.794068956610419
O -0.16423585964419285 -1.3713156764660264 3.9288533487649895
C 0.35267842828047535 -0.9014576723587413 3.0186949464453567
