12
## STRUCTURE-ID: 64566834e9871b763573b9ee ; CHARGE = 0; SPIN = 1
O -2.457848073954821 0.31496224784589233 0.9063330584508072
C -2.6356663569320933 -0.28116756113077096 2.415328442340009
H -2.84619437284402 -1.3502307900790278 2.1838749940084736
H -3.3684949242233815 0.29545822429790203 0.5572562194182672
H -1.574386721012831 -0.2891301874453378 2.7533435414342393
H -2.215960497233057 1.2460532084519045 1.0677393632574816
O 3.0694106554263003 -0.9032537235367585 -1.8274232938346262
C 2.4699267523498674 0.3190664958601067 -1.4564731349904714
H 1.4352885036028038 0.17371994704126534 -1.1317473434789331
H 2.495202538166941 1.0424077282146615 -2.2769826821077777
H 3.050355364277777 0.7101726378730701 -0.6227548580926443
H 2.578367132376508 -1.2780582273929164 -2.568494306404803
