12
## STRUCTURE-ID: 645664c4ebe5c50f5d4dd536 ; CHARGE = 0; SPIN = 1
O -1.1042144788124781 0.018496430714379945 0.42735480924834657
C -1.7030280931783557 2.171025196086668e-05 -0.8666570848754362
H -1.6510579072323759 0.9866466889857093 -1.327465345478412
H -2.742597756529294 -0.32096119642691767 -0.8015367803199681
H -1.148796660357115 -0.7122051992814888 -1.4724823036466101
H -1.6108178389890822 0.6152390182866375 1.0019756626257588
O 1.2981217138032133 1.0537639251244577 1.349114754565059
C 1.0861860624777104 0.23706468372139303 0.5557401822913149
H -0.09552509415581789 -1.2037379226032963 1.0773233662945798
H 0.8462985128735558 -0.986517894712991 0.9968111267557339
H 1.214425537194916 0.1645309603262686 -0.5184985760634119
H 5.611006002905121 0.14765879561387688 -0.4216798113969459
