19
## STRUCTURE-ID: 64568fa7bae9593017233624 ; CHARGE = 0; SPIN = 1
H -0.6596178274155818 -2.157232578378884 1.5187357441694824
I -2.176217658233261 1.3336051303037764 0.05655584492482698
C -3.4999984662111867 -0.12581969269345838 -0.8304846129233231
H -3.551917874038639 -0.9801682605996476 -0.1658692155650494
H -4.469162659823817 0.3431989097955639 -0.9460971143009226
H -3.085981834099611 -0.4033260784941567 -1.7933059857077487
O 3.237691443055365 -0.17397641309358855 -1.3684696247730137
C 0.9305253424191201 0.3281640302250661 3.1282613922406592
H 1.3464087699586225 -0.6283444968694959 2.8325670825602516
H -0.1533437352336944 0.31728296974298836 3.1309326078451676
H 1.3244495922548027 0.6531483313869474 4.0833017245029115
H 3.684199822113909 0.327438546461364 -0.6639121663853854
Rh 0.29410360592418405 0.5333961741745573 -0.4908370522203355
I 1.5551635538486013 1.7959862989623474 1.639271123674577
I -0.06652509820434498 -2.149413763117824 0.03060298176107413
O 0.547695691592927 -0.5401394775291939 -3.507582691775006
C 1.197377083824662 0.05305423579894714 -2.681774331973876
O 1.6028116328080986 1.3172267160085935 -2.4961132786085547
C 1.9423386154597628 0.15591941791604894 -1.475782427445821
