21
## STRUCTURE-ID: 64567c0d429ba31af164e480 ; CHARGE = -2; SPIN = 1
O 0.36454360395787194 1.6093166492344342 0.534745675874883
C -0.904446878918358 -2.173554861379313 0.7603223975027885
H -0.8089409158825795 -2.9830118545653828 1.473101222399599
H 0.063256244380131 -1.6206829267285154 0.6733467815938683
H -1.226129622716249 -2.5374543614680047 -0.20925094177077325
H 0.5674598031732611 2.5660005753773163 0.6324162793573258
Rh -1.7854023843464994 1.6133837555275263 -0.27530731317251933
I -2.4409793747294906 3.3160607633564743 1.5920673529558358
I -2.393792481140933 -0.8243327567287392 1.4847909661240644
O -0.6555167706804993 0.9460038231264896 -2.96455034726687
C -1.0921977008333839 1.0630360927118514 -1.911605832232757
O -4.495367774536287 1.952380180858998 -1.43600403154471
C -3.444875854921525 1.8089221038682914 -1.004512642517201
O 2.9581499450307214 -2.6298778984480173 0.5505964379859156
H 3.000567973117626 -3.234259101797574 -0.19657895089605007
Rh 2.0262920437502725 -0.7911075272763989 0.003504377500330234
I 1.407074469568483 -1.7458885972046045 -2.331730937582789
O 2.9098423278218877 0.716814048612574 2.4076370098280173
C 2.5592439398407687 0.020437956084980315 1.5351257221817225
O 1.985384819430849 1.8947883439695496 -0.9896968907164907
C 1.4058345886339667 1.0330255928680796 -0.32841633560419
