12
## STRUCTURE-ID: 64566daad288ad2467462272 ; CHARGE = -1; SPIN = 1
Rh -1.8965865318524893 -0.4599064699840322 -0.021108171461069563
I -0.2120816108046945 -0.9747809032838487 -1.9285942138178982
I -0.2288459908355032 -1.049272173540986 1.881470667033209
O -3.8748256370165035 0.12010186595140847 2.136134157452398
C -3.1168424427115853 -0.09852129429785395 1.2969141838581617
O -3.8731887293945038 0.23905799242421377 -2.1452896957909293
C -3.111902118104613 -0.0296632150351347 -1.3235954952412503
I 2.9501406489435045 2.336715921181928 0.04815206694862104
C 3.3026178993259827 0.22469658362635578 0.017750282443142282
H 4.372135070412884 0.0689093257959892 0.011153099714839894
H 2.841232515025422 -0.17569990306895697 -0.8760573533827999
H 2.8481469270121136 -0.20163772976912167 0.9030704722436073
