17
## STRUCTURE-ID: 64568a99e674214643351d64 ; CHARGE = 0; SPIN = 1
C -1.875421907686785 -0.12893502827754905 -1.8863555080595824
H -1.6172512247576736 0.7441469292436989 -2.4888478633982776
H -1.60667823200254 -1.0564841251908355 -2.405013346856403
H -2.939876621045993 -0.12315226230907067 -1.6526224233008806
O 0.6782902747746542 0.2779750247824231 1.955517307230655
C 2.5266256357348897 -1.293491398830744 -0.659133819412247
H 2.7692664237760787 -1.9285140452720881 -1.5034123662568892
H 1.8248174436407778 -1.7824256552389575 0.013263573125127544
H 3.4198230352230223 -0.9692318436681329 -0.13750937620771117
H 1.180176578140338 0.07053482585998165 2.7714923438457086
Rh -0.7415164167275929 -0.07563691117851704 -0.18935180369181168
I -2.3164438333380915 -1.620070705319193 1.1317655544773393
I 1.5429795297621964 0.48986863211132375 -1.4451295554936965
O -0.20016066218780065 2.014517599849665 3.073281803141759
C -0.11549124834200436 1.3346150074906473 2.0854551544407114
O -1.5940749160370482 2.501213986150226 0.523996809110741
C -0.9350638589264119 1.5450699697970964 0.8126035173054651
