18
## STRUCTURE-ID: 645689257935b07d123288a4 ; CHARGE = -1; SPIN = 1
I -1.4759180480443164 0.033475006250475385 -1.7883396591964045
C -3.3370583706490433 -0.12121730406924855 -0.695552738653194
H -3.7336740791498064 0.8816996651524738 -0.5903132768262819
H -3.102393749223416 -0.5362039154251684 0.27805609630591904
H -3.995501506807408 -0.7660084685791899 -1.2625801538563943
O 3.145588020970137 2.513262526886708 -0.5857686107728954
C 1.669126262286973 -1.6167120845602154 -0.5109570615822914
H 1.629961961514707 -1.0537330047910356 -1.4442239005220885
H 0.8163608507985438 -2.2935969942173045 -0.4856722877220591
H 2.5987192524715454 -2.1857759150415874 -0.47431317773920745
H 3.286365796917453 3.200545671185178 -1.2381608026739424
Rh 0.030019375085606825 0.5129600462456995 0.8807405288654916
I -1.5720545944024622 2.6905383008962467 1.226745718471999
I 1.2533250322623373 2.6681494844590405 0.12600798457105364
O 2.57844820587365 -0.5789654110372238 1.4275818076696993
C 1.6073827915923486 -0.6546554557795456 0.6762637893184364
O -0.8139126503505669 -1.8082041735594394 2.5650735636158166
C -0.5847845511462064 -0.8855579740160032 1.8954121807263207
