16
## STRUCTURE-ID: 6456793e96bdbb74e0374198 ; CHARGE = -1; SPIN = 1
H -3.705532622367955 0.3156577319033945 1.8699489257321644
I -2.068590489322594 0.03823286263998165 1.975368045414577
O -0.27719303011288243 1.7161375816495659 0.23012999934445863
C -2.152383477043344 -0.9119712241651525 0.06720643595478895
H -2.484949969089585 -1.9321422280766447 0.21834479768893675
H -1.1313427158726208 -0.8856842072744662 -0.3301136723587592
H -2.819546657558515 -0.3357095832038222 -0.562297502477337
H -0.41975585042685626 2.659690722957713 0.45148344019558917
O 2.6268961720181174 -2.3300507807975905 -0.7750307483341865
Rh 1.6242916797537057 -0.36625114873855175 -0.34438946608727894
I 0.9825674039117922 -1.1755081080851126 2.0723758621241593
I 4.245910361338319 -1.4688604150662428 -0.060136900639334495
O 1.2460415169769787 0.6809541984689261 -3.119182389556962
C 1.4254094702568432 0.19654753779655443 -2.0670155855681434
O 1.8492588196658768 2.3639646983351796 0.2798764813086473
C 1.058919387872696 1.4349923616562683 0.093432277258679
