14
## STRUCTURE-ID: 64567b0591fe9854b34609e3 ; CHARGE = 0; SPIN = 1
H -3.8905506466458863 -0.5191733573031213 -1.352227494724395
I -3.8602690472440067 0.3554166533542426 -0.029944745083545225
C -1.283078799425789 0.2644476835487635 -0.06578231207688053
H -1.1891840470122461 1.00515580160035 0.7179905496870062
H -1.3104856358566785 -0.7885413616721298 0.19207324844636514
H -1.2947202129305626 0.5828095824707392 -1.0998715066663132
O 2.194830848477263 -2.251395150536037 2.670285626898796
Rh 1.2373867537215963 -0.11210325951978498 -0.237215966300313
I 0.7241159476314007 -1.5510751194788017 -2.329757446484445
I 1.6076906073964208 -2.4024374976900433 0.9151624653249412
O 2.1791506064440287 0.9809939225131695 2.3802276236277864
C 1.7688891059063747 0.6433021270631046 1.3732120837480073
O 1.6938163977307799 2.3484198761474855 -1.8838540459698083
C 1.4224081218072868 1.4441800995020613 -1.250298080427216
