17
## STRUCTURE-ID: 64568a218b40c0308d2fdd7d ; CHARGE = 0; SPIN = 1
C -1.8515077797937507 -0.8877301573832775 1.479237677644342
H -2.0035142884985615 -0.5132848276779237 2.490185324121356
H -2.388353774588422 -0.19832481295393017 0.8167748107042997
H -2.3020224284095296 -1.8783203754251554 1.386411917977561
O 0.6092180921561485 1.8761750589284105 0.1741417419571086
C 0.925728928664332 0.4402720076976389 -3.258761695479049
H 1.4873299053396278 -0.46642654317756177 -3.453518645803919
H 1.5072222984441448 1.1355074506039693 -2.664343191589456
H 0.5630968824488237 0.8938734025399561 -4.17330534992097
H 0.813542515426873 2.8004111295263634 0.4324913819491571
Rh 0.055562040159291046 -0.728429208275283 0.43110653720487907
I 2.5538484130057184 -1.1656763523726987 -0.2802900652945955
I -0.8061139969997878 -0.10210282747557775 -2.077462937333957
O 0.4297510826231499 1.323862872033726 2.348813493879108
C 0.405915379451694 1.058422108046699 1.1795451185131398
O 0.0457140183635225 -2.085759740681172 3.077879593228347
C -0.045417287793279346 -1.5024691839541702 2.0910942882426635
