18
## STRUCTURE-ID: 64566f2973ab124414293420 ; CHARGE = -1; SPIN = 1
I -1.9429259421914562 -0.46160041687004494 -1.4973007963784841
C -2.2712889009448953 1.417021996065376 0.175334703449085
H -3.331208164268734 1.2948084745379034 0.007062234874045837
H -2.0097031970294386 2.459626435149827 0.005406856643157485
H -1.9992694417688537 1.0411398572713946 1.1565604807368841
O 0.9531291341283142 -2.458174767249323 2.630385126180633
C 0.8285208592768816 -2.410362266250308 -0.04501415938730967
H -0.08000454540448225 -2.980919754843239 0.0961808298378734
H 1.677548554267148 -2.987980145726187 0.2942710580571735
H 0.9421587308697252 -2.1031586142317744 -1.0791811669468814
H 0.9111290328122502 -2.16659613599893 3.5403294452060368
Rh 0.13252925431978815 1.1534784278430008 -0.6874355815083973
I 0.7359501649293217 2.7115131480883923 1.6015136080461059
I 0.7308104796362285 -0.687715389999222 1.183690210998102
O 2.884230259918211 0.03729520141440716 -1.3422215627362755
C 1.8142295757631033 0.43852147165949606 -1.1630952504150405
O 0.05649829675575928 3.2346649743683957 -2.864623381650675
C -0.032334151068878325 2.4684375047708182 -2.0118626550060186
