12
## STRUCTURE-ID: 64566b400e2943423815987b ; CHARGE = 0; SPIN = 1
O -1.5483393400145826 0.5270035007522483 1.3614558789340971
C -0.5888511482563488 -0.3710599289849618 1.208016370703659
H -0.01606522432475793 -0.49565845654207374 2.1287741165806184
H -0.836484481422729 -1.3041886787793047 0.6982887020689356
H -2.2410038318841004 0.5028364590247894 0.6807044875898713
H -2.2800963390325184 -0.9479353629794002 -3.3431234119096187
O 1.9708201175721263 -0.3473250228135172 -0.7562453855522515
C 1.2125322738711368 0.6287387905969626 -0.2837874291422925
H 0.29359219299033174 0.11407572029993299 0.4295226527161056
H 0.6296392189891022 1.2153543489185883 -0.9966046589822076
H 1.7511334404819001 1.2218704903348083 0.45736143771541055
H 1.6531231210304504 -0.7437118598280662 -1.5843627607223407
