18
## STRUCTURE-ID: 6456704c6428911d17248ada ; CHARGE = -1; SPIN = 1
I -1.6432152866173024 -3.152813852957993 -1.051045125115969
C -1.0898988891905113 1.903170711090123 2.0834543621930846
H -0.972325110697036 1.3938851577782867 3.044184225552317
H -2.118161193317396 2.2803309815040183 2.0456782171093644
H -0.4385532019683962 2.7861092541801122 2.1069321638696348
O 1.77427300831653 0.10525279074230566 -1.9613363794089826
C 1.6007515229052194 -2.47460749205651 -1.0809341088718851
H 1.534751656321462 -3.2390749894020874 -1.8492953878208431
H 1.407205984092573 -2.8954153180216755 -0.09952633840386188
H 2.5488835896792 -1.9530760278363894 -1.1158017327088081
H 1.5204017674286723 0.9172042244839319 -2.3993240655671326
Rh -0.6470119696401209 0.6813268758976044 0.38027799084413644
I -1.0383602623544013 2.4273630034275526 -1.8792421318168095
I 0.13372039597566077 -0.9674051115717973 -1.4985471282739142
O -3.492718681184741 -0.1917758343490487 0.7907042249628098
C -2.4058973257490526 0.11998354977145416 0.5711988116601958
O 2.2129989826385725 1.2163954782834714 1.1180927127034779
C 1.113155013361069 1.0431465990366606 0.7945296890931667
