15
## STRUCTURE-ID: 645688763189a26aa061a6e0 ; CHARGE = -1; SPIN = 1
Rh -1.4279149267475848 0.08916710721250795 0.32815043338895783
I -0.8898382150458934 1.888051336154458 -1.6223603950538086
I -1.6153132516710915 1.4091232629397175 2.6914042499227055
O -4.342704711787042 -0.5200425511980592 -0.2345764760008585
C -3.199108344284628 -0.3468359668760668 -0.017133180547845427
O -2.121944360686093 -2.792307981449329 -0.22427119452932529
C -2.024993922891368 -1.6402148532713825 -0.028151780937500377
H 1.1103201525518658 -1.904605561224911 0.0008720709447906244
I 1.1764783221328903 -0.3129921750018334 0.6973406223609919
O 1.7022324245838838 1.6687478840285275 1.1385145157074248
C 2.4279146237018594 0.07025172724521998 -0.9845757314448587
H 1.8219371756625846 -0.04152526990073705 -1.8768218203330929
H 3.236276669268086 -0.6502383461840966 -0.9573078091323746
H 2.781832974359943 1.087101102641468 -0.8809886808956435
H 1.364825390852549 1.9963202848844654 1.9699051765503428
