13
## STRUCTURE-ID: 64568c78046ba50542390823 ; CHARGE = -1; SPIN = 1
I -3.7676926707294367 0.3213246369006024 2.7849167549481897
C -1.143317539490514 0.7989149179704746 -0.5645955463552392
H -1.348543422676634 1.80939214784282 -0.1780891675946766
H -0.7747077739506044 0.8885547051790526 -1.5910153555103999
H -2.0783217961270632 0.2305963062207973 -0.5793161117237228
O 1.483801012548646 -0.17019909677672992 -2.573207899282223
Rh 0.31859414696240407 -0.009638545454215814 0.6455495109600787
I 1.951424958693496 -0.6705413539351025 2.6649145880458245
I -1.0275712025479202 -0.17993593461465146 2.774218775437786
O 2.4314851498600345 0.7460892849828539 -0.7488822093819175
C 1.7304398307025248 -0.04048724406012753 -1.385100094889991
O 1.157196149882792 -2.4445707816038813 -0.713649163488666
C 1.0672131568722558 -1.2794990426519048 -0.5357440811650394
