8
## STRUCTURE-ID: 64566462362fc2175a4609e5 ; CHARGE = 0; SPIN = 1
H -1.5689880832159149 -0.14899445268430075 -0.7399837843472492
I -3.1032487762656866 -0.5597155109654206 -0.7303188762976252
O 0.17706240043419919 0.3646571252966616 -0.6227303225599646
C 0.8876410502661763 -0.12792409975003613 0.4986719142237533
H 1.9655141815163584 -0.04573857231570983 0.345795032020677
H 0.6229347728481099 -1.1786035522744434 0.6049378546066729
H 0.6062539386617758 0.40611999538474347 1.4099247371773096
H 0.4128305157549802 1.2901990673085058 -0.7662965548235773
