12
## STRUCTURE-ID: 64566a93fd873427271fea78 ; CHARGE = 0; SPIN = 1
O -1.2960217348382352 0.023840084024536523 -0.8149065997646581
C -1.7779804161179449 -0.3850162262598585 0.4498681785807223
H -2.6981819404147807 -0.9665543664458912 0.35507527593023
H -1.9559055465616815 0.4736878234132517 1.1031543320150836
H -1.0070030937670562 -1.0143618410697233 0.8905174432859483
H -1.974144880337514 0.5529827337105769 -1.2522912694896895
O 1.3892511630243949 1.0216204844162984 -0.735229370503777
C 2.0662882645567846 0.07500558779417928 0.05683600026283246
H 3.09672136500266 0.4159212256120924 0.1501481625332975
H 2.0601528398891213 -0.9155315802495233 -0.40899097746040924
H 1.6257381279369607 0.0018460316179598364 1.0570476738108965
H 0.47108585162730043 0.7165600434361024 -0.8512288492004871
