21
## STRUCTURE-ID: 645674b92e00396b857c7c4e ; CHARGE = -1; SPIN = 1
H -2.50538434381621 -2.316840481782818 -0.6602288461938486
I -2.5879735584560377 -0.6157181825489324 -0.4993478940645133
O -2.2867026561083157 -1.4310140404948883 1.3851570135566023
C -2.570515002016832 1.265473501058648 0.6403990354251083
H -3.288145161882396 1.1824363751268203 1.4463225442226622
H -2.859287550646634 2.0456807425852794 -0.05154615854110381
H -1.5843356187652051 1.4591076240041099 1.0419079784538148
H -1.656265268901175 -0.8932442353549152 1.858405015448863
O 0.0801153236191931 -1.0593020758437686 -0.3342879146433106
C 0.3336817012495678 1.9822496161533252 -1.6278319882326138
H -0.27106634256233136 1.1369424335027942 -1.3156520528904998
H 0.016787149494625793 2.3588229380533394 -2.5911257021385707
H 0.34107052854709674 2.756939006682771 -0.8703721273917978
H -0.0005557391333396305 -1.7449004548861824 -1.0018888225157472
Rh 2.0131003612232155 -0.8749436372436479 0.4747149564706681
I 1.2102142599949213 1.0050611445940925 2.122949747867802
I 2.357779442910498 1.2629955608403987 -1.8364939889072804
O 2.545399342711954 -3.469615257701004 -0.9078740515876886
C 2.39687274936416 -2.4466086328236623 -0.3941201306510709
O 4.662231131381627 -0.8004399615651582 1.8412554420628384
C 3.6529792517918915 -0.8030819823564035 1.2796579442497897
