21
## STRUCTURE-ID: 6456761e7044c447585ede14 ; CHARGE = -1; SPIN = 1
H -2.8438009671395794 1.849226475223848 1.3993402356831708
I -1.7566967452731808 0.8889818146880072 0.6082989416899814
O -1.1066863836614882 0.6911142860383052 2.389952358924623
C -3.8319598753655364 2.7185541959369495 -0.9483194100379195
H -4.32798771434011 2.70838653985825 -1.9145966071545555
H -4.575723562682589 2.673303472185506 -0.160834445165379
H -3.210384046769247 1.7838267893617676 -0.9105507353364052
H -0.3611285470426026 0.09722586847003442 2.3564736547379703
O 4.842348098156748 -4.693139949971032 0.7452122578811294
C -2.950500915582951 3.942339578645541 -0.8097810835922723
H -3.5631971869008274 4.839177192101036 -0.7905142292412449
H -2.3675236118595264 3.90216417671227 0.106238658205893
H -2.262859343754175 4.015718095314958 -1.6452466235153782
H 5.722904628630281 -5.069459841358316 0.55220215814992
Rh 2.938985894992548 -2.607486315659666 0.22136644013474996
I 3.9277687353167177 -1.2376024814458395 2.1958301252358
I 0.7645871087790358 -1.2519085426293528 0.15178806782893145
O 2.305333976536794 -4.695322559655382 -1.801780012625103
C 2.4642035903699613 -3.8282424130819863 -1.0205305552680612
O 5.552727175024694 -3.1875484374822936 -0.7430411638288832
C 4.6395896925649955 -3.539307943252615 0.018491967293070826
