18
## STRUCTURE-ID: 64566f3929860147543eadca ; CHARGE = -1; SPIN = 1
I -2.392680863654903 -0.4156706233597918 -0.651304733384655
C -0.1364737009748356 0.6739319042823396 2.1176729235843337
H -1.1593084801905755 1.0338955051001462 2.136134920001415
H -0.11882067562678457 -0.4061803762318306 2.0496300801016765
H 0.4475850473745551 1.0269695691423795 2.958875020342514
O 1.0595960572188539 -0.9305554214509953 -0.08922888636950185
C 0.4110103552145561 3.4408608861112793 1.0912734778142585
H 0.7973883778087266 4.1363335754501245 0.35500906788204084
H 0.9248864001674963 3.5660625206110312 2.03718383326307
H -0.6591885781456516 3.5770013373364016 1.2023623364138791
H 2.005291549622149 -1.0683206221885788 -0.19937969914951514
Rh -0.21537998960248572 -1.8773253451596972 -1.6036412058669622
I 0.6640845095101833 -0.015496563890180667 -3.443617649918344
I 0.7571613692279725 1.418158837530749 0.3427650905038874
O 0.42888438699340786 -4.683912008466172 -0.7409542194807518
C 0.2594489666022998 -3.563210169071359 -1.002141817019682
O -1.8578489138185537 -3.2152661419912696 -3.687635798355786
C -1.2156358177263162 -2.69727686375467 -2.8730027403618457
