17
## STRUCTURE-ID: 64568d35ed657757fd1688e4 ; CHARGE = 0; SPIN = 1
C -1.4748602749853401 -1.4063243507847396 -0.04202633522303222
H -2.0385473511351755 -0.6090081767718477 0.4382397522454553
H -1.6198234750958314 -1.3607580541197617 -1.1284339212467327
H -1.8315723685064593 -2.374974368888872 0.33616515073268977
O 1.2428472670205375 2.4017686134510057 -2.4181111721528543
C -0.5895757137199669 1.9066556255073017 -0.4411659967485529
H -0.3518689777629502 2.9190448446544774 -0.7506678538382122
H -0.5875499626474726 1.8088445366564745 0.6375843737281006
H -1.5090251558908545 1.5531806779759656 -0.8922243402365326
H 1.9099342250063809 2.261767398727004 -3.098028679196836
Rh 0.558185098389082 -1.4665558417229294 0.2751536120970628
I 2.4754570033831635 -2.7386992732460333 -0.857818452587503
I 1.0109041458077006 0.7418506142013693 -1.2091362631143712
O 1.0022078127519949 0.8401764198074223 2.0881239443113184
C 0.7401585608772832 -0.3116568934193181 1.8458689056833588
O 0.4356237486149237 -2.5585328183930747 2.9543505456352888
C 0.6275054178929692 -1.6067789536345702 2.262126729911261
