12
## STRUCTURE-ID: 645667ad13facb7a9a32bae8 ; CHARGE = 0; SPIN = 1
O -0.21807413350454202 1.205664378112173 -1.4084152885847723
C -1.5230287917994496 0.6768567124861538 -1.3975436332034206
H -1.9503451936753857 0.6878237111075226 -0.38906467479610884
H -1.5431086328613024 -0.34857115668627964 -1.7796104293656956
H -2.129402761131794 1.309620488778535 -2.04474873242583
H 2.027672390946279 -1.0499567078668304 0.026435229410448045
O 1.1520235458385624 -0.6999918767473293 0.23002632031669992
C 1.0035837809792247 -0.6219521717095337 1.6332224590634954
H 1.7448027169950993 0.04915556968687061 2.0754572553415667
H 1.0854079851729443 -1.6092866688409797 2.095088633538456
H 0.008218220663110308 -0.22459374520375106 1.822995068452643
H 0.34225087237724927 0.6252314668834472 -0.8638422077474844
