13
## STRUCTURE-ID: 64568c2561a08402490876ed ; CHARGE = -1; SPIN = 1
I 1.5366098714944587 1.9286636400627446 -1.6507563485323105
C -1.3240149893532196 0.12642451701117915 -0.08293827695142535
H -1.534246060696111 0.4253707122000119 -1.1118621078398456
H -1.8945491902919949 0.7427661537577903 0.6090072741072382
H -1.696384847631409 -0.908233588452287 0.019018719685678954
O -1.0416047030782272 -1.1280774354023753 -2.909325065696925
Rh 0.7160641165466871 -0.5331585426703866 0.27755968397856684
I 2.932047024745046 -1.9251116168449758 0.4727607127419813
I 0.48542514570110995 -1.769459339334363 -2.0429731666640034
O -0.03319616951986914 2.2500892312206004 0.8658562129594508
C 0.2685266871305347 1.333420125888758 0.18948917395132114
O 0.8039600794947467 -0.24700978774974763 3.251787662360713
C 0.7813630354583254 -0.29568406968669075 2.1123755258998433
