12
## STRUCTURE-ID: 64566825d8c3ef08cf56ede6 ; CHARGE = 0; SPIN = 1
O -1.7023599274728567 -0.8235279010693555 -0.9469450285280016
C -0.7101671071803839 -0.7836212129590546 0.022802567184419722
H -0.6063630368163493 -1.78675469969577 0.44519144873824984
H -0.902808501769004 -0.08747286894535138 0.8403029474301449
H 0.8344094856855575 1.8921311659242452 2.0755661546344832
H -2.0398159711279686 0.06258381136770264 -1.1290486153369153
O 1.5993078532997156 0.33159701284827525 0.32889733895723955
C 0.8038311052357083 -0.011260394622635738 -0.5917139761963175
H 1.3954808305072925 -0.6853408113854353 -1.510367189377956
H 0.32038688187744185 0.7299576561429606 -1.2496383798148372
H 0.6104940880778205 -1.2022399825298777 -0.8051786334872316
H 0.39760429968299055 2.3639482249242447 2.5201313657966464
