12
## STRUCTURE-ID: 645666f5721c93639a5eb02b ; CHARGE = 0; SPIN = 1
O -0.7632874782025056 -1.6554380648290363 -0.5109931395672427
C -0.6846299119358891 -0.650315911502303 0.3794512882624246
H -1.620882011099555 -0.11776930834150354 0.5736330743911122
H -0.23813491776498616 -1.0366478537447725 1.3013818781676114
H -3.235186754208927 3.8418714798453024 0.6110938866246604
H -1.336792187712624 -1.446433937239371 -1.2638661329708718
O 0.24232618133248723 0.40220462785627387 -0.18169654820161563
C 1.616017799646739 -0.05646283290602559 -0.2803652160951464
H 1.5969212046084096 -1.007319516696943 -0.811345935818681
H 2.0631075531952554 -0.1862865263086766 0.7044157392615845
H 2.1659717859019216 0.6803977602751452 -0.8608212883952983
H 0.19456873623968107 1.2322000835919131 0.3391123943414529
