18
## STRUCTURE-ID: 6456714882803c7e81351d70 ; CHARGE = -1; SPIN = 1
I -2.9053230356879904 -2.156177298214411 -0.8033423653968264
C -3.2291158482980875 -0.1254333180164048 0.7196583327564381
H -4.272379452332369 -0.39963274943620053 0.7386203454180584
H -3.1125244852219174 0.8431593732644321 0.24245876947035216
H -2.807354074009507 -0.20163557117132538 1.7171923833182798
O -1.37756187657202 0.7404341057903697 -1.6972907515914384
C 3.6215973297878685 0.8875002679381235 -0.04891791915819349
H 3.06799320956731 1.5065361047141275 0.6463622063403427
H 3.2045117691489695 0.9661251224012893 -1.045528628413692
H 4.673282796466457 1.1397740331613762 -0.04657623895807518
H -0.9512364140300582 1.6018674075559551 -1.7247510470942857
Rh -0.8254445952057328 -0.49383021022314993 -0.1513182668037216
I -0.11066856488075524 1.6700952010783763 1.425082374433964
I 3.4292482164394475 -1.153729704278683 0.5853426656455024
O 1.2389922319123297 -0.24275337155335197 -2.320697562618547
C 0.5733880594839061 -0.6839509934155366 -1.4914437747233524
O 0.06818260321766693 -2.283143308787355 2.0612818064263596
C -0.2855878697855323 -1.6152050908075664 1.193867670948779
