17
## STRUCTURE-ID: 64568b76e3de4d48c13288aa ; CHARGE = 0; SPIN = 1
C -2.9824718357088487 -0.12390727824750884 -1.1179235554576266
H -3.3071635721479877 0.4202710717987052 -2.007445286033056
H -3.6193490590838966 -1.000448208587512 -0.9967476748580824
H -3.065510438812733 0.534102625865621 -0.25651717816334546
O -1.1778815738996158 -1.259654008375884 1.273623030998343
C 3.4859265279319223 1.1060847755428223 0.6773270320482194
H 3.0584782492591303 0.5037574923026567 1.4712521147010549
H 3.0722991155482826 2.1080759533539952 0.6765073889780269
H 4.567277461072611 1.121186588422232 0.7227111092505467
H -1.23027922561678 -1.7202679497803803 2.13795986328937
Rh 0.1653364478464984 -0.009420235804003184 -0.7946132173137408
I 2.92665488572557 0.16392820973896077 -1.1867976220595924
I -0.27335948330692394 2.2959180273861373 0.29603772788697913
O -1.122080086222278 -1.4734976871447847 -1.9673183003764296
C -1.599465118223916 -0.5622498712791829 -1.3319303290611981
O 1.0639816771022113 -1.170965855918338 1.4947897196228466
C 0.03760602853675707 -0.9329136492735393 0.9090851765476847
