18
## STRUCTURE-ID: 64568b91ecb63775210876ed ; CHARGE = -1; SPIN = 1
I -1.6304471228118693 2.5583159014490495 2.070724329487118
C -1.5285011669095658 -1.037605202202735 1.1327999140253306
H -2.1455910422665903 -0.4064570859227654 0.4847071611213231
H -1.8875175398531423 -0.9193461741956359 2.155413326942337
H -1.6645174245810541 -2.0680307188488953 0.806436341840543
O 0.4071311582207369 -1.3963024106793753 -1.0679484037091382
C 0.46541720127261327 1.1173371469603375 -3.1283534456850424
H 0.4987139497957831 0.03492321457357986 -3.0596449472189575
H 1.4647125591933967 1.537405603586737 -3.153793274250916
H -0.13383440562571655 1.449537734697311 -3.966397347008757
H 1.2265242134800618 -1.8885163823903102 -1.1709516288124273
Rh 0.3750664943761097 -0.0934258305061944 0.5743808659611189
I -0.4841790296499793 1.7837133587742318 -1.309511368586595
I 2.937977344987573 0.5810320979522162 0.1051203652887535
O 0.9502498536797908 1.3257589808163273 3.0622923551544656
C 0.3161250760633412 1.1389453408595243 2.0925005650589026
O 0.4716377827080005 -2.272123742800048 2.58582926954256
C 0.36103209792049756 -1.4451618321233377 1.78639592084937
