18
## STRUCTURE-ID: 64568a0d79d1222f120876e4 ; CHARGE = -1; SPIN = 1
I -2.293130250323144 3.232679343229712 -0.6389240951036333
C -2.073003939189453 -0.046815554171012706 -1.2364084157965523
H -1.727548494521269 -1.0886848822537347 -1.2047736744816409
H -2.723572448155927 0.09099542962103924 -0.36104778735023385
H -2.7278159227573546 0.038615759183281 -2.122804703691802
O 1.68918232515653 -3.2404247537920505 1.0511150579867756
C 1.054408188202969 -0.9936351503893276 2.488269418801486
H 1.2916735747925039 -1.9503096932354442 2.9309294954147167
H 0.08402073619643331 -0.6282614598285795 2.8003294941149295
H 1.82234885845069 -0.2556443892862673 2.683506120959626
H 1.865022878922129 -3.834290431805337 0.3177133317835299
Rh -0.5528096633006608 1.370727043946218 -1.4186998379208182
I 0.7666326890303073 -0.3436001468091886 -2.980857084811939
I 0.9837164394403386 -1.3168124287187635 0.38656543444272445
O 0.5429119687857827 1.5430283380345609 1.1715885855904546
C 0.33448313447172684 0.8284003646893144 0.2451267226159665
O 1.0562266204346205 3.780293967318026 -2.27121640960016
C 0.6072533043637454 2.813738644267879 -1.8404116529534778
