18
## STRUCTURE-ID: 645671dd15b3d26a98068a18 ; CHARGE = -1; SPIN = 1
I -2.9597259311828914 1.8612634334002247 0.8394102631246771
C -3.3974374218590837 0.09959946135444063 -0.3081499181400711
H -3.80312213070127 -0.6424666104752057 0.36848618799463695
H -2.4600601327785525 -0.24233723624590534 -0.7395267976473971
H -4.106707360804314 0.36851716898343867 -1.0792898133030953
O -0.25015382141068754 -0.7902203980391512 -0.826082185295775
C 2.968980186373084 -0.8950460011320921 -1.4049726640946099
H 1.901636285899939 -0.8117171472879543 -1.5910049040787726
H 3.3869995594007007 -1.7639668860695707 -1.8957268903248041
H 3.482489779021939 0.012270005785110151 -1.696718936049093
H -0.4722201723494095 -1.710591706526407 -0.646086623936924
Rh 0.15057913310567916 0.2574104035346099 0.9255058681645981
I 3.2234015630984354 -1.1449259092841513 0.7135934954991647
I -0.8762769098500729 -1.684527616382954 2.3653058622772867
O 0.758758239097294 1.7760883709817339 3.423269749177762
C 0.5186206291718832 1.1923682587001558 2.4556992668352255
O 1.1646154587407684 2.490991669142594 -0.7802736535155131
C 0.7696230470265639 1.627290739561112 -0.12343830668730049
