15
## STRUCTURE-ID: 6456b71345f38d16ed6cdb3d ; CHARGE = -1; SPIN = 1
C -2.555001579385962 1.1589344264660633 -0.21311685805935823
O -3.445075621692889 0.45402677537646174 -0.10342807989689287
I 2.7641426517538954 -0.31509536164944196 -1.7128912138699555
C 0.16241302957613585 -2.2238343115996315 1.442431987177252
H -0.0492863427157129 -1.608626769909554 2.3078434971111452
H -0.35240141537202574 -3.1751488206629137 1.491155748385171
H 1.2284012093645913 -2.370008307678416 1.3086932149517572
O -0.07114042918257192 -2.462505032700156 -1.505825948558758
Rh 0.7599016765804101 1.0165197291628874 -0.5702621646791491
I -1.3043034916714202 0.7356420113003869 -2.7436155302165037
I -0.5488578759562945 -1.2017404281488315 -0.30228676715379565
O -0.5227771436734566 2.196587527816002 1.8676753256233678
C -0.10813679928871417 1.76857561333132 0.8871780544403193
O 2.3326798147844245 3.469223847130905 -1.2239019401970945
C 1.7094423168796038 2.5574491017649166 -0.9296493250574887
