12
## STRUCTURE-ID: 645669a1261aba756a7b925e ; CHARGE = 0; SPIN = 1
O -1.537423313034424 -1.1324770196030889 0.24621104639056376
C -1.8463161923532163 -0.09617775875734857 1.1518270295568127
H -2.6453637060767012 -0.38908928029088247 1.8398484325356645
H -2.1382757380401434 0.8193067257088459 0.628344284582964
H -0.9412065534495163 0.0966035416145142 1.7255153708731115
H -2.3195925357316507 -1.3268061874201784 -0.28389265202961783
O 3.353282677030581 1.0554195208798423 -1.4396377033856689
C 2.1566217282898528 1.082185323478495 -1.3513834570299597
H 1.6393727212494111 1.5960502981171427 -0.5272011131386626
H 1.1337153572930498 -1.4219328328179077 0.19042572733178398
H 1.5002206380052547 0.6112645881911368 -2.097935998086474
H 1.6449649168174916 -0.8943469191005836 -0.0821209676005079
