12
## STRUCTURE-ID: 64566877ba163217617ffa8b ; CHARGE = 0; SPIN = 1
O 0.07282821254302978 -0.8962966817806759 -0.9707003422483719
C -1.1747687485498872 -0.3181125124752659 -1.2096646114763916
H -1.618618173640675 0.12346684866240121 -0.31436924734370264
H -1.7663301155440472 -1.1845807522159626 -1.5101264186069638
H -1.1417404656233907 0.4053552687601504 -2.0265216876523477
H -3.1213847533299126 1.7083399616296808 3.3939645957939497
O 1.089546209875595 0.10654779801033942 -0.5825005001674134
C 1.3897263198280996 0.052219565956852766 0.8256199663280969
H 2.16949543154934 0.797355031796963 0.9876310997450106
H 1.7213702264225343 -0.9390487350482856 1.1339847573776118
H 0.49874121552512585 0.33790721338982244 1.3861780659749485
H 1.8811346409441925 -0.1931530066860294 -1.1134956777244296
