12
## STRUCTURE-ID: 6456881d0ce73f39301f8bcd ; CHARGE = -1; SPIN = 1
Rh -0.520404477169962 0.5305312723103955 0.22268604192987768
I -0.7401321429273905 2.0646151351158033 -1.9771696993149235
I -3.0929190047787563 1.0270353862013468 1.0377260435999256
O -0.33474403634458416 -0.8881192059702399 2.847757147337691
C -0.3735885097594548 -0.3817736371197779 1.825716152199077
O -0.9790263074374005 -1.7633036399875424 -1.6406438126749834
C -0.699289932793311 -0.8972878817122755 -0.9366231868999387
I 0.6589671416856187 2.466374526150376 1.7726121117459315
C 1.247093820953368 -0.484179658275655 -0.7148092858287965
H 1.9525705799405828 0.25116018528169304 -0.30379055057903664
H 1.3640385086123736 -0.45594172527382587 -1.7978021638130934
H 1.5174343600189204 -1.469110756720297 -0.3356587977017282
