12
## STRUCTURE-ID: 645665f9b5a0ce2c6d0876fb ; CHARGE = 0; SPIN = 1
O -2.5134803522267695 -0.47804759002055164 1.5086569641122805
C 0.08212021294792071 -0.11297806962338428 -0.8071824330512817
H -0.19206584274745914 0.6544641779302828 -1.5283835661741771
H 0.22099711277694412 -1.0540637642528963 -1.3335528438067723
H -0.7282261150979918 -0.2245118242228484 -0.09276433362226712
H -3.302469381054634 0.05826626694333286 1.6215329691462728
O 2.4873765624238566 0.3465073688688902 -0.9318994917498437
C 1.3623807498268123 0.27211133868181164 -0.07701339030792724
H -2.536987846334155 -1.158247239356126 2.1864650545697146
H 1.223592033211282 1.2315495714452835 0.4422094084141126
H 1.6173266482976494 -0.48551747816842933 0.6679122789308024
H 2.2794362179765493 0.9504672417746276 -1.6559806164609034
