13
## STRUCTURE-ID: 645673a0ab9e4b5a81462264 ; CHARGE = -1; SPIN = 1
I -0.26837648804464576 -2.3419810081999946 1.6154035487859861
C -1.8106425723441235 -1.3127340697548737 0.41611886134661186
H -2.1959462717067972 -2.0583767539498643 -0.27913998930243294
H -0.8549090726367431 0.8729524653662946 -0.9170767574394117
H -2.5948621166219032 -1.0317416311659948 1.118312355073229
O 2.302554868497203 1.4613277560851066 -1.0854936107207784
Rh -0.14298511702923644 -0.10509899615445843 -0.025329655894737995
I 0.4470440552453014 -1.5756434117304006 -2.159407510824635
I 1.3777355172880978 2.320975177795677 -2.5709620181833657
O -0.28680895064721657 1.9061248164188436 2.151318023601404
C -0.30320640655233405 1.1007624022993827 1.3300501889030647
O 2.5920002856300033 0.17404932194506517 0.5909476100321317
C 1.7384022689223912 0.5893839310452207 -0.18474104537706015
