12
## STRUCTURE-ID: 64566897d9b40a3473399e40 ; CHARGE = 0; SPIN = 1
O -1.1064891619485993 1.4720352153458052 0.19485287811039453
C -0.9681467494240015 -0.40901413918969565 0.8365147591109363
H -1.5828178771483987 0.032250499792984756 1.6095709618510192
H -0.030890179919697548 -0.7695443905079037 1.2246326843371909
H -1.4853654947488477 -1.089868087901108 0.1844252347611277
H -1.9650402120141994 1.503074860900782 -0.24278572913767932
O 0.21241026589103468 -0.15066761918032714 -0.8889130422445618
C 1.545582966743429 -0.36197380393425094 -0.6524007313866076
H 1.9695912197080374 0.3624227594596682 0.0629403325295598
H 2.1053463749726107 -0.2650527691910877 -1.5946172157736243
H 1.7313373860946075 -1.3781101137296452 -0.2663209767596895
H -0.4255185382059691 1.0544475881347923 -0.46789915539809795
