8
## STRUCTURE-ID: 645663a47847162e27248ae8 ; CHARGE = 0; SPIN = 1
H -1.7326810858274486 -0.00876462932319473 -0.14619949515024006
I -3.1927660107882403 -0.23963572790382193 0.43573435033616315
O -0.010457426292706792 0.1446682242710649 -0.7363530408175649
C 0.9767256184672103 0.1172366099960297 0.278275008391982
H 1.1325593158420952 -0.8983319785586428 0.6516164144757407
H 0.6119225012869894 0.7438304031504044 1.090159737561992
H 1.922972908643752 0.5224650007372657 -0.08528554947892339
H 0.2917241786683478 -0.3814679023691091 -1.4879474253191505
