21
## STRUCTURE-ID: 64568d7d9053246896242a3e ; CHARGE = -1; SPIN = 1
H -3.8978239461426223 1.569556101239124 0.5063701321548442
I -1.8598915895789676 -2.2619531947699 0.3394873796540176
O -3.7321055601753157 0.9005758068417535 -0.1722498078181799
C -0.8000664649498969 2.2668847768726423 -0.9861111155169244
H -0.41839291907516934 2.3189250993618082 -2.0092764441850655
H -1.7234774348643174 2.849221205633629 -0.9327343326288999
H -0.06017670975803513 2.7378277392851684 -0.3355061821173246
H -4.287523147430431 0.14494978228661035 0.06077111530469355
O 2.9907612867000024 -1.499230875176647 2.997916713532493
C 3.097806918387121 -1.7218851901382541 0.286184216251595
H 2.7044686493701833 -2.691752490946759 0.008191137260967951
H 3.969741417526076 -1.8237814070128515 0.913316795428164
H 3.2958748463334193 -1.122579786592899 -0.5929169237029023
H 2.642932744130252 -1.3585852912411562 3.879238473066405
Rh -1.2532616796750635 0.3200313243836523 -0.34588853809620146
I -1.0444750253113655 1.107784915760452 2.203471396007034
I 1.6429944831033503 -0.7253820163299594 1.448485902911898
O -1.6444415654741857 -0.3368967086190656 -3.2153020962109164
C -1.5088693435172822 -0.07989474332060675 -2.105957000715021
O 1.2544852489598883 -0.3963579606331988 -1.4765208446191982
C 0.6314397914424158 -0.1974570868835253 -0.47096997596155005
