15
## STRUCTURE-ID: 64566dfe20febf7707530d68 ; CHARGE = -1; SPIN = 1
Rh -1.5119898343863332 0.01677767400734656 0.5461584427521515
I -1.542902715637064 1.9738787065326378 -1.2358097721243353
I -2.0220165875870992 1.5815932784906315 2.6626741530540894
O -1.6358011569429511 -2.644276952169822 1.8761892634257726
C -1.5550045192322708 -1.5599187716770746 1.4461623969734876
O -1.9343326311636166 -1.8584219289136403 -1.6130321735232427
C -1.1462921239659185 -1.1810262616177232 -0.9525183165995673
H 3.291739186158645 1.311648228423243 -1.3684710683431245
I 1.650286420294165 1.40823939671392 -1.4875262353090086
O 0.19136396465128241 -1.2704079248038587 -1.2848387928684057
C 1.5056894920309662 1.0778204166108323 0.6163796660900654
H 0.5314046548241703 0.536735982666355 0.7820882809654474
H 1.4986077204580224 2.043357094489094 1.1131690423929188
H 2.3441003358513663 0.46218772533583985 0.9197532253424624
H 0.335147794646601 -1.8981866640878318 -2.020378112228734
