12
## STRUCTURE-ID: 645668b69c8e9d748a41e58b ; CHARGE = 0; SPIN = 1
O -0.16436855239073747 0.1669392388893301 -0.5389394916811476
C -1.2447117348339294 -0.32123413249161 0.1961072905233618
H -1.5485355728690833 -1.316886858539015 -0.13273424305025627
H -2.033365535716565 0.39170771990357534 -0.05412540333677686
H -1.065152643830744 -0.2926393392390342 1.272824542463063
H -5.128584448369568 2.936730570287557 -1.6423355860772766
O 1.0298122847213254 -0.7051482580450952 -0.38888375148761506
C 2.0138030086552123 -0.11745926682196609 0.4860585430810494
H 2.338762111813381 0.8632114712906904 0.13923487028971449
H 2.845645763100847 -0.8234334788886526 0.5032247567935864
H 1.5827569166739535 -0.03768745913923269 1.4837548902737245
H 1.3739384030459147 -0.7441002072065585 -1.3241864177914227
