13
## STRUCTURE-ID: 64566df8a7a80f44f95eb014 ; CHARGE = 0; SPIN = 1
I -1.750365219884549 -0.28173267503408883 -1.1072370555625877
C -2.475798085468052 -0.20308247016314332 0.9371971279659287
H -2.5866844333443595 0.8403354315141207 1.2081325717392242
H -1.7482945524484168 -0.6988590519495893 1.5689415780242728
H -3.427917807502547 -0.7182892086478876 0.960535564958567
H 0.5376846517315589 3.2795868277683793 0.47062479899599247
Rh 1.3537376947540056 0.07609340520049629 -0.564556197097627
I 0.7900572954650928 1.957270883961795 1.3133719922344114
I 1.6842067837276036 1.8902732877915638 -2.454810864643645
O 2.6692392051424143 -1.6577449086706146 -2.611499538428864
C 2.1628828788021877 -1.0235145304825193 -1.8060272234718069
O 1.4108045952708061 -2.172559003054064 1.406127427126732
C 1.380446993754303 -1.2877779882345066 0.6791998181593949
