16
## STRUCTURE-ID: 64568e125943ce5c9c530d60 ; CHARGE = -1; SPIN = 1
H -3.735144784430143 1.3453872271836982 -1.0061512939824035
I -2.223419291072104 1.1578008947275558 -0.3187661393218236
O -0.30917291060282326 0.6758466852298177 0.8276632838600989
C -2.618108522564199 -0.9222411282542913 -0.25017323570857514
H -2.2925010109862938 -1.327649163349214 -1.200110110546352
H -3.677162540993509 -1.056618869505681 -0.07755015348176938
H -2.019609680136229 -1.3376148688036638 0.5495378228088189
H -0.418449492633721 0.9646409024100688 1.7383693662095363
O -0.7139670955115618 -0.24531537261675107 -2.515881099026934
Rh 1.773616598057817 0.04388764800492819 0.09036353871531252
I 1.0673570579088707 -2.534568393319546 0.24419930687324387
I 0.8617099046918542 0.7675755516736408 -2.2808212779379136
O 4.808347855497148 0.015743542804096334 0.18783359190535764
C 3.6239203683940207 0.08631671505983245 0.21270464996950966
O 3.0999427379900166 1.491453787199515 2.375811007352122
C 2.772640806391068 0.875354841556036 1.422970742311896
