14
## STRUCTURE-ID: 64567b0d2bf1893e3e333bee ; CHARGE = 0; SPIN = 1
H -1.8032781456154197 -3.3511496403614798 -2.0458103749974077
I -3.139260818345498 -2.824948452311112 -1.4143977407734714
C -1.014793296909199 -0.06121165488365752 0.6866967533407181
H -1.2223762087113792 0.38403483269930205 1.6586562307467316
H -1.1897697446082047 -1.1380202750242558 0.7109949829983804
H -1.608356072546014 0.41098332041761376 -0.10426584305921148
O 1.1547225339614617 3.569134268102035 -1.7600814287621098
Rh 0.984494047819528 0.3192450595952353 0.04341347503679299
I 1.078204482090105 -1.6437934677384465 -1.6336612400894406
I 1.1066508837782119 1.7585730527534125 -2.096737975128613
O 1.1757342598289204 2.999428976191876 1.3717567315454873
C 1.0751907460871835 1.9557533296950638 0.9496957526615543
O 1.900836757793865 -1.542872642364105 2.2086077900880707
C 1.5020005753764738 -0.835156706771417 1.425132886392519
