8
## STRUCTURE-ID: 645663645923173b88671008 ; CHARGE = 0; SPIN = 1
H -1.672047805310066 0.10433644662256109 0.5362925961781602
I -2.850574821322992 0.4336157641931122 1.5487944174608945
O -0.2915657515390557 -0.15857407264468745 -0.6261218983593999
C 1.0265565691449499 -0.16493903091935586 -0.10966267734693222
H 1.3745905289308586 0.849943957577765 0.0993878039113658
H 1.7153179903793654 -0.6523130760846413 -0.8026266920105797
H 0.9990895867833915 -0.7314807712823377 0.8192632246332884
H -0.3013662970664672 0.31941078253759053 -1.4653267744667993
