12
## STRUCTURE-ID: 64566b51490a0a0a43230d7e ; CHARGE = 0; SPIN = 1
O -4.3955483424268795 0.5009234862705372 -0.16698456863605943
C 0.9120538735705556 -0.19921575542755104 -0.8621773143852474
H 0.4056264988412821 0.6988793223071668 -1.2007902577014915
H 0.27857223931127684 -1.0576267880000723 -1.060848957698669
H -3.760789080840285 1.2220595807847043 -0.15865967337705641
H -3.909273271285658 -0.29603900491177737 -0.3936725686235747
O 2.6887354737195244 -0.1979387110090083 0.743578816574341
C 1.2786337956575802 -0.10917317215527232 0.6220338051405517
H 2.931583614848088 -0.16725370586219115 1.6760168280318855
H 0.9309191364755985 0.8423026772474177 1.0478221202414175
H 0.8086057770963515 -0.9265586763152589 1.1857946047400192
H 1.830880285032569 -0.3103592529287014 -1.432112834306115
