13
## STRUCTURE-ID: 64566c6c6c2efb645c462281 ; CHARGE = -1; SPIN = 1
O -2.2857480509138366 -0.34140815089735127 -1.3984073280783615
C -1.906776371313139 -0.438972676784761 1.6267587320849146
H -2.97821140608385 -0.6026142275130042 1.545343397138036
H -1.656089832504345 0.19184456370767183 2.477050934446333
H -1.3567422682349297 -1.3774258777541417 1.6311249041350888
H 0.34886065295066876 2.0908576641866 -4.464185455336399
Rh 1.1653410464358283 0.31552263477916964 -0.0468285410750785
I 0.8383728486016634 2.043780645893051 1.7947428791005164
I -1.380724426069716 0.6416011078510271 -0.18774389277656858
O 0.9734580582743211 -1.7831842423696582 -2.164588481690442
C 1.1148690316423884 -0.9982591700102907 -1.3495951954101668
O 4.124488547059889 0.08974699066455685 0.3338811107955045
C 2.9989021701550587 0.16851073824712703 0.2024469366666294
