8
## STRUCTURE-ID: 6456880cf82e572b436f2c94 ; CHARGE = -1; SPIN = 1
O -0.8749089947708494 1.5930683918026491 -1.713127187491973
Rh -0.29452210765375836 0.5327026032389004 -0.5754119701287258
I -1.9732706387545798 -1.3013050929211736 -1.6100785956773567
I 1.2964009816928235 2.5262543198359904 0.2926426653798266
O -0.4412175026882588 -0.7076848161870156 2.1840861947145163
C -0.29794977569899167 -0.292917477706404 1.095879170451674
O 1.703681306408455 -1.5772486520104443 0.2794697008376737
C 0.8817867314651956 -0.7728692760525095 0.04654002191417328
