13
## STRUCTURE-ID: 64566e1cc216962a1e11298a ; CHARGE = 0; SPIN = 1
I -1.6141324316101806 -1.1924345838813484 0.6217602754225969
C -2.6793852172388015 0.5917087562220963 -0.03427576654136065
H -2.378974290370065 1.405900268455045 0.6171898715207464
H -3.7379962772920674 0.37844097491809797 0.061528381881200404
H -2.405513186925581 0.7777852480231293 -1.0684142411575668
H 0.7043441129205741 2.9069070213120787 -0.11055943381050808
Rh 0.9605931813828857 -0.8727731096948772 -0.13337736909055367
I 0.9799497107084042 2.0326606129195866 1.1772993086822976
I 0.311114185530836 0.12094099098607894 -2.4843277164836786
O 3.6506389295197126 -1.0941246511916658 -1.4093543773027377
C 2.6350726368288235 -1.004205919964049 -0.889538257507149
O 2.0043816383829083 -2.3032776519494695 2.277221292517176
C 1.5699070081625033 -1.7475279561547483 1.3748480318695568
