12
## STRUCTURE-ID: 64566abf82bcd963752726be ; CHARGE = 0; SPIN = 1
O -1.2226202042146503 -0.9117050946094257 0.2598248879568469
C -1.72781702547521 -0.4566671715529386 1.246713036014528
H 0.9284456912024616 -0.042909900940312065 -0.5414268118182596
H -1.6231525151387802 -0.9317513941672928 2.2325729446006615
H -2.3265646847787305 0.4652660836748311 1.227346274378145
H -2.0712134273295986 -0.49071932813821256 -2.194799394527507
O 2.165093443704192 0.4242624556294333 1.061068807670773
C 1.7737327106697023 0.602567574055856 -0.28357731842964934
H 2.601675284272809 0.40804663883172315 -0.9715963041768212
H 1.469113105194457 1.6429595385100069 -0.3834941668372204
H -2.4370415541382884 -0.2256724452020608 -2.8283014604355827
H 2.4703491760316454 -0.4836769560916067 1.1756695056040933
