13
## STRUCTURE-ID: 64568cb9dbeb49205840860b ; CHARGE = -1; SPIN = 1
I -1.5718309225052869 2.4348737548355817 4.9197485720296426
C -0.317421251570362 -1.319725480938491 -1.9573173740377685
H 0.74043869309725 -1.0335336047964678 -1.9365576177989667
H -0.37973397454559504 -2.4050614424344485 -2.048946579991586
H -0.8154403680422508 -0.8565395582522478 -2.807752037378865
O 1.7043405016809308 3.6603757683249762 0.41815582888795894
Rh 0.2421032004333258 -0.5449365849016171 0.6812277316726936
I 1.4371093758952325 -2.749480570553913 1.230518512310633
I -0.4720667145777955 0.3506546229266104 2.944918714251702
O 1.2047448964395222 1.5486209547311285 -0.31640659312633174
C 1.453152377587453 2.607927277405348 0.05566956528305453
O -2.2035915253221794 -0.7780560869476643 -0.4925962329347102
C -1.021804288570248 -0.9151190493987994 -0.6906624891674507
