36
## STRUCTURE-ID: 6456de99b1fbbb39213288ad ; CHARGE = -3; SPIN = 1
Rh -3.024197629100317 0.9432803272088783 1.0838014890281442
I -0.11973946301056272 2.082582756354232 -1.1548834550202718
I -4.628806095476196 2.7899104432060695 1.9283692791315437
O -4.4851829493871245 0.1121345389638332 -1.367938790349637
C -4.08034938610321 0.36274024572066627 -0.30538054638872164
O -1.861597032076414 -1.0206784303452128 -1.007962434272218
C -2.163183845567572 -0.7344405553869698 0.18236281339423474
H -4.051314524734589 -1.6088728289194745 4.5565128546394025
I -3.953165620567223 -0.4189478773040901 3.4005988577405883
O -2.727109084387111 -1.8089803040016894 0.8998270350808127
C -5.880444843003839 0.11375021468956373 4.479280918124742
H -6.238527523942849 1.0407259437243483 4.030467897295068
H -5.602300780272663 0.26676086056269377 5.522223405309694
H -6.5761745611801 -0.7098658630479063 4.324606636289106
H -2.7323382400999616 -2.6231146872332096 0.36913771464474965
O 3.4912955619497823 0.11114258279589521 -4.745523873425276
C 5.651023880426626 -1.740361834185342 -0.668556033998844
H 6.572954509242947 -2.305101067767935 -0.6949165259281459
H 5.126798802074102 -1.8546591697295014 0.2737388931482842
H 5.811566723229998 -0.6912485156788384 -0.8890536945945716
H 3.9805256158920757 -0.626737115954958 -4.345452669181699
Rh -0.47909231217796494 0.19051795118990578 0.9622105720429527
I -0.5423773225132106 -1.1719492868582555 3.134953571315667
I 4.370272817439078 -2.519647624135457 -2.2291068139234396
O 5.013261461857164 1.1641663170497571 -2.0064825655835046
C 3.804914069614437 1.2601090811582827 -1.7170008557064484
O -0.8322034381734607 2.507599304400735 2.5023958137641733
C -1.472907336818005 1.6689965641394813 1.9510846754780382
O 3.4407430846673632 2.5145739468737096 -1.2258915045364984
H 4.213849506340589 3.114926993308593 -1.2378829288219593
Rh 2.342228040999533 -0.04100622272326935 -2.0157849999072495
I 2.026170088476757 -0.6877947080450828 0.5186411291764577
O 2.018319076661983 1.6878368692170134 -4.300659553761235
C 2.596998726837641 0.7048846691446813 -3.825838566840928
O 0.06060861641170868 -1.1780443178664055 -3.564737847775144
C 0.9294814064706094 -0.8951892005246781 -2.817159895588043
