19
## STRUCTURE-ID: 64568dae04f6f463f8750ef0 ; CHARGE = -1; SPIN = 1
O -0.04544417194407365 2.445328183577098 0.9052438855246034
C -1.1327405429892472 -0.16129368684484835 -1.8611001687411037
H -0.7577740698183917 -0.37904139462292086 -2.867751499548598
H -1.7496754115596491 -1.0105026476443473 -1.5470729515143093
H -1.792512802488441 0.7071312135222746 -1.945977142599177
H -0.6935566703055243 3.0689560301786436 1.2963381283833053
O 0.7519430419851425 -1.7829755053770429 -0.6845076333666841
C 0.3102997742834153 -2.26685234438527 2.496625678011349
H 0.9836583729953219 -1.778036942399392 3.1900989982834917
H 0.8294255229246088 -2.5344457441384076 1.5827125076087363
H -0.18975069725919255 -3.1168508961577093 2.941977075857623
H 0.39225064715905267 -2.1835717204278806 -1.4807368293846268
Rh 0.42616865745206617 0.15113261536538122 -0.4845081577512817
I 2.5940260375148383 0.43654461147680107 1.1224797941253675
I -1.1978748427982961 -0.8337220070253598 1.9336798029334883
O 1.6427146723798223 2.4557777503541183 -1.9311787247897916
C 1.0036741318602262 1.7012386745541759 -1.2650213263554722
O -1.127127023385224 2.8359325368474164 -1.0028905112765951
C -0.2477046260063211 2.2452512731474745 -0.3984109254002717
