19
## STRUCTURE-ID: 64568f3d9ad1af0f413d7d7a ; CHARGE = 0; SPIN = 1
H -3.4912525658396842 -0.27760994108783743 -0.2995732547255696
I -2.726277359140908 0.9205705158413859 0.41121145856623414
C -2.1991764737340063 -3.290141429806099 0.04160323789188896
H -2.681916575486619 -2.6550512374853117 0.7782957296855254
H -2.82831955862562 -3.4695990707288122 -0.8265371737326391
H -1.8594846800853058 -4.224051616337184 0.48040088465445474
O 2.1280290068865493 1.7150471520125987 -3.2961857798522955
C 2.111147673867998 2.5350111440497107 -0.6930044349946012
H 2.4770664217383658 3.029177448560529 -1.5793149534855577
H 2.9342626728281473 2.262286553930025 -0.04199102176587703
H 1.3949815757588448 3.1588744314718293 -0.17008717831717746
H 1.9258401032131331 1.2066863025143795 -4.079963037368371
Rh 0.15329821577040342 -0.19526599658807922 0.9287744051148135
I -0.386999578426919 -2.1795002240948143 -0.6988077715359636
I 1.1525449290022918 0.7854656265462543 -1.3468176838568522
O 1.5443478119706544 2.012344207340057 2.398141296298722
C 1.0024787024701525 1.1699492175837685 1.8335403100432255
O -0.3717135659422559 -1.4612737180941984 3.6085806106539278
C -0.2788567562252198 -1.042919365628194 2.55173435672611
