21
## STRUCTURE-ID: 64567729594f5702222cdf85 ; CHARGE = -1; SPIN = 1
H -3.3383330904760014 1.7556288788694268 -0.02075924102908851
I -2.1857128692293606 0.7296147418393404 0.6590371877629462
O -0.8517412921970838 -0.8650292732842207 1.444447491593641
C -2.71380788259983 -0.6288453180713384 -0.8857430638467663
H -2.4167090031451863 -1.6199814144077411 -0.5689599474713354
H -2.152495244901093 -0.3475181865341909 -1.770625637770903
H -3.783170222111568 -0.5620613703194886 -1.0371178292482004
H -1.2730605874989867 -1.3102399579177104 2.1817025197117976
O 0.28640212175557495 2.2231008295010204 -2.5864103878661577
C 1.2491715500363807 2.101975735793136 -0.024531889200948533
H 0.7924566902683715 2.9340660683690833 -0.5393925952230764
H 2.3254192974635464 2.229567610520278 0.02475351978027162
H 0.8339552127745004 1.974057829385763 0.9705180707367105
H 0.03178504994790593 1.9115826879944238 -3.4547796187810804
Rh 1.4511162649656983 -1.502436809359875 0.6078337076468675
I 0.382964051223815 -3.0641375652816794 -1.2054118613964109
I 0.8329027354461879 0.3528869236771056 -1.136600409415902
O 3.210455256410829 0.503468127676828 1.9587191162622921
C 2.512985303387742 -0.27043048310607937 1.4464175474603254
O 2.6813222386699542 -3.6606997844221496 2.292855375664584
C 2.12409441980865 -2.884569270921934 1.6440479446304204
