18
## STRUCTURE-ID: 645673b0bad3fd45da623195 ; CHARGE = -1; SPIN = 1
I -3.615632487346473 0.9298011312422902 0.4531292861379528
C -2.286216052123411 -0.3595805692583852 -0.6008023636433562
H -1.2568103885973008 0.06202797992687723 -0.5158830879531928
H -2.5802035940969863 -0.3842417272249993 -1.6424784265555128
H -2.3461864146902456 -1.3457575134303315 -0.15700036730148217
O 2.2439360696407196 1.4052829154741764 -2.413230412614604
C 0.6718679125893562 -1.9834758905091188 2.9399119412223347
H 1.7210086889475615 -2.1967663895545355 2.7712200165428595
H 0.05577782388373811 -2.5795999469551463 2.2767967307296972
H 0.3941477037034858 -2.1180806663118457 3.9779695051410897
H 2.2960330273620873 1.5811036587902103 -3.3733181415576308
Rh 0.7506947880657097 0.6186291433960156 -0.1550826159941488
I 0.3333292587983623 0.11913861176652098 2.4483050457703714
I 1.3985174767669744 -1.8407259321242073 -0.746944499194978
O 0.5443853668147566 3.592881958575416 -0.21824117592280656
C 0.5870693096021902 2.4356092088860084 -0.08925470018095778
O 0.1048840116438606 1.0196338351810306 -2.9079319352423645
C 0.9833974990355852 1.0441201921300434 -2.0471647993832742
