21
## STRUCTURE-ID: 645674fab129f7770822415a ; CHARGE = -1; SPIN = 1
H -2.815858800461666 -0.816713592966725 1.2823191356652033
I -1.2878745297350147 -1.4755031325816068 -3.350766929585126
O -2.214407957975513 -0.09917242824841854 1.0540031433166936
C -1.2486311152102487 0.49785107963997255 -2.5396832142914083
H -1.570791157810508 0.4381466042089763 -1.5075500517217595
H -1.9200776918386497 1.1133326181613075 -3.122547481182087
H -0.2323944402426933 0.8753211486956882 -2.5982412940731
H -2.6671339323049 0.7217844620290339 1.288884298007709
O 1.8153685539592455 1.701722201060675 -2.209988267869907
C 1.916125044454435 -0.7355464150134694 -0.8660793433665996
H 2.2293164732092925 -0.4390282140506602 -1.8558905057566406
H 1.1344703955935038 -1.4852773693648742 -0.9131994153973159
H 2.760368564667651 -1.102765654268362 -0.2929320122746753
H 1.7968188710787971 2.6567798252470025 -2.271067386411742
Rh 0.19043659073772354 0.057774388506322556 2.3283046021966145
I -0.37947858870702333 2.5674221023928108 2.6900289575516374
I 1.1531794687400259 0.9929006070216686 0.09025032122961053
O 1.3686597262405822 -2.6165918751036386 1.7131377839967314
C 0.8879005860651024 -1.5948074848522695 1.9505374197694443
O -0.5647926064856374 -0.8039479919665877 5.1009717965886185
C -0.3512034539744745 -0.45368087854686495 4.02950844360806
