17
## STRUCTURE-ID: 6456b679882e101dd72eaabb ; CHARGE = -1; SPIN = 1
C -0.924915668361091 0.4659663224897358 -0.30027207143264606
O -2.053156779186576 0.6784831179120663 -0.15397045513567875
Rh 0.5308830479402764 2.0238059969053417 -0.514658740485927
I 2.424982991316322 0.6117573667503077 -1.7775392320262038
I 1.5362297947643242 1.6335253194038237 1.9240643324736169
O -0.8489000405240796 4.306455240033089 0.8393821128901977
C -0.348310236366387 3.4245654723450047 0.30031751085001446
O -0.08342548128228515 3.0164259023098516 -3.267293440709283
C 0.13060715306834866 2.634811501237397 -2.2063075627941715
H -2.1857091184671735 -1.7294973630922956 1.3207062745061717
I -0.48352453893596575 -1.7620444644571316 1.650442963793408
O 1.6122463854996854 -2.121339061613735 1.603334197219214
C -0.364497682099662 -2.757738446178092 -0.22069254519803091
H -0.6381291037800652 -2.0497018495873074 -0.9947464747621508
H -1.0415227803124252 -3.6010944155510884 -0.1998797196928806
H 0.6644715423228382 -3.0678237427581014 -0.33216980717398537
H 2.0726705144039133 -1.7065568961488742 2.329282657678345
