12
## STRUCTURE-ID: 64566a10a39ac652443ae5e0 ; CHARGE = 0; SPIN = 1
O -0.6841077799144227 -1.5227043467640906 -0.7903529972566037
C -1.334784452881701 0.15663534364087053 0.06432064207528902
H -2.19426479096021 -0.48877803432985395 0.18610376523709113
H -1.4595068862350873 0.9413034348748158 -0.6602245605615795
H -0.9286902641420837 0.46844933837421104 1.0114905638337572
H -1.0659158121560353 -1.4920272284366216 -1.6750272718616215
O 0.6810180397949263 0.3752955333258248 -0.5057459168701611
C 1.5160094964644104 0.5718162734942236 0.5632541312394083
H 1.5449400254293153 -0.295256602944652 1.2438546527675884
H 1.2223643303392577 1.4599525433903926 1.1472109852250667
H 2.540384480238922 0.7453868086069358 0.20150660171717652
H 0.1625536140227099 -0.920073063232044 -0.7863905955454242
