12
## STRUCTURE-ID: 64566a770357026414112998 ; CHARGE = 0; SPIN = 1
O -1.347380353254776 -1.2710553334176105 0.26597517350412236
C -1.6069094289855121 -0.31886749711394774 1.2698037082078948
H -2.6041328780548905 -0.5262430025009563 1.656375907385098
H -1.5873347324866667 0.7003155691633124 0.869080441107586
H -0.8855015017061715 -0.3938987067936844 2.0897772182631638
H -0.44869157472830373 -1.1113604935406516 -0.07559992406727507
O 1.2407414822166785 -0.5402340480932643 -0.7106788420480575
C 1.3884945006238012 0.8466721096711359 -0.9422977612851872
H 1.0201127673212678 1.35436645525671 -0.05277860306505054
H 0.8025628675481898 1.1695324737332324 -1.807333026567413
H 2.4372213498803794 1.1138105104681006 -1.0931283880723879
H 1.5908175016260082 -1.023038036832374 -1.4691959033624922
