12
## STRUCTURE-ID: 64566daf8c06bc536956ede0 ; CHARGE = -1; SPIN = 1
Rh -0.8489755113484264 0.37652595383040527 -0.0010150512644563705
I -1.1185330099768225 1.9686701355884373 -2.1419802403132864
I -1.1416308420280843 2.3117501039150725 1.8447971017289275
O -1.482683134180239 -1.3748878389591082 2.340916203152372
C -1.1939092215754903 -0.7296300708501815 1.440483005534611
O -1.5466174559280848 -1.7539861992845673 -1.9831000715869478
C -1.2340591515686785 -0.9616286215208042 -1.2181528182799302
I 1.4860220579532113 -2.2737523855310044 0.21608720324680547
C 1.6005750891069024 0.42410623979699646 -0.09342705857855181
H 1.1205727628264883 1.414983949531827 -0.02690826558059767
H 2.0274523623517497 0.25898266271266357 -1.0726009930325142
H 2.331786054367455 0.3388660707702508 0.694900984973557
