21
## STRUCTURE-ID: 6456759d931884126e462276 ; CHARGE = -1; SPIN = 1
H -1.256620682295562 -4.014889947140629 -1.445965251131766
I -2.327654563711119 -4.176606176642567 -2.5799161987253294
O 1.0924462055905642 2.6886513672437045 2.6741508483143788
C -1.8395855335028275 -1.222460358115933 -2.396727445919639
H -2.4855485481598736 -0.9299338365811259 -3.2021288256019154
H -0.8523810488384942 -1.5800211895254823 -2.6130070514373793
H -2.2606175781040725 -1.3942243731073012 -1.4251844392650006
H 1.532067817689412 3.440176899493717 3.1200298110007885
O 2.1195528450499665 0.841806777434394 -0.12656644126140265
C -0.8183608990973765 1.2092739602436902 -1.5377290130816603
H 0.26539918186398964 1.163277982836886 -1.5978650630829385
H -1.2217468186575764 2.0733828655073276 -2.05205260998379
H -1.2786478525403424 0.247496415203024 -1.9389732181445325
H 2.7030075417456056 0.21816004689602173 -0.5698980975680705
Rh 1.1869095589264196 0.07115547390642744 1.5836899117479675
I 0.613612399094807 -2.176008433296154 0.3442364420632649
I -1.3164050725448895 1.3682914145533058 0.5628096788276582
O 3.054290865886652 1.699200485204627 3.0284776755056075
C 1.9221909205916938 1.622082467952265 2.551706941102857
O 0.49782104257404364 -0.6982783232021109 4.37490974846776
C 0.6702702184389947 -0.45053351886410276 3.2460025981731624
