12
## STRUCTURE-ID: 6456652e7b936d67ae1d80c1 ; CHARGE = 0; SPIN = 1
O -5.217858337749718 -1.8752127537084122 -0.12456750267380597
C 0.43386999227567835 0.5127364906564487 0.10919231356882808
H 0.7906008747463154 0.9595841114587106 -0.8042637697777865
H -5.813027879495497 -1.6181861966624815 0.5844360801193677
H 0.7991857038859559 0.9523060343409829 1.0227853412156382
H -5.021828139547434 -1.0798783300572627 -0.6264892995133094
O 5.182479091021956 1.869442619708768 -0.24638762231487518
C -0.3967223871940603 -0.5090783785423587 0.10928698613798869
H -0.7600665803473008 -0.950726786733047 -0.8041896783147376
H 5.746553965525949 1.6320754573075553 0.4941757359142352
H -0.7548618054521518 -0.9544222269069391 1.0230027148192478
H 5.011675502330307 1.0613599591380274 -0.7369812991807719
