21
## STRUCTURE-ID: 645676e8fd5a3f13360b3f6f ; CHARGE = -1; SPIN = 1
H -3.2946644284888595 -0.3973595500676474 1.4720972443522158
I -2.3241233317624523 -1.717257255016873 1.0058058205887586
O -1.3152020286481567 -3.217194289753062 -0.08390835864356457
C -2.5342906156470386 -0.9534245758131541 -0.9371916963008845
H -1.486322406583491 -0.6839766261350131 -1.2384438125961066
H -3.1932410754157803 -0.09346428837403876 -0.9217728619258444
H -2.8876769451547672 -1.7496929291317782 -1.5819559738900344
H -0.7441999435879344 -3.6895180495593376 0.514717130622289
O 0.36073431545793205 -1.944962248201794 1.7064667257539994
C 0.2642493810156177 -0.742196072420127 -0.8555665036797098
H 0.12381967375294665 -1.800020828090069 -0.7017192853966895
H 3.610496749053047 0.30748407918129195 0.7033786435064217
H 0.813234968799512 -0.39628815861050676 -1.7122018749093637
H 0.6356184940635574 -1.9954259422963883 2.6196694610924407
Rh 1.4299864325627583 2.6224714191710445 0.26712092896182593
I 0.7215577228027806 3.092282100445715 2.6823579423430326
I 0.23953041080953508 0.42640011504725495 0.7786512924711628
O 2.1217410462436592 1.6387062738125062 -2.4572516252707683
C 1.8293131873603345 2.0875009243400715 -1.4418048078754826
O 3.175588353022471 5.043846353138913 0.05426353720252409
C 2.453850040344394 4.162089548332968 0.12728807359380379
