13
## STRUCTURE-ID: 64568c1131303c75ea3ae5d4 ; CHARGE = -1; SPIN = 1
I -2.3198262200212945 -0.47615394411691186 -0.25703850072175144
O 0.0650417599794603 0.3708624710539059 2.829462594465426
C 0.21857169848202182 -2.0104615135229285 -3.0522990699943895
H -0.7404801806831652 -1.776994377936571 -3.4958294983890617
H 0.20011344873770834 -2.903238164111836 -2.4415949028845465
H 0.3327140228690447 -0.16752384992662525 3.6059569082241256
Rh -0.031631943422696984 0.8535374738188455 0.06970782581507853
I 1.045886841726136 -0.4020632784809556 -2.0494625127565773
I 2.255013498549541 2.2043099375093718 0.07980398371896825
O -1.5101766911472168 3.315186349905556 0.6553737365860941
C -0.9633836963894423 2.3205579792520625 0.8637646718378958
O 1.0209043441079928 -1.1823862480667549 1.5109284716517792
C 0.4272531172118993 -0.1456328353771715 1.6812262924469508
