12
## STRUCTURE-ID: 645665cfc08e2264336aac66 ; CHARGE = 0; SPIN = 1
O 0.04360760640001086 0.45523453844702494 0.9693051595188991
C -1.4954954992167155 -0.17394864607016927 -0.3224535551232009
H -1.9693522965422743 0.7379338701064856 -0.6392317938468861
H -2.052253171055201 -0.7104619279075568 0.4261151155350661
H -1.1422820573293873 -0.8019756405761664 -1.123705868180042
H 0.16196585013841455 0.3315132239010627 -0.04065113802004987
O 1.239404730684644 0.45162890886609136 -1.5110382058494365
C 0.6578315329642572 -0.383199536849066 1.7511609548988312
H 2.1117824673067704 0.8107892794801594 -1.3234144518717454
H 0.12190242119417538 -0.7423365331009375 2.6175364797443827
H 1.4764058152386783 -0.9845325025144821 1.3845741048829106
H 0.8464826002166332 1.0093549662175658 -2.1881968016887017
