18
## STRUCTURE-ID: 6456b7a063d11f6869662c66 ; CHARGE = -1; SPIN = 1
C -2.9612956135244746 -0.47285395690355164 -0.09601515233950139
O -3.4744522903491184 -1.542986587918778 -0.18565908758731467
H 0.9008039236319296 2.2053916338996284 1.9470533016715108
I 0.03983483741094394 0.829238401896847 1.4851227322012694
O -1.424591730032442 -0.6842230146483116 0.6438095507068184
C -1.0627445999768927 2.180828204355075 0.23419300419108513
H -0.42356518348875544 2.477798021892709 -0.5891106541891172
H -1.3553754669922384 3.02318674558884 0.8504857524945625
H -1.9202961932709837 1.609878347613583 -0.11353420881840434
H -1.229086869367802 -1.6304659215140263 0.8226542573924936
O -0.58617873654107 -3.2496339346306526 0.9994704513599545
Rh 1.5905826972534554 -0.8971758293208482 -0.6974867380675687
I -0.10295757664796264 -1.909625006793972 -2.507962140965755
I 1.2834515814438463 -2.977704215775182 0.9441352661926778
O 4.205510265984793 -0.33170698189242265 0.6401041716259699
C 3.1779495715533175 -0.4915867164820116 0.1654172957412975
O 1.6464683983754491 1.3589356990544412 -2.6496643392342163
C 1.6959429845379177 0.5027051115786801 -1.8930134623758486
