12
## STRUCTURE-ID: 64566ab6bc4b6150ce399e4b ; CHARGE = 0; SPIN = 1
O -2.4734233161960444 -0.22809393020439023 -1.2152404568942954
C 0.2630229375611271 0.6289736388006111 1.258154048818007
H 0.5091464717228923 1.6422481545075316 0.9220476637258934
H -1.604566617672105 -0.171490280095325 -0.7904069547613533
H -0.6719745710630776 0.6455840049082101 1.8130387034444688
H -2.9146319473975897 -0.9790157320675849 -0.8105730612741688
O 0.06902033540979949 -0.23445199462909022 0.15858026072876888
C 1.220238079252241 -0.36100425294017274 -0.6480697986062144
H 0.9613285724937661 -1.0359213219990204 -1.460511887569193
H 2.0539250677264858 -0.77830487532947 -0.07311137625149992
H 1.5202101212427017 0.6096195910815511 -1.058055303323619
H 1.067704866919802 0.2618569979671564 1.904148161963231
