18
## STRUCTURE-ID: 6456728d6392e14edb5c71b6 ; CHARGE = -1; SPIN = 1
I -4.4457348875015406 0.9417552795801069 -0.08312107194229403
C -1.7935918486644122 0.7542530629819387 0.26441130499806353
H -1.8491156828186752 1.8098647751042571 0.47007126541732175
H -1.7965359824289822 0.4302341123622652 -0.76575127132448
H -2.054587169701279 0.05980447358326166 1.0439397227657838
O 1.603318256314908 -1.1576743966464387 2.365010807742523
C 1.2316640902245175 -1.1590696045460862 -3.1274469182931375
H 2.1366551682824078 -0.5614898263394152 -3.1325001625361617
H 0.39541988187558497 -0.5864036179334084 -3.513057842987467
H 1.3597309137484088 -2.0919770248597587 -3.6639085968880534
H 1.5795268459256475 -1.7804501969849438 3.118832428856949
Rh 0.5301877419912225 0.49463117861604244 0.46683700311884163
I 0.7842788856318881 -1.6698492651987065 -1.045615072738127
I 1.197426550914184 2.175178045815037 -1.4749914836580058
O 0.7349958871710073 2.4818529673772285 2.6714237842130113
C 0.6356928243940783 1.742339185643748 1.7905153841755677
O -0.6141822619738605 -1.1410472126915976 2.610794164113928
C 0.36485078661488224 -0.7419519358635056 2.004556554965717
