21
## STRUCTURE-ID: 64567c2e7630ac0b202fdd80 ; CHARGE = -2; SPIN = 1
O -1.144190884122084 -2.514127597195781 -0.5379807694725678
C -1.1384258667283 0.9526530289976892 2.0861307675297325
H -0.7368874458905145 0.2302412835587444 1.3589502953131982
H -2.16566353855298 0.7141651290102327 2.3340815896955514
H -0.5165491272579437 0.9817173978010697 2.9732108195708165
H -1.9156077378822352 -2.791475622369639 -0.03133191903954332
Rh -1.290228443841587 -0.6905023544113499 -1.3711951890861946
I -1.0946818968062464 2.873690234459169 1.179260480816256
I -3.642324851041585 -0.3864538348554689 -0.33846737215663864
O -1.2647707867345046 2.0187075777045305 -2.614425149625042
C -1.320319859410106 0.9768081845378594 -2.1150232074420092
O 0.9512661914247172 -1.2500613570912376 -3.266954999786012
C 0.13436915191201887 -1.0717479383694608 -2.4658145281123733
O 1.868560968887391 1.7427415398099282 1.4105310727766793
H 2.1490941402794226 1.7159412061796873 2.3327747557832557
Rh 1.7519985441945352 -0.056629534896666375 0.5169402877239494
I 2.0897824256581123 -1.254131106653631 2.7837329456512148
O 1.7846631807931999 1.4039141271027764 -2.089325880523239
C 1.7109675433421099 0.8397683314011227 -1.0815550810695518
O 1.9919343472008246 -2.7375628848594493 -0.7670727778396148
C 1.797013944575701 -1.6976558098601666 -0.2964661407078568
