12
## STRUCTURE-ID: 645667287e21df65c07c7c40 ; CHARGE = 0; SPIN = 1
O -0.8418342392880275 -0.7754622239538946 0.07264009866390841
C -1.51251504051347 0.030435934622067368 -0.8818809315786611
H -1.8876375088655866 0.9530853703397385 -0.4348076660737218
H -2.340793516130465 -0.5214293702248425 -1.330583875623212
H -0.7863476739827158 0.2769239332200463 -1.6535643573774
H -1.437980150682715 -0.9371628251596185 0.8164429152860098
O 1.5610368968985584 0.1295674391276145 -0.5131588514607776
C 1.0744795667438636 0.1776656196936452 0.6584238877385985
H 2.519262789242828 0.9522885937947811 1.7415366237323375
H 1.102574616394357 -0.6511356973476226 1.3463001155611223
H 0.49021619619529505 1.0503663566090846 0.9013062214665466
H 2.0595380639880814 -0.6851431307210313 -0.7226541803347903
