8
## STRUCTURE-ID: 64566355f3e5f03b965eb020 ; CHARGE = 0; SPIN = 1
H -0.5515192565621819 0.9256274115669552 -1.3224120598509561
I -2.3725443243294975 -0.33147549083985783 0.49978913150980464
O 0.2500917087938228 0.39221969975955695 -1.2329802035045818
C 0.5443898749544059 -0.11679869063502554 0.8197514154257871
H 1.4997211994801896 0.10830352496720182 0.38060535040247273
H 0.3582579529641144 -1.149075585743119 1.0407983703222368
H 0.17104448756225726 0.6148806396301143 1.5082227821118295
H 0.10055835713688899 -0.4436815087058175 -1.6937747864165964
