13
## STRUCTURE-ID: 64568954483a887b676aac68 ; CHARGE = -1; SPIN = 1
I 0.1802110228721576 1.8446332578422997 -2.128820715761285
O -1.9879483068383264 3.041008617742611 1.0853162224922532
C -0.7185985285535526 -1.581569470315695 -0.04451093499226884
H -0.3514425523375281 -2.0587186962685102 0.8531053103875818
H -1.6268244070549034 -1.002437045240364 0.03423423511169155
H -2.802219823082256 2.8614380279834073 1.5603293124337783
Rh 0.9914256120263336 0.5994216233139343 0.07342455365120498
I 1.8117636439679188 -0.036911352647917346 2.541953275253842
I -0.5263199252599596 1.8442391673544554 1.7695538079392241
O -0.05432876992679899 -2.4779640704706583 -2.2387866440357316
C -0.3754947534811645 -2.0617847701546816 -1.2029073026163999
O 3.153598882480232 -0.7378586730522625 -1.4531486891663237
C 2.306177905187824 -0.23349661608664043 -0.8497424306975535
