8
## STRUCTURE-ID: 6456637d0ab6f247ba293428 ; CHARGE = 0; SPIN = 1
H 0.286043003259845 0.9700978174644228 0.7833206828659182
I -4.3690130018048805 0.13977799355931422 2.0920977727073984
O 0.8048256863670157 0.16509550889208224 0.5571802699731923
C 0.7027912334328227 -0.11761606523898183 -0.8653533954202296
H -0.31851406992941456 -0.35161964815450086 -1.1600684829180608
H 1.3571248466573655 -0.9589561613353718 -1.0806561464140723
H 1.0555313124830976 0.7579485820332874 -1.4041708311786754
H 0.4812109895341497 -0.6047280272202481 1.077650130384521
