18
## STRUCTURE-ID: 6456705202b8a26cd8071029 ; CHARGE = -1; SPIN = 1
I -3.4075377849281243 -1.6394774881057812 0.947333751316689
C -1.7503662429843392 -0.0546294158654156 1.3828964735519789
H -2.2513598215742108 0.8405109981633528 1.0772184586974842
H -0.9709879840732657 -0.41732870215657375 0.740520268284835
H -1.6066143595126674 -0.1921683047215855 2.433922840024401
O 0.6397175953773978 -2.128532282530505 -0.32347321693143594
C -0.14452915453000262 1.6065025424319006 1.8367427048296605
H -0.027120971399933955 1.8204415145339135 2.9069109108854314
H 1.262318331240772 -2.537514727069678 0.2896726579147673
H -0.3615961618977698 2.5723431050198724 1.3506764557013375
H 0.3329420365264848 -2.831263001121263 -0.9062169132008224
Rh 1.4451646281142276 0.2455551726313999 -1.3221800340765766
I 3.8637704703480007 -0.7243067932100904 -1.4623245989972347
I 1.8423835625252913 1.0853705064227426 1.147373058600672
O -1.122247061085829 1.7647829521908673 -1.4200917719506896
C -0.15896327899489718 1.1404652303805367 -1.3521954224042692
O 1.1559093564552885 -0.39453149311047153 -4.222546874235058
C 1.259116840393625 -0.1562198138832093 -3.104238748011169
