20
## STRUCTURE-ID: 6456b8082c013310d211298a ; CHARGE = -1; SPIN = 1
C -2.715936072174707 0.22073442801459883 -0.25232065211624033
O -3.841730584079016 0.41374243919348574 -0.3388303579909561
I -1.7419829152640385 -2.7658519195466815 -0.17828666294063478
C -1.0595908413213 0.009033018140743927 1.9669574138368202
H -0.9895163567166183 -0.9913804758786803 2.4021100123578187
H -1.9925135419484048 0.4630651056269748 2.314288921103202
H -0.23609844630295812 0.6115039341404908 2.363399645094365
O 1.5497133173235869 2.192168556754499 0.9848285438269406
C 1.9724323917258455 -2.578750362690586 -1.2850707692759582
H 3.0168072878500602 -2.862856725959064 -1.2244285282974525
H 1.7114450375196701 -2.2165024642191375 -2.2750827121576767
H 1.3148972681724833 -3.3866796329978444 -0.9791742703559188
H 2.477022004168498 2.504488529556981 0.9255601903575101
Rh -0.9348762102677793 -0.11986968703256376 -0.14834158794258434
I -0.6664787532570113 0.05695292989243609 -2.885658733481175
I 1.6800221202243388 -0.9286499958857733 0.1013784091732281
O 1.4455795897494663 2.6096100284829644 -1.2115879873681359
C 0.9258356557362104 2.244227396210451 -0.18550426386679816
O -1.3749362584654723 2.7043685034221183 -0.010895022499811287
C -0.540094692672891 1.8206463947745697 -0.08334158745655529
