13
## STRUCTURE-ID: 64568a0d87ca4256335fdabd ; CHARGE = -1; SPIN = 1
I -2.3775687555086935 -0.588422002121048 -2.3429613564790666
O -1.9365832328542298 -0.19738023655652656 1.3670967411780244
C 2.4574163763598875 -1.8712961264697887 0.33132464034199866
H 3.1171564843477024 -2.0289074669470977 -0.49952630694716144
H 2.822684251149835 -1.6501355443647077 1.3147254683920204
H -2.652691845672837 -0.029664216931951565 2.0141541863886956
Rh -0.4662645502573488 0.5871692719563568 -0.9615584056744849
I 1.2195539767625565 0.8872358425426126 -3.0557039968074164
I 0.46474816005671166 -1.7673026185123561 -0.012213253617388444
O -2.507158057130781 1.784291630393654 0.5105228033287262
C -1.8128305505966584 0.7794277145472874 0.4651745202002314
O 1.1061375995301197 2.4256933565821646 0.7753001103893972
C 0.5654001438137999 1.6692903958814718 0.09366484930641693
