13
## STRUCTURE-ID: 64566be822d8c92f0b19eb63 ; CHARGE = -1; SPIN = 1
O -2.5191909903519214 -0.3264526257646723 -1.0731745426314612
C -1.9170646714027157 -0.01935876979016053 -0.03397328614117447
H -2.522195631074164 0.17954513852577095 0.8463479986367578
H -0.8194085653202183 0.10407855561487603 0.04845851112026891
H -0.6761177353138044 -1.879909824049372 0.8833225337912712
H -1.9691662318893244 -0.45617537422793714 -1.9006424450769652
Rh 1.2167589220051085 0.5905604146722062 -0.13975784285683482
I 0.6292308762838774 -0.0791692997735897 -2.5912769043680157
I -0.14460556071236189 2.8319453520463544 -0.17922646564109349
O 2.109349500387308 1.0859500137314217 2.660764409019756
C 1.7604430476330517 0.9441246521698328 1.5742250438461898
O 2.711917670967018 -1.9849233485997575 -0.02701990112876466
C 2.1400493687881426 -0.9902148845549815 -0.06804710856993058
