12
## STRUCTURE-ID: 64566642624cce52dd051b88 ; CHARGE = 0; SPIN = 1
O -1.8376355236939013 0.29351420709968673 -0.25414570817492266
C -1.7685671462894939 -0.27512713614674267 1.0319496292077748
H -1.0016598805841679 0.21170471714320802 1.6440000902449476
H -1.5593761365859322 -1.3487685883986855 0.9847467141203113
H -2.740658198327735 -0.12416602883455828 1.500180779953542
H -0.9813460765410402 0.1462908076927868 -0.6954886473959487
O 0.7953679446569937 -0.10389250043353176 -1.3072111330288676
C 1.824399710274465 0.17796516011681873 -0.3794610065181221
H 1.9012481330729725 1.2515399744706095 -0.18546479076010575
H 2.788520815642467 -0.19794242692753808 -0.7303459011831448
H 1.5621315611614186 -0.33328951936116286 0.5450538179632279
H 1.0175747972139717 0.3021713335791089 -2.153813844428689
