12
## STRUCTURE-ID: 645664e0bb7b522ec94609e8 ; CHARGE = 0; SPIN = 1
O -1.9991412330683953 -0.7286272903179856 -1.8325102406911626
C -1.8482000892077797 -0.24051126572078194 -0.5147117406907955
H -0.8161529835796159 0.05825396229057909 -0.3150006352257613
H -2.124056834307365 -1.0554487547524058 0.15253434842508987
H -2.5118998811143967 0.6100429912014335 -0.3286716444935452
H -1.7030086375801612 -0.045547921817079846 -2.445495866736461
O 1.5102434487472909 0.6156400763538871 -0.0805767355706799
C 1.7941290293446261 0.21871498045062204 1.2439891108424952
H 1.651122091380907 -0.8580487682030798 1.3763096871054867
H 1.0934966773225805 0.7495548070663328 1.886335756811516
H 2.814195111039161 0.48705634311679963 1.5328267938969609
H 2.1392733010231533 0.1889208403316825 -0.6750288336731473
