21
## STRUCTURE-ID: 64567776d51ed52a2b304581 ; CHARGE = -1; SPIN = 1
H -4.784607074254728 1.9558741016897223 2.2402372534873582
I -3.2876806295104917 1.6557875047888884 2.6357428280809065
O -1.0291316811750992 -1.1292607003851796 0.845888611446851
C -1.9013671141447424 1.6363988846550273 -1.1667185761137482
H -2.4259138251213352 2.414302801515085 -0.6156433206357351
H -2.173070655164877 1.699645966652445 -2.2168179199776596
H -2.211135670681595 0.6658033869122343 -0.7825214700735937
H -1.4857477286025496 -0.7794676280106466 1.6377175867873968
O 3.6187623562490447 -0.37306684887981467 -0.06567643909633812
C -0.41443353753249557 1.8340331471381313 -0.9833226086417105
H -0.07605694876413471 2.785454497898236 -1.3839217939645518
H 4.018424799546453 -0.4497670341684099 0.8054525092937974
H -0.11309939494338084 1.7411951196862698 0.05857644279983855
H 4.27344145253494 -0.6821275034043038 -0.7051371007643976
Rh 1.3364970647753491 -1.7577844163094645 -0.5257960289941244
I 2.6376466020858595 -2.8485375298879205 -2.578708119741316
I 0.7593429567851091 0.3013843209859424 -2.0250840717667193
O 0.7551063385438083 -0.41577945460244586 1.968236813167529
C 0.3310355661221593 -0.98736929612085 0.9643400156223509
O 0.9796773733759941 -4.057213047545323 1.334652065632977
C 1.1923097498764794 -3.209506272607502 0.5585033234509778
