12
## STRUCTURE-ID: 645667297c99e628413ae5e0 ; CHARGE = 0; SPIN = 1
O -0.5325561104616439 0.7360225587946062 0.18648302669928535
C -1.7009579866271745 0.12436585226834092 -0.1860924279846395
H -2.5552678188545426 0.6865301499969559 0.2196057910796338
H -1.7756984364642867 -0.9106657989482476 0.1870991833544816
H -1.81517203986899 0.10541215167837847 -1.2827706203190532
H 0.31223069805344217 0.15400717836926428 1.1773724699001062
O 1.2181495092431185 -0.3210846128008039 1.3549847907601544
C 1.1681116730283563 -0.19849138663756996 -0.6331268085848872
H 2.054687606185602 -0.7994552450737336 -0.4816916476336844
H 1.3567172525408806 0.80418099081674 -0.9727081012490865
H 0.4092094497993128 -0.731753562803328 -1.1797200729027646
H 1.8605462034259355 0.3509317243393959 1.6105644168804463
