18
## STRUCTURE-ID: 64568bdc59ae441b17390814 ; CHARGE = -1; SPIN = 1
I -2.233292925508711 1.0614733779822167 2.052192103935038
C -0.8304144678609183 2.064241169681103 -1.5027260351361587
H -1.8305747550722649 2.477672506964499 -1.6306714607059463
H -0.24368743319631875 2.709623652331411 -0.8522853179790655
H -0.3514680520766351 1.9903322185918297 -2.479028003365179
O 1.0657931317396827 2.669874604194373 1.129473436975233
C 0.36558692419781247 -3.888735603487427 -0.21112280638666583
H 1.335585710922041 -3.95158781365329 0.26846851204772726
H 0.44024389868000946 -3.350524753568217 -1.1490366279046325
H -0.07425310458412236 -4.86755377261716 -0.3518551533675977
H 1.6302245124149055 3.239286506497893 1.6898675788369548
Rh -0.14981911096518385 0.12763084001927008 0.7131577405218859
I -0.9450075210808084 -2.7594982577522056 1.0913215047646563
I 2.05083614042994 -0.47470864970296867 -0.6105365279191656
O -1.5891179675922917 -0.22600121639128593 -1.4760431866499009
C -0.9735321942114181 0.6745321576571932 -0.9582240297168683
O 1.4182670355557978 1.0548589702076636 2.65710152730753
C 0.9146301782084678 1.4490840630450799 1.6199467447421363
