12
## STRUCTURE-ID: 6456681ba7c0385bc64b65fe ; CHARGE = 0; SPIN = 1
O -2.554101601467372 0.4734801050160636 -1.3035162467081245
C -1.9888779995820591 -0.8006917457013357 -1.525486086617818
H -0.9419797578483519 -0.724523493376094 -1.8341053816460031
H -2.549198372888861 -1.3614106131358423 -2.2797439714155256
H -2.042710695361687 -1.3329511412299848 -0.5775351416745098
H -2.5279220131268256 0.9737291196550955 -2.1278796645081526
O 1.9136808709005375 -0.19879714487468794 1.1782156613659465
C 2.369132916015091 1.0955307633778801 2.059076010554049
H 2.3044427694314917 1.8955340952995 1.2866012559685744
H 2.6894402623181186 -0.3582801229811845 0.6086184758151411
H 1.4537272161915138 1.250862253906789 2.674072149582248
H 1.8743664054184077 -0.9124820759561917 1.8416829392841763
