12
## STRUCTURE-ID: 64566b6b1df8f4543d64e483 ; CHARGE = 0; SPIN = 1
O -2.6096285475510728 0.3778202595755664 -0.5756177786228152
C -1.394035593944328 0.3340833942469932 0.03624628105701399
H -0.990609341350832 1.323235010283443 0.30418980474859253
H 0.6970913417241205 -0.23660795938226595 -0.2510094941219004
H -1.3527980920260547 -0.34139769330176634 0.9051218734677239
H -1.3579500413963166 -0.09542394104101437 -1.129420525017202
O 2.080214543719198 -0.014589260588938028 1.3486951818429416
C -0.08306244806897724 -0.32504861488604786 -1.0027900191837382
H 0.1989189895475875 0.29472861367708586 -1.851828936205399
H -0.17091424510778558 -1.3773733657926994 -1.2672549035391218
H 2.6054278535228743 0.7667648136233414 1.5383496065508904
H 2.377345580931675 -0.7061912564139422 1.9453189090229432
