13
## STRUCTURE-ID: 64566e0a684dbe1309242a33 ; CHARGE = 0; SPIN = 1
Rh -1.1395989867397647 0.8076523907556312 -0.38361582147101786
I 0.032606969512950994 2.2277130411309827 -2.265481459783824
I -0.5516155092483009 2.4680598845164448 1.5658411730320618
O -2.9839492567120987 -0.4607090509792643 1.5924596879818753
C -2.2267186318546193 -0.03643382412940563 0.8481345233181133
O -2.1507538354478757 -0.8024731081489243 -2.6887661924666526
C -1.7283470147316125 -0.24032214270011903 -1.7871711344508525
H 3.547398742205232 -0.40617433374117495 1.7554880875004413
I 3.229908874216012 -1.5813400306008996 0.7382461264321711
C 1.0472694977654213 -0.5201560912985032 0.17291326179544386
H 0.7983180347524258 -1.2144253589169232 -0.6198705170067929
H 0.6244049237151716 -0.6708744790849385 1.1581139822352782
H 1.5010761925670628 0.4294831031970614 -0.08629171711622138
