12
## STRUCTURE-ID: 64566ad03563267efd068a18 ; CHARGE = 0; SPIN = 1
O -1.1234823210867924 0.47582826231889774 -0.6594580966864876
C -0.9379845122006718 -0.5383624410026631 -1.6249504462609683
H -0.25831562164727684 -0.21306445095922696 -2.4177622137084733
H -1.8895029641773033 -0.8474825242724511 -2.06564968574427
H -0.4996302168055423 0.1692894090509427 1.1435895236514104
H -1.5297959869659423 1.2427321325216163 -1.080705107282924
O 0.061150200518643005 0.018653935269220427 1.9226431419308296
C 1.399252754780672 0.2309855423497323 1.5368068546652307
H 1.7023653619243622 -0.46119340742206577 0.7445341475282732
H 2.016531504217335 0.05346644634101584 2.4166954042218505
H 1.5568165213520986 1.2576406548139976 1.191334990566185
H -0.4974047199095784 -1.3884935590090075 -1.1070785128806555
