12
## STRUCTURE-ID: 645669f1b161542842662c6b ; CHARGE = 0; SPIN = 1
O -0.6618722154136536 -0.17165431164635153 -2.6527406530623154
C -0.9498188110469468 0.1199670509844871 1.0646376784146925
H -1.0977107569978286 -0.9469416177375473 1.2643062012265252
H -1.8623965093449075 0.5444807331630477 0.6530494618789349
H -0.6979152749405828 0.6267724769411669 2.0022959586681384
H -0.608228493699823 0.7055433571627232 -3.0403692056218268
O 0.06189583251651421 0.3175213165784082 0.10041569180521721
C 1.3144424688380385 -0.18817342963401462 0.5101927937290961
H 1.2642854610200533 -1.2696616806468628 0.6778685741546278
H 1.6491674592900278 0.30074935563426475 1.4313586350482874
H 2.0163271565533574 0.024744230364797552 -0.29260309748995506
H -0.4281763167741769 -0.06334748116409782 -1.7184120387514454
