19
## STRUCTURE-ID: 64567affc2e5ff7da2242a3e ; CHARGE = 0; SPIN = 1
H -4.8665605468914315 0.07052308064285506 0.724203180532568
I -3.329858858273013 0.03967855598917714 1.2624288021175802
C -2.612563057239812 -0.39247419983352055 -0.7178945961528224
H -1.6539694771139328 0.12080972031143505 -0.7857997263437665
H -2.5063044091369164 -1.4689267419407612 -0.7961502878515174
H -3.327761939244494 0.016044199942581196 -1.4231938298808304
O -0.1649630085649015 1.5494936663739476 -0.23092767584427157
C 0.9682280824867965 -2.33003092795972 -1.2699722548666912
H 0.045094854909800815 -1.8437173476561435 -0.9829676689362967
H 1.243339062750127 -3.088472654245462 -0.5468181704185798
H 0.9160502096846435 -2.733812592569027 -2.2731192132153812
H -0.11031093641543396 2.3052650727829387 -0.8195317071942984
Rh 1.4071971294134895 1.1787034296880303 1.0198640791342495
I 2.5235077475523724 -0.8048497016416591 -1.2558583099432976
I -0.06927373689549234 -0.720236765555965 2.067289273007096
O 3.6524554716615354 0.781423742943726 2.9485621578486967
C 2.7705997738095056 0.8824006121180282 2.205923768947729
O 2.8533474597684547 3.703548746194581 0.33148603348253514
C 2.2617461777386962 2.734630104414954 0.5424761455773155
