18
## STRUCTURE-ID: 6456b7389a64df26c041e588 ; CHARGE = 0; SPIN = 1
C -2.5298794318373514 -0.5800811916197317 -1.0101146715211977
O -3.3176267701904787 0.2304092259389162 -0.9051032831832857
H -0.38774969430484246 1.3996355567598302 0.4028021394134773
I -0.42059805007849266 -0.0988511376397385 0.9178149438054489
O 1.94903935403194 1.6408536599742944 -0.20879995048720731
C -1.9339541325263652 0.6619271169802415 2.3852209690883246
H -1.4786256046009882 1.4773936592551973 2.934487799404796
H -2.1779628082747013 -0.16226743164518992 3.0449518178476094
H -2.8053293907676737 0.9836165562148966 1.8254519437008947
H 2.5256001465181765 2.4302695445339637 -0.19999117983233883
H -1.6445581886352019 -2.313691882623038 -1.283910819125326
Rh 1.2146190831723178 -0.8852429628148424 -1.1681495927490817
I -0.3124831590558218 -3.236441308545873 -1.4026805801936317
I -0.33766911146715384 0.3961601320222638 -2.8555781805912708
O 3.3338031191701587 0.8790788822151756 -1.7912240213393482
C 2.344633022041175 0.7139532149919238 -1.0994784296757374
O 3.4483987555558793 -1.943445253235865 0.5064888311874026
C 2.5303428612494248 -1.5932763807624406 -0.09218773574951608
