18
## STRUCTURE-ID: 64567234726ee031eb3ae5eb ; CHARGE = -1; SPIN = 1
I -3.198430919173263 -2.092234122294983 0.07680755366980908
C -2.0007545418376886 -0.6942407465447985 1.150685984932319
H -1.8830668045819816 -1.050331237629977 2.166471738989884
H -2.4976987191326607 0.2677867267447972 1.130279260089286
H -1.0001499829467217 -0.6478582724346369 0.6593306984108925
O 3.1197492278777994 -1.238537606816441 1.1826873610884467
C -0.7440048439477482 2.964897158409295 -2.024465683833939
H 0.1628667927005133 3.4813766496420913 -2.3152673617503274
H -0.9497894321699619 3.1248849889332755 -0.9719267110213233
H -1.5839255577108868 3.245544322013784 -2.647648392058954
H 3.498994552542916 -1.691502006115414 1.9613116730350229
Rh 0.8781445406829136 -0.3203007538384323 -0.2537653919915842
I -0.4069495328164285 0.8235392129092258 -2.315677846490833
I 1.038423434079788 1.8646076893717065 1.1673025947209223
O 1.4476631498462968 -3.03593629655587 -1.3451166476703678
C 1.1588684655732318 -1.9571664884121556 -1.0128136933609198
O 1.2007068492975357 -1.8059255166446337 2.1645525990948187
C 1.7593533217163475 -1.2386037007368276 1.22725226414683
