21
## STRUCTURE-ID: 645676a23723aa24746dc166 ; CHARGE = -1; SPIN = 1
H -4.636764115756919 -0.5325107035146822 -2.29288765113307
I -4.416485087756428 -0.10423849696669028 -0.6870769372160953
O -3.6409283608934615 0.4495707123108874 1.4743111136001321
C -1.8472977713407497 -0.3075625452774142 -0.8976741149542957
H -1.8522772069520803 0.44638606962716787 -1.655968570569381
H -1.9435910938674252 -1.3358064371750222 -1.1755835144386242
H -1.8729804047382363 -0.028600993774261015 0.13407961276253155
H -4.3761606354614075 0.6562995128523407 2.048154490913229
O 1.7099837041322696 -2.3407910388854534 -1.9521855661347702
C 0.23177007286088164 -0.38379509791943056 -0.8717619758094421
H 0.18513488737985473 -0.6780905052454799 -1.8983474771495905
H 0.24948909716592682 0.6540814366848999 -0.6006827663899322
H 0.1419117244368909 -1.1326560480845198 -0.11191869446860526
H 2.404304862889653 -2.9180124234058633 -2.2715153252163045
Rh 3.0079064339617942 0.9631197746928473 1.1810195943231547
I 5.343344806806567 1.2233169068989724 0.13864203278289186
I 2.6669636806937076 -0.597798087451591 -0.8599849473489974
O 0.3707697475997138 0.32024350788637584 2.4290250282900727
C 1.3542575656974143 0.5971365841397477 1.899758854665094
O 3.542443178026762 2.915311328288931 3.395359714568119
C 3.378204915115192 2.1343965443181965 2.575237098923869
