18
## STRUCTURE-ID: 64568a123d8ac3772c068a0a ; CHARGE = -1; SPIN = 1
I -1.5922250434648388 1.576855770446589 1.4669139363013777
C -2.1064388568815335 -0.42124256619884354 -1.901654143578313
H -2.4946011936140615 -0.8038839671808126 -0.9579429123906749
H -2.9206075983996187 -0.276772053417776 -2.6110963787437185
H -1.3913885210523382 -1.1470079673665847 -2.2894354787109807
O 1.0101138748465206 -3.04504681709566 1.5104778464775361
C 1.4804339517116836 -0.4641585798525691 2.259474179683138
H 0.6833076360006295 -0.18278009065204268 2.938472590173801
H 2.0908497593746724 0.39329225281605723 1.9964901680407354
H 2.0702891884357926 -1.2826884730343682 2.651392169401236
H 0.6889660490442454 -3.799475885348222 1.010780871521749
Rh 0.13987698408094992 1.2302069400659015 -0.5088887729797761
I 1.6526429541255914 0.5837953131231256 -2.591328649665768
I 0.5953500214568574 -1.1925897816818434 0.47147352233947537
O 1.757341242091822 3.5614408157217365 0.146474129498252
C 1.4721031385920316 2.4401052640145764 0.2340507444200811
O -1.7310759143751648 1.944024485120406 -2.1690337781128903
C -1.4049376719731599 0.8859253405203753 -1.6566200436753507
