12
## STRUCTURE-ID: 64568ecb7e2a2577605ede00 ; CHARGE = 0; SPIN = 1
C -1.5441938219698519 0.30285417407365633 -0.5717115849074998
H -1.9652650232046733 -0.591704990231368 -0.07977564159283447
H -1.907174929543038 1.2041039300849345 -0.07975829132089479
H -1.8350565099277658 0.28423380717123836 -1.6228408885441374
O 2.2753887544633056 -1.8714896301722868 2.6833405100807366
Rh 0.5167523157760094 -0.2731042266151484 -0.1443109021019988
I 0.6743873165813765 -1.7598379333210419 -2.2621455593067417
I 1.8435475221296649 -2.1876781404767125 0.9216212884560858
O 0.8355574613275103 0.9238596153923785 2.5936132492394606
C 0.6511662363164223 0.5443914354920635 1.544993662195009
O 0.21659977715070702 2.1785269042443094 -1.813169479943279
C 0.23829090090033508 1.245845054357976 -1.169856362253901
