12
## STRUCTURE-ID: 645667e42467bb5861493a78 ; CHARGE = 0; SPIN = 1
O -1.7578921510429428 -0.5609245488239081 0.04561820578802232
C -2.011262775919222 0.43308425393190125 1.0110239699430204
H -1.5821759627869167 0.165644355944606 1.9820669295164137
H -3.0934130234311734 0.5106986273528076 1.111093013006487
H -1.6111286468488404 1.4034266296323832 0.7007053935846376
H -0.7943571164625903 -0.6225672831731637 -0.07227683622384806
O 1.1090297883088875 -0.4514046189746843 -0.0007739840797423269
C 1.8828469020194596 -0.05386754798611898 -1.114315089651329
H 2.229987943365134 -0.9175011672285223 -1.6881330827684915
H 2.7431701439286473 0.5462416728504274 -0.8053087706429377
H 1.2362646548839182 0.5534437200882829 -1.7447261805690262
H 1.6489302439856253 -1.0062740936140118 0.5750264320967761
