12
## STRUCTURE-ID: 645667d959ffc53e94390820 ; CHARGE = 0; SPIN = 1
O -1.7854805503173934 -0.712342719847326 -0.2740120247409709
C -1.3764719971872914 0.3713820640819354 0.3691731617776886
H -0.36087700993684074 -0.014082300949116744 1.6150694176214622
H -1.9785167563226818 0.7085123747781635 1.2102913342852955
H -1.0414081561112414 1.1612543174574106 -0.28336927598294037
H -2.194352564580847 -1.369178132049628 0.3141659099832806
O 0.8230565704114992 0.028783385033536054 0.10946761879510071
C 1.6755637319965684 0.02269383344803572 -0.9634107458633036
H 2.2988970488509914 -0.8885338294243443 -0.9878502775963277
H 2.3524992205435797 0.8986737148388 -0.9778597120225762
H 1.0968298666693224 0.03443602731538125 -1.902076597701483
H 0.49026059598432825 -0.24159873468291618 1.7704111914447085
