12
## STRUCTURE-ID: 645666b1e662b66a0b0876f0 ; CHARGE = 0; SPIN = 1
O -0.7183164248253546 0.5695148019057027 -0.13957746264971851
C -1.5355367605432764 -0.05987779092292263 0.762979261020168
H -1.294590180748286 0.23286708874631976 1.7985076567450107
H -1.478578650979543 -1.1588235964552687 0.692364096893823
H -2.5800820321008255 0.23162800306691006 0.5778381683007532
H -0.1206917275536887 -0.15959088054032303 -1.2058029667613048
O 0.7651581516615276 -0.5403436198427739 -1.593532841494509
C 1.322216989729306 0.16004039901508832 0.18720509252942522
H 0.918764885394344 -0.27152992992976166 1.0873105464753616
H 1.378288741226094 1.2337989994091862 0.1807178086877314
H 2.2245666958144334 -0.3435432642924397 -0.13243685046427142
H 1.118800312925275 0.10585978984028832 -2.215572509282468
