12
## STRUCTURE-ID: 645665b245fb5d11e02c50c8 ; CHARGE = 0; SPIN = 1
O -0.8463764134440095 -0.6123695909342735 -1.067513651065517
C -1.8003944638934055 0.30314251261875147 -0.5687504340809209
H -2.013207221922316 0.11762756901383717 0.48833051319753323
H -2.7316093970053847 0.2589274976497838 -1.1388932057399064
H -1.36891592944502 1.2966196485939703 -0.6764486323702199
H -1.2228830818884429 -1.5004246094879106 -1.0448373832254274
O 1.8983303416572677 -0.04132772694256069 -0.3889545863206964
C 1.7763797851093954 0.07989696407717944 1.0090386599097172
H 1.4793187987748373 -0.86822218888932 1.4695647146991153
H 1.051458628186213 0.8527195981690906 1.2833433536946028
H 2.7567584952641573 0.36429099367980616 1.3898120049938882
H 1.02114045860675 -0.25088066754835286 -0.7546913536921687
