18
## STRUCTURE-ID: 6456b7645470cd42a02a156a ; CHARGE = -1; SPIN = 1
C -1.3889060525347074 2.3930363076715735 -0.6497140918009916
O -1.4780172850003324 3.5172441291978758 -0.9687882713554581
H -0.36121710506085036 -4.057565331206216 3.5975858565223446
I 0.023594346390790118 -2.6694150097994234 2.657508285052075
O 1.2834769287568448 3.1023061722097514 0.10373806477810169
C -1.420112043227248 -3.527882636053422 1.2807111509861862
H -1.4736313802356165 -2.8273037948351396 0.45233166958074855
H -2.368072537068669 -3.6021630064533134 1.8060313857974992
H -1.0338660222782912 -4.492366840789484 0.9638170355925335
H 2.103930085070521 3.5020945858356956 0.4518859226007827
O 1.6200615174503832 0.37136522605846417 1.851221116600674
Rh 0.004248715990126537 1.1044658334129653 -1.4621159272067705
I -1.620518885317671 -0.861899556455504 -2.147417252993013
I 0.4049015394947709 -0.3331605043911072 0.6204284995887228
O 2.73729177455989 1.7735855907003832 -0.9338472064766186
C 1.5574618525635033 2.0585170230378216 -0.7302616707356472
O 0.9363065171938979 2.5955185470404114 -3.87556811960604
C 0.4730680332524055 1.9536232648186884 -3.017546446924572
