12
## STRUCTURE-ID: 64566814674fd631da6cdb4b ; CHARGE = 0; SPIN = 1
O -1.9403288124307774 0.8100048159884191 0.08826487126580383
C -2.1984887230522565 -0.06684938470923353 1.1629452317136268
H -3.1918208289967245 0.1020220864361102 1.5893401401760956
H -1.4452807126062759 0.03293730201990352 1.9506259690936096
H -2.1540642759447315 -1.0773236967962152 0.7599584683793577
H -1.9972760002971388 1.7180690288276739 0.4091873974266229
O 2.5904002682119422 -0.07892920265720568 -0.015966502409580047
C 2.0942232724081746 -0.4766211062781132 -1.2760501797157695
H 1.0032723924777711 -0.40612669775643045 -1.3178354548973341
H 2.3893710249220597 -1.515577399180013 -1.413282300926821
H 2.5263671410225195 0.12447632792362705 -2.082290289750222
H 2.3236252542853606 0.8339179261815082 0.14510264964464534
