17
## STRUCTURE-ID: 64568e9653239c54dd2eaab0 ; CHARGE = 0; SPIN = 1
C -2.3136935537328 1.6225465835518844 0.2853983746627172
H -2.006095160948619 2.5876128560734455 0.6842198404625844
H -2.828150072389458 1.0557466349868294 1.0750214657754544
H -3.0209786723286807 1.764338077458204 -0.531767947640978
O -0.23041390125014552 -1.556020709587982 0.7868526572874566
C 2.8583729829011997 -1.7147410275143242 -0.13928992236315807
H 3.1339805034414234 -2.6017634389463984 -0.694952492636922
H 1.981429556090539 -1.8925267566320523 0.475707921733584
H 3.6868284962070317 -1.3445765496798652 0.450692720478137
H -0.6397187654715655 -2.3345156369450093 0.3879205877319052
Rh -0.7549336923890281 0.13267536952639078 -0.004817216972018254
I -2.120107809780387 -1.1618094787861437 -1.838023139185644
I 2.331762523059739 -0.18820092729672927 -1.5650721196555073
O 1.124694625882528 0.8375471463357488 2.2171509285873245
C 0.35461019629412255 0.7444671275141731 1.392205476032833
O -0.7408225407268623 2.4422647670630964 -1.8777347230041137
C -0.8167647148590286 1.6069559628786996 -1.10351241129367
