12
## STRUCTURE-ID: 645665a3249d6d250d07102b ; CHARGE = 0; SPIN = 1
O -0.32167665947567564 -0.14129123517836165 0.25451268060048804
C -1.7450674331612783 0.09535240641607332 0.3622375589424412
H -2.0819928397764387 0.8586587055255929 -0.33857129020258253
H -1.9471192267225352 0.40422126253520774 1.3858697675071856
H -2.254203031030174 -0.845872398014323 0.1635149882067688
H 0.18100344923822012 0.6895295943353232 0.43146662003396
O 1.4548189684803237 -0.5432375648504891 -1.1802447843615824
C 0.11734344193006972 -0.6788356581187488 -1.0862308580786124
H -0.2576995582568023 -1.707716607966187 -1.0968932859009415
H -0.3531095221716229 -0.06926661062084845 -1.8653987853805012
H 1.942574631508906 -1.2243786464581106 -0.6939876681424787
H 5.265127779437095 3.1628367523949703 3.663725056775693
