12
## STRUCTURE-ID: 645669eb1b78ed5ca237419b ; CHARGE = 0; SPIN = 1
O -0.3040082847647597 0.26993230679560065 -2.720343148987592
C -0.9943603641685711 -0.26876167840974885 1.0975507250961019
H -1.878565196449433 -0.7418951257430703 0.6771149981060621
H -1.2273817269978313 0.7632562886496715 1.381400044104762
H -0.6708729703186012 -0.8189620027131659 1.9876314756579185
H -0.49146896152855485 -0.5889545040955816 -3.1065351651082875
O 0.0013477113851020996 -0.3048531804035146 0.09795925884693145
C 1.2169589064094701 0.2797270495096131 0.5148657685035749
H 1.6175239057830348 -0.2390885239137075 1.3921847114964951
H 1.078133619237068 1.3388944494318733 0.758175049715706
H 1.9117364709845355 0.18483359583843764 -0.3164942465793245
H -0.2590431095714594 0.12587132505359647 -1.7635094708523382
