13
## STRUCTURE-ID: 64566c22f8816e0fbe1d80be ; CHARGE = -1; SPIN = 1
O -2.083714598805495 -0.25769098542086194 0.1809886860849116
C -3.037525087666724 0.7627422779637888 -0.07682608834458439
H -3.6507826026213097 0.9651364126059438 0.8020819120728706
H -3.64531361162174 0.3238674984898759 -0.8697798390023542
H -2.569472943743013 1.6771934814100726 -0.44849254102122155
H 0.7680063409189788 -2.303734677137632 -0.8241034829635933
Rh 1.586173152572151 -0.15280660627608214 0.12806935454427743
I -0.6388442037372964 0.050644308782239335 1.5185495162532148
I 0.5111505874889722 1.3000523360033847 -1.737394373841553
O 4.050728184168962 0.27451257196671786 -1.490475116038337
C 3.1396767135836288 0.134420210076335 -0.8077662776199687
O 3.0691508803585914 -1.7199135445261036 2.1836606158481566
C 2.5007671891042746 -1.0544232839376797 1.4414876340281928
