12
## STRUCTURE-ID: 64566db4a524d978bf07101d ; CHARGE = -1; SPIN = 1
Rh -1.3809823131944303 0.10515586694097581 -0.3047976754579246
I -3.3065766813893323 1.0559110413855561 -1.797072873511926
I -2.001186071258598 1.5517275296468531 1.766892911243895
O -0.06671397219925547 -1.8446818043207718 1.4859735525794557
C -0.2816561767881335 -0.934505548916461 0.8006054773290555
O -0.8090293664456473 -1.6738670253929366 -2.6356364126684255
C -0.9989076841802467 -0.9839919864633498 -1.7394070380321869
I 3.6552483347017746 1.3830609148667077 0.5327587123675457
C 1.2350840137253551 0.2906637656966526 0.478613292113023
H 1.7656560576636404 -0.534026958734068 0.044406360757088204
H 0.9307544199657555 1.1066637935805739 -0.16812950194955156
H 1.258309439399129 0.4778904117102676 1.5357931952299515
