18
## STRUCTURE-ID: 645673366940bf73aa399e40 ; CHARGE = -1; SPIN = 1
I -4.777725935390839 3.8368627845877032 0.6538510145185571
C -3.127241776627524 2.057092432278434 0.7846616817149785
H -2.76536193230794 2.396312408539209 1.735740045576412
H -2.6369538954856266 2.3712868756493926 -0.11763301710867886
H -3.8757833617612105 1.2899165017438907 0.7432376930908875
O 3.5334264676771507 -3.0917055093700325 -0.04937717860867828
C -1.734623507122618 0.5685522666671422 0.8925345958755091
H -1.998237156414507 0.14983288963832977 -0.05758639397091275
H -0.9014476238638155 1.2396738373799274 0.944079939155921
H -2.101229527927397 0.11425228612746223 1.7913788774841635
H 4.300603251893576 -3.3045132580289343 0.5200507474043033
Rh 1.7966771262428038 -1.0208947269739712 -1.088748669215418
I 0.22047907003040274 -1.4295846281043987 0.9022750642622182
I 0.4368026791275532 0.9192051780217008 -2.2324506260875485
O 3.5105314028265804 -1.85482057248674 -3.385053797552835
C 2.8375460878500705 -1.4803256305890133 -2.514157214890731
O 3.9975619299032426 -0.9904923019462382 0.5516733031216616
C 3.2849767013500593 -1.7706508331338806 -0.0744760647697523
