18
## STRUCTURE-ID: 64568adeceac8e24735eddf4 ; CHARGE = -1; SPIN = 1
I -1.13018206271345 -2.711977272019356 -1.1071968157428014
C -2.4703376467458056 -0.05492352208871404 0.7070756911376505
H -3.1347974410537325 -0.7181123157660879 0.15107636925874346
H -2.642150520408181 0.9663424041235686 0.36305622569926616
H -2.7331094090270307 -0.10799868937991283 1.7683362767326662
O -1.5188254756164237 0.9625328004516217 -1.8352724075576055
C 3.4329857699645223 0.5866525685613577 -0.24734127853950444
H 3.358279670582189 1.161002848665771 0.6699107209817398
H 2.9362187739816816 1.0928493683943792 -1.067831486506539
H 4.46027358340472 0.34293051602504593 -0.48862155850953015
H -1.3386951345992308 1.4121811227887506 -2.684433608360068
Rh -0.4502031523434254 -0.5939704009552382 0.39932875788868893
I 0.25546787339342675 1.65299486750412 1.6502734888660846
I 2.3774493508599037 -1.2751511345726725 0.05172100450980558
O 0.663645588863872 0.609257471091537 -1.9219327935914619
C -0.38986125876563044 0.4434428230523401 -1.308586812912511
O -1.0319017525408856 -2.168285917871125 2.9096959209273456
C -0.644256757236524 -1.5997675380054144 1.9907423057180802
