12
## STRUCTURE-ID: 64566830070a0e25195ede09 ; CHARGE = 0; SPIN = 1
O -1.9072240816593702 0.13052738269525724 0.3421225272114798
C -1.0051483126088625 -0.6710548779540629 -0.7814207040411438
H -1.1538231128369592 -0.11591260548197553 -1.7020600604803373
H -1.5127280901008495 -1.624352608616855 -0.7553360211860818
H -1.5065061605076657 1.0023397406845118 0.46005533806528587
H -3.258368410047639 0.6453996004040978 1.1326311684252885
O 1.1451105725629236 0.34040852207898525 -0.36849064429612977
C 0.24369070093967854 -0.5938469495326689 -0.1550771404701896
H 4.088555717109636 0.6245661409606328 1.3573126493737688
H 3.435713983673856 0.6027956884448746 0.9349491205640789
H 0.4848262746683553 -1.2337228826877655 0.6821169017275004
H 0.9459009188068023 0.8928528490048009 -1.1468031348934453
