21
## STRUCTURE-ID: 645675d4b59d79104037419b ; CHARGE = -1; SPIN = 1
H 0.17721822584449015 5.2547003860675305 0.28171929547995617
I -1.6442320326166326 1.418925796231154 -0.49162543115041774
O -1.8236503211150854 3.3611672850235683 -0.49418386716410023
C -2.211268715184777 -3.559702023932637 -0.38743448117932705
H -1.6929269466389794 -4.080394952292365 -1.2058914581365907
H -3.299348833487515 -3.666058528774435 -0.42066409628571544
H -1.7778405644539823 -3.7053293129942158 0.6060168589582233
H -1.0871525610011668 3.706736461634159 -0.020161315885768593
O 0.15247586083196196 2.456194345791034 1.6727845292227983
C 1.0481175610119173 -2.9277850924366264 0.597454673410463
H 0.6135272519357433 -3.4991230966926867 1.4194287959895178
H 2.1117667238744686 -3.1181189540568255 0.4884030293242644
H 0.4772813231654685 -3.0353149132714408 -0.3286976855373469
H 0.2874271446383723 3.400272814094856 1.7476969075000623
Rh 0.9796624319643186 1.5237973738484643 -0.06506415506475496
I -1.794800703112923 -1.267046030922699 -0.9729760764723435
I 0.8074072765986989 -0.7434167401802588 1.2861526445418894
O 2.870541259129153 3.7608331704734574 0.5957188233070867
C 2.2331463428893317 2.9053921170710186 0.13180742543546403
O 1.9756502904051252 0.8485413338750921 -2.762501296933499
C 1.596998985321974 0.9657285614438538 -1.677983119359839
