12
## STRUCTURE-ID: 645669eb1b78ed5ca2374198 ; CHARGE = 0; SPIN = 1
O -1.0886123721993421 0.13442540740015038 -1.073016500507141
C -1.8667276276587916 -0.10359473540359843 0.0833848190230297
H -1.9254596179669463 -1.1720712042333368 0.3093387862020707
H -2.875846700123367 0.30063579626629694 -0.027555001703983496
H -1.3702908048470606 0.407622107449748 0.9062343823825604
H -1.5241280032195146 -0.27167606173652253 -1.8322645130308697
O 1.6903945083077683 -0.40678866499959704 -0.6736566683727341
C 1.9797791361181263 0.21367117153490772 0.5565393053879384
H 1.36776646936834 -0.19843109718990812 1.3661302074311141
H 1.8236361942300696 1.2962148566281704 0.5062653378405968
H 3.0290097117881727 0.017009537490523 0.7742598654386813
H 0.7604791062025573 -0.21701711320684822 -0.8956600200912564
