12
## STRUCTURE-ID: 645668a5a158e136ae6dc171 ; CHARGE = 0; SPIN = 1
O -1.510533926120934 0.17654010445365764 0.08150027810086954
C -0.22594132011195756 0.3718442794408347 0.10065897175716282
H 0.1804884443974275 0.4362933159246303 1.1057590612554897
H -3.0810863834726416 -1.157745517117979 1.8875560195552465
H -3.277535721540281 -1.6797679551697953 2.4300912387916322
H -1.9310700990253704 0.2736575544458404 -0.7940011345751243
O 0.6115175359110373 -0.6502888755287779 -0.755691134508055
C 0.6003016755501808 0.7717962928603719 -1.03976460199299
H 0.12473570694408273 0.9764919921460792 -1.995267929184388
H 1.5354975205837151 1.2949359407251548 -0.8827601951266342
H 1.4386107682995597 -0.9872458000776967 -0.3522533739604162
H 5.535015798585184 0.17348866789766498 0.2141727998872297
