12
## STRUCTURE-ID: 645665b196f8866bb6242a38 ; CHARGE = 0; SPIN = 1
O -2.024265192121701 -0.21414592400130303 1.0675728716305164
C -0.29433203842353256 -0.08025612297925688 -1.1492379962658748
H -0.5745343783349091 0.5665339864390924 -1.9735423991883994
H -0.06461562898404452 -1.0855091939647459 -1.4910278332466023
H -1.1276683650123758 -0.13353736807500097 -0.38070371607207903
H -2.6989888846335157 0.47348485755441583 1.0583147666598363
O 0.8331644192801151 0.5292551396028974 -0.47197891208057163
C 1.0530901480356478 -0.025796719973455107 0.8446830554237678
H 1.721573730125958 0.6426065712170471 1.3804916538190266
H 1.4567427107186328 -1.034962135687326 0.794339399684488
H 0.07157407209203587 -0.057572756592309794 1.3336928896229132
H 1.6482594072576924 0.4198996664599424 -1.0126037799870091
