21
## STRUCTURE-ID: 6456761be9aafd62d85c71bc ; CHARGE = -1; SPIN = 1
H -1.801319687748094 4.461897828250862 -0.978838625600458
I -1.0480828479714273 0.9903111093781763 4.1192745750121205
O -0.888739081460229 2.3749426435256633 -1.2795041764051858
C 1.0901786394943138 -3.9926436263588343 -1.115683756243267
H 0.7274616361455143 -3.9497086884683545 -2.1362885730833003
H 2.1700020120502295 -3.9415749024315123 -1.0327590592314357
H 0.6835364101221294 -4.835987182299655 -0.5774625184681274
H 0.9896853998689821 1.8680306367547932 -1.3899245912912304
O 1.8938211201294204 1.7515846050020991 -1.0723348734696514
C 0.01995169467181765 -2.6848788150875516 0.2390506970307029
H 0.44805245249446574 -3.0767145114177685 1.154231331112933
H 0.7726288703060551 -2.8879201605480302 -0.697509121605524
H -0.9692528184307203 -3.0658127393305925 0.013986586238489277
H 2.2809727052241335 1.0644676956657346 -1.6280379822447462
Rh -1.1698621432965715 1.8899852371388342 1.5662185565102182
I -3.69866202821835 1.1940199132513722 1.1701064693779466
I -0.15863321618997314 -0.3507005346807221 0.4850015433380769
O 1.286446269833143 3.554379117668233 1.73512711024963
C 0.3882641027606521 2.8138999132969897 1.6972225643608292
O -1.7645308529496713 4.0443885163205096 -0.0959115239034725
C -1.251918636835765 2.778033944369734 -0.17596463168468643
