12
## STRUCTURE-ID: 64566b783dd61b77ac2fdd80 ; CHARGE = 0; SPIN = 1
O -0.6049457787814538 1.4627842351586802 -2.4545529138951605
C -0.24814746143806662 -0.903218217455781 1.5668888649913544
H 0.2308343956692936 -1.3734874051561472 2.423705682651345
H -0.9282137972623244 -0.1150257854443369 1.8890879772089144
H -0.8028617200137056 -1.6502626333945847 1.003382803733278
H -0.3246310911635075 0.9933849039303687 -3.2493892808272467
O 0.785086870869035 -0.3908591732753614 0.7045434808637393
C 0.22057491303719162 0.33125135561130065 -0.5836972410149408
H -0.30589413273866584 -0.4364394828930585 -1.1252781440288466
H 1.092678870848628 0.6823315278735099 -1.1081636917548812
H -0.42964706131904085 1.128010541574517 -0.2630223342563727
H 1.3151659922926076 0.27153013347089705 1.1964947963287815
