12
## STRUCTURE-ID: 6456676fee4dab7fd528a81b ; CHARGE = 0; SPIN = 1
O -0.6934227997581607 0.4269847072229146 -0.050524202941168245
C -1.1736119649592116 -0.19117896510566426 1.1748265411969332
H -2.1866211573500762 -0.5424300445821638 0.9981417291013257
H -1.1788935809057142 0.5795157057768955 1.9433137690398095
H -0.5244594646820422 -1.0139717885363924 1.4745103449779706
H -0.8432362560975596 -0.19173547288387072 -0.8003999350775426
O 1.5319429934931188 -0.2668906121132633 0.2900699597681477
C 0.7513008944031005 0.8067587853198457 0.030301378788740965
H 0.7502277172506122 -1.6764720113937561 -4.528370671052971
H 0.8004831090863627 1.4918827281060738 0.8816150005611266
H 0.9547810723142872 1.3238097669409403 -0.9117504906628149
H 1.8115094372052871 -0.7462727987515633 -0.5017334236995533
