12
## STRUCTURE-ID: 645669aebfd4dd130c5fdac0 ; CHARGE = 0; SPIN = 1
O -0.902222657069106 -0.481200544970228 -1.5423945336439546
C -1.2500799483214788 0.4605263251070889 0.17962040672461557
H -0.9374421748025572 0.005694949291571977 1.1039653735184933
H -2.2500693750953005 0.15917258562336856 -0.10203889185690714
H -1.059870127919053 1.5160199393032348 0.1019755195160259
H -1.117771182960473 0.17819139027462963 -2.21189097298122
O 0.8221307573825843 0.3822889662570076 -0.19043630213537877
C 1.501874267796242 -0.3351610592028087 0.7590218841412341
H 1.2042294500539248 -1.396752215487685 0.7821127278591988
H 1.3543101995003604 0.08736325562114915 1.7668335945126725
H 2.580452479921187 -0.2968171025922053 0.5453770670584077
H 0.054458311513669456 -0.27932648922512265 -1.192145872713194
