12
## STRUCTURE-ID: 645666c72bd91f049a32dfde ; CHARGE = 0; SPIN = 1
O -1.037996578512216 0.10538743872475358 0.41973144713235006
C -2.123932563570587 0.6199771135318853 0.4693563528635866
H -2.354279428721592 1.5567057685004138 -0.05190137704692841
H -2.9468104735872727 0.17958026670676666 1.0406258032587894
H 0.435257176139242 0.38012408833893696 -0.2024664152344178
H -4.012569024886004 -1.2978493004297513 -3.2587496090761423
O 1.420697452941718 0.3296850354330745 -0.4571992506698839
C 2.1384732714567694 -0.31482176093630715 0.6278177270913061
H 2.0628872066363875 0.3346316513575558 1.4961173027012162
H 3.1814746791019632 -0.41082081616555227 0.3378535060434341
H 1.7173790785975165 -1.2904720845800288 0.8604738880420687
H 1.519419204404078 -0.19212740048174076 -1.2816593751054195
