12
## STRUCTURE-ID: 6456681643933d0a874d3038 ; CHARGE = 0; SPIN = 1
O -2.5637104913223454 -0.4766777004810343 -1.309394542697926
C -2.0026934505681493 0.7962439442328704 -1.548270667455854
H -2.591576361003064 1.3623560848836103 -2.27633427664908
H -0.9702376818975315 0.7176986968774496 -1.9013506831321916
H -2.013882316118617 1.3233880477444335 -0.596050770955502
H -2.5648115290664695 -0.9752008361834211 -2.135010092468947
O 1.9302355228576578 0.2150855427877183 1.217845327662727
C 2.386766952952793 -1.1046146303873376 2.05985893271086
H 2.6935214524419013 0.37127265951924937 0.6309503424513957
H 2.2910989050755726 -1.884723674662022 1.2706059519337307
H 1.4845426664871708 -1.2626313386266395 2.693488355057967
H 1.9207463301610914 0.9178032042951186 1.8936621235428095
