18
## STRUCTURE-ID: 6456732f7bfcad6c957c7c40 ; CHARGE = -1; SPIN = 1
I -3.4562685484976767 1.4720256278614383 2.2380118693082687
C -4.275166731812045 1.1932898576055295 0.27983875227646027
H -4.297858212023083 2.1589612383200962 -0.20616220778707045
H -5.27000809601061 0.7856629613607344 0.3951909961480809
H -3.6282220778778687 0.5074000941007708 -0.25256416014119953
O 1.97377965965 -1.9508948041510281 0.4137841429508217
C 0.944585759831903 0.7311571429824795 1.958002907436259
H 1.1234124246593358 -0.3335316739392547 1.8513992109087876
H -0.11142252749583392 0.9597110445366285 1.8781415666369494
H 1.368112821680902 1.1156105685202276 2.8760423946716576
H 1.7566761359204628 -2.8854149085432597 0.37612765029342676
Rh 1.697709213942308 -0.8876710080892379 -1.393194390126665
I 1.9537185394628742 1.6898135539920656 0.3113619526393255
I -0.9062817542264613 -0.8055797046468007 -1.1604679313727715
O 1.7038326110509292 0.2889313876499716 -4.132612858556763
C 1.6981064736609723 -0.1387237505365277 -3.05490353854459
O 4.343257007340559 -2.251264369962256 -1.0774838941849496
C 3.3820373007433076 -1.6494832570615774 -1.3005124625560327
