12
## STRUCTURE-ID: 64566a8eb479797439333be0 ; CHARGE = 0; SPIN = 1
O -1.1766775701749788 0.10600242920408624 -1.4192401512159196
C -1.1944048319760867 0.24229788585750028 0.5692096534211085
H -1.376255352367699 -0.7148531593006687 1.0241500261085321
H -2.0855194095124396 0.7989119422131608 0.31194920186457376
H -0.4675146827142184 0.8570995636602362 1.0720514404460437
H -1.7943601526497017 -0.610235506311234 -1.6062336971626288
O 0.5568488807644341 -0.7393280558982638 -0.06781180483159929
C 1.696472768812874 -0.0461930850809384 0.24768845023401695
H 1.7509722043192153 0.9324853131172575 -0.25742657349390585
H 2.5773763756176087 -0.628964126309888 -0.06012934676432853
H 1.7798205900660198 0.12038501160637152 1.334562453680873
H -0.26675882018502883 -0.3176082127576212 -1.148769652286777
