13
## STRUCTURE-ID: 64568d8287c13b7b3832491a ; CHARGE = -1; SPIN = 1
H -2.458198158827134 1.8976074729739578 -2.009138266317547
I -2.2590996728620945 0.3303667514150169 -1.8323556244657293
O -1.95544561448369 1.3357399107539374 1.9833702870955963
H -1.9060727564275046 1.4482980248208708 2.9560533277398036
O 1.779721517798206 -2.9611152034138697 -1.7784486369222623
H 2.0599394179359227 -3.278821314943554 -2.6369483642922007
Rh -0.07797001741725576 0.15989572083333167 -0.14248054358744683
I 1.2966512226529907 2.0738322890679597 -1.8744226072287171
I 1.6124677368909834 -0.9002657323347277 -1.8556199545253396
O 0.003326188123452157 0.32615020712268106 2.405493478090138
C -0.921630744916597 0.7282368343335521 1.4761068864501663
O 1.8966547594645191 -0.875110181040589 1.874292025485584
C 0.9296561220682092 -0.28481477958857565 1.4340979924779507
