9
## STRUCTURE-ID: 64568bb1232b4959d309291d ; CHARGE = 0; SPIN = 1
I -3.5008914307728496 -1.3145323402091162 0.5720181861453392
O 1.9821186010585277 0.43451877412047474 -0.5027797796954079
H 2.6160164731695574 0.7771595120309115 0.16695879629026894
Rh -1.299349399937193 -0.15328702603480998 0.5823258887008207
I 0.011119452108443768 -1.7092592299045353 2.1122643514541912
O -0.5631778806174066 -0.2572791095323464 -2.198736620311662
C -0.3102281102308045 0.04688831817374385 -1.0860440014838344
O 0.3190210059966083 1.441091950446287 0.6390286325767971
C 0.7453712892251123 0.7346991509093916 -0.28503545367651534
