20
## STRUCTURE-ID: 6456b703571828163d1688f0 ; CHARGE = -1; SPIN = 1
C -1.744406498548073 -0.4431939193906725 -0.5106350543983273
O -2.788025063470946 -0.32145499532497784 -0.0563774173399571
I -0.8039163644874918 2.3748450425182734 -1.680004406671391
C 0.2237194896882478 4.163162772207855 -0.9887645196437417
H 1.0823474018402244 4.308286537442714 -1.631977366658116
H 0.5243373116484915 3.9866321608462316 0.03880894378426066
H -0.4786326683944513 4.98300309151552 -1.0667233068251898
O -1.273517420088053 -2.864092251012049 3.151543496264704
C -0.7839300031804081 -3.0624690030590034 0.4944121858675352
H -1.5959027476415824 -3.5329294338341706 1.028629724385307
H 0.05963972316722152 -3.7407994647541445 0.4325028267448955
H -1.09792840662341 -2.745477799018905 -0.4966348452444936
H -1.2457505930413437 -2.518928565451056 4.043614227333345
Rh 1.1223762054577917 0.07334668909475212 -0.16949844821464785
I 1.1096203298020824 1.6229506355750714 1.9189912842615793
I -0.2113316108604692 -1.367443492485449 1.599933030957869
O 1.2912162597986836 -2.3510858429841663 -1.9095221516475822
C 1.2167328709956071 -1.3854830334865718 -1.2839728188820718
O 3.0747768766928765 1.7175527871158793 -1.75711961159996
C 2.3185749072449897 1.1035780844848644 -1.1572057724739977
