12
## STRUCTURE-ID: 6456689a7c5aa873e55fdac8 ; CHARGE = 0; SPIN = 1
O -1.215196652095963 -0.016602410626597706 -0.5589328231103395
C -1.436642828522981 -0.10880096773437478 0.8618043816262569
H -1.5718584665990876 0.8705715682857607 1.319943590214378
H -0.5833372724152424 -0.6118221360651119 1.3180337589147881
H -2.3281484715343383 -0.726728121109852 0.9784826592544061
H -1.9657951875862505 0.47864610387234313 -0.9942784991437587
O -0.06118288812393636 0.8497268527037385 -0.8911617979925349
C 1.0745119981298954 0.10888633395698304 -1.2202804697175018
H 1.4723044242647279 -0.4604106942515315 -0.37731252621143546
H 1.7867704545613101 0.894678475227447 -1.476689447700169
H 0.9068428235928688 -0.5320428525252757 -2.0878833166217463
H 3.921732066329009 -0.7461021517335227 3.1282744904876694
