18
## STRUCTURE-ID: 645670f7dc681d3c91390820 ; CHARGE = -1; SPIN = 1
I -1.4820205337902823 -0.8803558513929085 -1.2147777657622336
C -2.5624478421146786 -1.1344720559166872 0.6763564187040595
H -2.233843153779141 -0.34695022933855163 1.346858032283791
H -2.323894480500859 -2.117644828527912 1.0633374852252682
H -3.619796106436535 -1.0424287568104358 0.46162961778532424
O 2.0461022721046396 0.20098692900548645 -0.8602370744984484
C 0.9988613446642888 -1.2446972222777668 2.083187326475877
H 1.0629010594023127 -0.7215969816917309 1.1374238085084798
H 1.9305285838584987 -1.155710343825661 2.625249384379145
H 0.17407779021719097 -0.8693498979509244 2.6743908758851527
H 2.9870302645797264 -0.046978180090680714 -0.933243257515908
Rh -0.14325544212892116 1.5172632167933608 -1.3357271260671209
I -0.5305956109793302 2.3121253673789077 1.175964816703789
I 0.6582114550094372 -3.3117591280204053 1.6749916260932673
O 2.5639039699539112 1.6566832846080877 -2.487608141152187
C 1.714907350487447 1.19524636332506 -1.7431524060600916
O -0.8301434901917029 3.3725619633717048 -3.565078435508078
C -0.41052743035608463 2.617076351361007 -2.7795651854799
