13
## STRUCTURE-ID: 64568888a7c4f342c532dfdb ; CHARGE = 0; SPIN = 1
I 0.3434506858683133 3.33473834740898 -1.75479123481932
C -1.5240595850518517 0.23120141110018635 0.5244383888202329
H -2.204535404109209 0.9216897215162211 0.017443227396964467
H -1.8138102286138906 0.13809397825971811 1.5709951356758378
H -1.6057904808565915 -0.7355679849766945 0.02232707995722507
H 1.2383916982540775 -2.5602003979322756 -1.314959078606598
Rh 0.8629198880974718 0.8596357616651943 -1.2114838629132325
I 2.2263991469731406 -1.430715508433728 -0.785443054484799
I -0.32209064605459387 0.018572486700703043 -3.3361637814246814
O 0.6230681008984538 1.237414711349971 1.1999749042750953
C -0.1589085578768613 0.7572181577451722 0.4340121783582162
O 1.5235731039080327 -1.2725071240878634 2.740092519863088
C 0.8113922785635173 -1.4995735603155949 1.893557577901977
