11
## STRUCTURE-ID: 64568d6e67790522014b65e4 ; CHARGE = 0; SPIN = 2
H -1.5198952396300303 -2.037339636785874 0.09196421133768636
O -1.6860908635479896 -1.117506716805796 -0.16667730078674367
H -2.31894212591698 -0.7550539762288164 0.47520729658286776
O -0.7852102300402857 0.9059726817703722 1.4369376833963805
H -0.4234911619415864 1.4388823697389115 2.1478073180364388
Rh 0.12690251659893467 0.25627062941548084 -0.1351096885698371
I 1.5942997726009707 -1.678517735294461 1.2067494358230317
O 2.115676586814864 2.482248806134585 -0.19666708509907876
C 1.3196255816065185 1.6683060728185541 -0.21593374670561982
O 0.9233182748570341 -0.7856901225358576 -2.8359263057248847
C 0.6538068885985614 -0.37757237222709666 -1.8083518182902438
