12
## STRUCTURE-ID: 64566b7db7a7ac47cc408600 ; CHARGE = 0; SPIN = 1
O -1.038187860127468 0.16130238300963076 -1.5220941901304976
C -1.226215123448933 0.30772799384961325 0.45649854802517253
H -2.2482238690501983 0.11088703731359219 0.16169184923769603
H -1.0412765924484857 1.3106026536419488 0.7975345735784878
H -0.8326494250843718 -0.47039117947524034 1.0879492503111312
H -1.3123454867512652 1.0286864560263542 -1.8414668693958536
O 0.8043344676575575 0.4531740829487254 -0.0844059584313997
C 1.561844316476356 -0.5685930594541975 0.42594691434830195
H 1.2625196031577128 -1.5550962092705087 0.0343980922979912
H 1.5057332961315344 -0.6021203132874499 1.5267459836895334
H 2.6175626905167713 -0.4113884304126897 0.15916301237278063
H -0.05309601702920268 0.23520858511021556 -1.2019612059033438
