12
## STRUCTURE-ID: 6456677996dc582db42fdd80 ; CHARGE = 0; SPIN = 1
O -0.5866679810073824 -0.7159519876006111 0.021144942615154885
C -1.6679837718840522 0.010506138395718977 -0.4042583953208124
H -1.7414956142755111 0.9924328337375904 0.09231509237991337
H -2.592318462556311 -0.5438416523495027 -0.18338899529104677
H -1.6401009461182408 0.17566137898790746 -1.4942323745128072
H 0.15314612280279188 -0.3223457904920483 1.1750453485591408
O 1.0525038071446755 0.06154009726779992 1.5233533500702134
C 1.2475725107196465 0.20418917827546398 -0.45512036251168425
H 0.5915812865038342 0.8579255224801909 -1.0040290283263829
H 1.4237106713784586 -0.7542870026622986 -0.9095613696895579
H 2.1391172368822797 0.7155554429990287 -0.11785945742739172
H 1.6209351404097971 -0.6813841590392384 1.7565912494552636
