12
## STRUCTURE-ID: 645666d90ec4672a35750ef0 ; CHARGE = 0; SPIN = 1
O -1.2085683221459513 0.08165727258957867 -0.09772863969339116
C -1.1172588312557492 0.02433144112136325 1.3160414382682777
H -0.42622610701283176 -0.7618714090286236 1.631739473347553
H -2.097620232654522 -0.15195107569813268 1.7599986474566212
H -0.751137431666576 0.9926690422706357 1.6500856497837428
H -1.6839088865786809 -0.7008741762657681 -0.40664113873065844
O 1.4607188843928114 -0.3213663888166556 0.0055504766329484935
C 0.8189924801467245 0.0028303601547718686 -1.0430558495463036
H 0.4139611357726107 -0.805881711873287 -1.6284130795112777
H 2.218429548594869 0.19948579166994423 -2.415534622726704
H 0.5421085464461698 1.0144476232210096 -1.2871785051913929
H 1.8305092159611027 0.42652323065514736 0.5151361499106007
