12
## STRUCTURE-ID: 64566ae605991b1fb3111df3 ; CHARGE = 0; SPIN = 1
O -1.8389089618350287 0.4280086674770987 -1.1360030656679847
C -0.9577508491293032 -0.037337463847060486 -0.1470056286794396
H -1.010572464322647 0.5614028450180554 0.77106374470324
H 1.4039130746225845 -0.11918249109953417 2.6430419970805232
H -1.2630155521074686 -1.0570972985849512 0.09538547293282319
H -1.7254492911056791 1.3797316462820746 -1.2547781494444727
O 1.3936843924208866 -0.5957330825319392 0.24162413858287937
C 0.5115629204122012 -0.028811744981076193 -0.5994697552670996
H 0.3333004031078797 -0.652069665510966 -1.8923406515209609
H 1.0600947539378431 -1.0032794916524754 -1.1317967621464318
H 0.8066644021505969 0.9773404555442041 -0.9576864363361717
H 1.2864771718505439 0.1470276238889811 3.367965095767411
