9
## STRUCTURE-ID: 64566eef1da3bc4069610aad ; CHARGE = 1; SPIN = 1
I -0.5639653448522598 -0.4282015306451312 1.2458605566901062
C -1.0541049475306872 -0.8721229873466678 -0.8015805394791613
H -1.9209469703875155 -1.526644988252312 -0.7828884317655744
H -0.1932294404001108 -1.3714244008412166 -1.2384208973830684
H -1.284275802381135 0.0722852103015137 -1.287816940647369
C 1.0712433838679865 0.884668674213102 0.7644983638977575
H 1.7983266965453035 0.30029484949862845 0.20669728429338718
H 0.6620728400107416 1.709179538993504 0.18658337857356708
H 1.4848795851276806 1.2319656340785756 1.7070672258203574
