12
## STRUCTURE-ID: 64566a12bb38fd705528a818 ; CHARGE = 0; SPIN = 1
O -0.974703796674079 0.6368962657064365 -1.0001233576773148
C -1.828824713246303 -0.24932200758623857 -0.3042120744393196
H -2.8668406238059134 0.08949270755289106 -0.34092541851830027
H -1.4980162221233388 -0.25595603007109446 0.7328134322604234
H -1.762081325944946 -1.2638196561120443 -0.707304299000053
H -1.2727814979776402 0.705132525511538 -1.9155270077363766
O 1.7990448678540658 0.1530354427617947 -0.48677471848512555
C 1.8563895212430737 -0.011419873597340502 0.9102263664977928
H 1.2295426033295955 -0.8464574342358622 1.2411508364468065
H 1.5441075615382622 0.8975473974415996 1.434276433561423
H 2.893785557737578 -0.22691432507511258 1.1640066962860773
H 0.8803780680696557 0.37178498770342255 -0.7276068891960318
