15
## STRUCTURE-ID: 6456b85073a55d23242abdd3 ; CHARGE = -1; SPIN = 1
C -2.6033464449077495 -0.47431458305923546 -0.2699867277671262
O -3.489747970828993 -1.0977208270340437 0.10438328835643435
I -0.8398571244328412 -0.3841311124485536 2.5184984463768547
O -0.5587420410462963 -0.22097655558217588 -2.5407121867013984
C 2.231120292712474 2.2978606779729582 2.0978808961754027
H 2.10635645267279 2.081126292846064 3.145808196224116
H 1.5950000031354599 3.0657705129780672 1.6894371672828905
H -0.7398591795818705 0.4066397726797809 -3.2739428354172797
Rh 0.2794291545010012 -0.7790429955605195 0.09304521606329963
I 2.430419286367252 0.6494757168927427 0.8899927542705888
I 2.1212181117001236 -2.112628319414519 -1.3128532978048435
O -1.4051948818955105 -3.2058162150925202 -0.17043103159369746
C -0.9937419878793293 -2.130033403920034 -0.2561805894800018
O 0.0067930399162916535 1.5441980414189937 -1.2687099039745386
C -0.13984671043279173 0.35959299732299677 -1.4462293920107159
