12
## STRUCTURE-ID: 645669b0524ba260455a852e ; CHARGE = 0; SPIN = 1
O -1.100533881279602 -0.06165233132916093 -1.0648496040033453
C -1.8682458312904908 0.1689636575827919 0.10002932067029155
H -2.890446091018952 -0.19762390075887065 -0.020122670974979127
H -1.8896283957364561 1.2315610479293082 0.3576468556437695
H -1.3883617008700055 -0.38298841640376247 0.9062065053189844
H -1.5216895456720747 0.3824923674060124 -1.8108102739100844
O 1.6870880791173566 0.39692053647800796 -0.6524633012882716
C 1.9839346409955112 -0.3092542505598665 0.5287003164117486
H 1.7757806690775186 -1.3784273481694487 0.4198816155062248
H 1.4162051164567704 0.08038029147851868 1.3808369400680116
H 3.0474109690062097 -0.1738758322604164 0.7230616166840511
H 0.7484859712142239 0.2435041786068767 -0.8681173201264034
