12
## STRUCTURE-ID: 645668a87a2cac618156edeb ; CHARGE = 0; SPIN = 1
O -0.13952791961122638 0.035752507898189595 -0.5452809487146943
C -1.2448087856439929 0.33112269656231114 0.2529051550967674
H -1.1601426818491152 -0.09055853543134236 1.256569988956158
H -2.0538431175043783 -0.17207988916566425 -0.2808940208332683
H -1.4532296882463154 1.402237769762556 0.2847640441950105
H -5.068900792626979 -1.522376217805315 -3.0394189239340337
O 1.0914499188397644 0.6856109954153395 -0.02489223910758765
C 1.9681811820670325 -0.2672391664172046 0.6096201607485702
H 2.255451654010377 -1.073297115183562 -0.0651420788087288
H 1.4588817024356222 -0.673902234430792 1.482998234868556
H 2.8392478970789607 0.3071739769177396 0.9288459459605843
H 1.5072406310502715 1.0375552118777573 -0.8600753184273653
