12
## STRUCTURE-ID: 64566dc0e9bc1c4ebf2fdd82 ; CHARGE = -1; SPIN = 1
Rh -1.240990802322329 -0.7063633199880471 -0.17031841912364595
I -0.2708612016081164 -2.045481376766607 -2.200166755762347
I -0.5745745632987082 -2.51219862055407 1.6038479394039251
O -2.508189111525778 0.8036005201420656 2.070251876913377
C -2.006937388337928 0.23024070966481316 1.2071871862946975
O -2.145234536121816 1.3399563395595915 -2.145319233319582
C -1.7865498325891098 0.5574674002199778 -1.3811405235732148
I 2.5063059612568948 2.3092546016455056 0.5209577893123366
C 2.0691045375229664 0.25171067989969803 0.1665784727695132
H 2.457765060512191 -0.3312611042687754 0.9923813909500383
H 2.5300594074965974 -0.04269445386876748 -0.7682358715962375
H 0.9701024690163267 0.14576862431440754 0.1039761477321313
