12
## STRUCTURE-ID: 6456668e2297bf3b3b1fea7b ; CHARGE = 0; SPIN = 1
O 0.3085472129124502 0.9593481504700895 -2.683767464129541
C -1.2486607572306263 -0.48001120288767085 0.6799624689059741
H -2.0700882552646687 -0.3412761482596801 -0.018973467609286816
H -1.4132521171878636 0.13798531911749548 1.5696359512638707
H -1.197132630940974 -1.5318069976364819 0.9819648940599004
H 0.2824374733431319 1.8934326156532908 -2.4614861922482554
O -0.0718156474776611 -0.08981625646139053 0.007361926620974935
C 1.0871365060533245 -0.2333374650984786 0.7992569995786544
H 1.2241547134674984 -1.2755192780695692 1.107617335974872
H 1.0296297391314218 0.39814327561847784 1.6928111174897895
H 1.9280198156105588 0.0775813844988069 0.18362822484361266
H 0.14102394758341286 0.4852766030551005 -1.858011794750562
