33
## STRUCTURE-ID: 6456c25ace8681591d75cc20 ; CHARGE = -3; SPIN = 1
Rh -4.38537988084474 0.6108061377890224 0.9355256508684954
I -1.9600247007949096 -0.031481492346664156 2.042155787338807
I -5.055583943206 1.8147590624848595 3.118550945305823
O -2.6676458215746184 2.1003753197773354 -0.636986814237126
C -3.728696054197272 2.2290527095720374 -0.10946142230002648
O -3.8366777544903305 -1.3801248227846337 -1.2134058331171933
C -4.0058562199177254 -0.5459336503917515 -0.4475919829197457
I -6.828221272081808 0.4485289105164802 0.08028807494693058
C -4.5724201333826 3.4609853230030954 -0.07332164569585671
H -4.317770273948886 4.049639116581332 -0.9556114445452275
H -5.643653142388791 3.263946515665848 -0.032653462771158485
H -4.301084529065484 4.031047895161754 0.8200040019422187
O 4.286476086561279 -3.2270976806769336 -0.38223531715257114
C 4.347422072119031 0.9469632088238211 -1.4396146175012667
H 5.422034626151985 0.9330806840327425 -1.5633449342257582
H 4.067080318247151 0.69084814640381 -0.42325387943756887
H 3.9158214707592087 1.8980956590103764 -1.7290243543818755
H 4.4160959818816 -2.6969671818915066 -1.1872523713152923
Rh 0.2823287454063854 0.5259017992547351 0.5188196832305011
I 0.9634438551273378 2.8222213687701716 -0.7205136412745671
I 3.5177764568751106 -0.5711087627104072 -2.731425428704568
O 3.06453921727159 -0.667082697547431 1.166739170248602
C 1.9662806581813959 -1.182224497606129 0.8345179091336998
O 1.554074592501421 1.5723303103789248 2.976362156639672
C 1.043485839435792 1.2002890458670334 1.9937656907063566
O 1.2566438491926195 -1.7452822589011427 1.9339641384695971
H 1.825694953602931 -1.7334837951402253 2.7236423694681084
Rh 1.5988911822360208 -2.178540020169612 -0.9251614404499106
I -0.5103958757844572 -0.7310774026536426 -1.6887849204670595
O 2.7561132408744777 -3.9854578808132506 0.9980556730754764
C 2.9506558063119668 -3.2620727268276024 0.022982592245779487
O 1.2184123718368727 -4.899944671947497 -2.0613522814669345
C 1.3601382771034278 -3.760991670685015 -1.8443780516563306
