12
## STRUCTURE-ID: 64566b40b71b325e042fdd8e ; CHARGE = 0; SPIN = 1
O -1.4329326731115253 -0.12840509214648796 -0.050249623264923486
C -1.1499496707007992 0.052996036424909236 1.1114571200636023
H -1.1708139419536507 1.0509435884887084 1.569439549556635
H 0.6254950687277869 0.5658411106941514 -0.9711340345671834
H -1.0233374139899167 -0.7765756868483011 1.8208632348770901
H -1.595870829298558 -1.6834861699503545 -2.0774128327863295
O 1.0452599381952172 0.21860360724443234 1.0252989446004979
C 1.3174636725982283 0.8943394337644464 -0.1874590868620102
H 2.3461938534766724 0.728039139648855 -0.5079522360003862
H 1.1615678327628411 1.9550390310376036 -0.0003718548749591963
H -1.4518096349625609 -2.175589059688046 -2.6635614039816278
H 1.3287337982562746 -0.7017459386699144 0.9310822232395554
