13
## STRUCTURE-ID: 64566de5f681df1d3c610aa4 ; CHARGE = 0; SPIN = 1
I -1.4839011499746804 -1.451928525872983 0.368532140585331
C -2.674786085142765 0.32849891083029253 -0.0026457902978729384
H -2.611217199712083 0.9538307518052584 0.8804321440020717
H -3.6912273811787273 0.0011793849918219493 -0.1814853114999056
H -2.265458937103764 0.8220748458324838 -0.8774796501105613
H 0.18366026187941767 2.9722569006832686 0.5402441320786298
Rh 1.3940657904697715 -0.23041029265644683 -0.07538401955524025
I 0.7444740317426461 1.865639789080065 1.5393971542482945
I 0.6348329550607467 1.0502926390863645 -2.2474426309195037
O 2.6952863780536385 -2.0089644347134965 -2.0901571698360994
C 2.2073872655763527 -1.3479068978321864 -1.2937136180641984
O 2.689466994415847 -1.7875349686544963 2.1273721953292353
C 2.177417075913585 -1.1670281025799842 1.3123304240398284
