15
## STRUCTURE-ID: 64568e6056d41623be5eb014 ; CHARGE = 0; SPIN = 1
H -3.4062900277571444 0.044982533792058965 1.7980175977002375
I -0.707369689386337 -0.34149251947154213 0.3891976929863861
O -3.686029380932214 0.3766829093505437 0.9093837886317903
C -3.013011401107662 -0.3511380636195938 -0.1286452253968467
H -3.3118414615267437 -1.3998084092283611 -0.1709234483648597
H -3.1384378350776356 0.18537813083896199 -1.069100011770161
H -4.670138978687682 0.33613494987382014 0.7855563729734423
O 1.9247746732606765 -2.0355321974766443 0.3750501929738218
Rh 2.0340451828131965 -0.23066926185879374 -0.0036703127127238997
I 2.1267686313678222 0.41817040681923695 2.5598485459454743
I 1.6877611886408257 -2.5145239964169233 -1.533174535268981
O 5.300416627625821 1.18609504436906 -1.319126212533695
C 4.097986895955317 1.227294569103394 -1.2658687195838796
O 1.759947751839225 1.6385312274191919 -0.7177862905631499
C 3.0014178229725568 1.4598946765055654 -0.6087594350168477
