12
## STRUCTURE-ID: 6456668d0dd3491e2a6cd4b8 ; CHARGE = 0; SPIN = 1
O -0.8280242049338992 -0.4736521390918639 -1.1558091003487458
C -1.8783804366731396 -0.13413454945494274 -0.2734863883676354
H -1.8058582365425024 -0.6942558774108469 0.6635268638696235
H -2.85532662079249 -0.31376887737253195 -0.728891040431638
H -1.7788595662228581 0.9287918477828672 -0.06116850781423852
H -0.9223583504205322 -1.3981008844841794 -1.4152778852452512
O 1.7194201902218034 0.721772273843886 -0.5219509879484416
C 1.8318603720355906 0.3207153374114377 0.8235092353662496
H 1.8942619664714022 -0.7690619542506759 0.9126836701017239
H 0.9889628044756663 0.6805825830006798 1.422217373591585
H 2.751694556020774 0.7591351687740504 1.2090633980783287
H 0.882607526360191 0.37197707125212176 -0.8744166308515667
