12
## STRUCTURE-ID: 645668ba86548f6ae67ccc10 ; CHARGE = 0; SPIN = 1
O -0.8381550039927583 -0.48717022458547693 -0.3761838388694921
C -1.707522399793401 0.48310661036764707 0.18590135864348986
H -1.6467380163638758 1.436401327387521 -0.3380802432193908
H -1.4271265836218603 0.6166593498222708 1.2289608224647965
H -2.722228990327012 0.08266763233383999 0.12137644803242328
H -1.0106214189126388 -0.5799708958264933 -1.337361521055256
O 0.7745459298871405 0.14460559336076803 -0.5130818585404898
C 1.5062567743713553 -0.5940551756461003 0.40579478418172893
H 0.9532962915037002 -1.51584705139849 0.616042022833753
H 1.681384094495027 -0.03770705239059291 1.3307390391145024
H 2.45317215672826 -0.8985287261234997 -0.043643129378453584
H 1.9837371660260728 1.3498386126986042 -1.2804638842076161
