12
## STRUCTURE-ID: 64566a8ffc55ba7fa14f734b ; CHARGE = 0; SPIN = 1
O -1.2190856889533028 -1.0225476551908286 -2.2202552009089853
C -0.7036190964135144 0.538802675172074 1.1078979636776078
H -1.697916080033698 0.09842854803928784 1.1145346402931606
H -0.7635743740526688 1.5773793665610665 0.7645353744678096
H -0.28594356510798635 0.520777503290821 2.1202581987019653
H -1.3142187618221426 -1.9724388418571597 -2.116490405181484
O 0.07993291821525816 -0.2390106243653018 0.22846321255342514
C 1.4108553043824354 0.2204093200937802 0.1290949445835247
H 1.4433880089454638 1.2466326208249474 -0.2529707176167731
H 1.9207745055174985 -0.44396023072058455 -0.5645641320286662
H 1.9078423731140899 0.18646613994724678 1.1044757091442254
H -0.7784355437914297 -0.7109388217953488 -1.4149795876858222
