13
## STRUCTURE-ID: 64568c98bd294e6834242a41 ; CHARGE = -1; SPIN = 1
I -2.7274567099141436 2.049247303445037 2.986325671770174
C -1.4267286059362092 0.1226822654249316 -0.8106043004185726
H -1.3166492180365712 1.2044678561279143 -0.6312625304446515
H -1.3634316214204734 -0.02284967941860588 -1.8942273080124354
H -2.452095917190805 -0.1533094072584656 -0.5195799342956163
O 3.350306679441103 1.6462702721154505 -1.2455846906058916
Rh -0.04147280933233235 -0.8616935326485883 0.40357475541504084
I 1.576755468324617 -1.9701082654647701 2.2690303098158395
I -0.714238840868124 0.1307028506716923 2.658684236718079
O 1.6587253949687137 1.0819150243591977 0.19587956863812617
C 2.506930477306529 1.3644230791922645 -0.5252370748789051
O 0.5931636043941932 -2.6560445405903126 -1.8850927494076586
C 0.3561920982635119 -1.9357032259557605 -1.0019059542935382
