12
## STRUCTURE-ID: 64566a94bd39c614c33741a1 ; CHARGE = 0; SPIN = 1
O -1.3558628765991174 0.3069200810407354 -0.37463404844949255
C -1.3886447536294235 0.3534095715483184 0.8335780616094642
H -1.1026407130621516 1.2545825431056499 1.3923211554080648
H 0.40532225554102586 -1.4631407806269643 1.2548547316210514
H -1.8652347462826262 -0.4311561534185444 1.4376153019755218
H -0.7376334235817377 0.15655230397455328 -3.6995406026151056
O 0.5578425885917683 -0.5157435808325641 1.3785866565271874
C 1.4553158553936436 -0.07416051502640153 0.378156505822984
H 1.7543634335943967 0.9374930234547324 0.6453399329131152
H 0.9578296120159687 -0.051747307336440306 -0.5981247754652941
H 2.336581297361126 -0.7140737606542853 0.32976711344883025
H -1.0172385293428607 0.24106457477121693 -2.977920032796336
