12
## STRUCTURE-ID: 645667134bda6b576556edee ; CHARGE = 0; SPIN = 1
O -0.9299996823075782 -0.6732326546921431 -2.0495882906350453
C -0.374186243877049 0.2483191577874296 1.385096488873824
H -0.7268959323024395 1.2765423870284618 1.4051016763522857
H -0.34884366240037235 -0.13807746779275976 2.3998890665654438
H -1.0666352705040896 -0.3479043228413661 0.79477686944813
H -1.4981417026691688 -0.07079200483312166 -2.537800460491858
O 1.0584609588071998 0.6903991560937871 -0.5469183987867505
C 1.0185620611517778 0.1836475911718987 0.7679489661135465
H -0.6096411204646754 -1.3291464858892674 -2.6751279704332775
H 1.7204691553872185 0.7955971536728635 1.3427056702176217
H 1.3798523349415441 -0.8563861288718027 0.7801522642188795
H 0.37699910423763944 0.22103361916600583 -1.0662358814427961
