12
## STRUCTURE-ID: 645664caf6765a4970092920 ; CHARGE = 0; SPIN = 1
O -0.8363491998403352 0.6149572500873594 -1.5718615713141575
C -1.354251823560105 -0.3015945535822448 0.12031183551422069
H -2.3089423218641394 0.08383685704364725 -0.21080898781004426
H -0.9726320014894996 0.17637647797856068 1.0059568186802144
H -1.3162223295254178 -1.3761174844975816 0.12175776681407073
H -0.7710984982850873 1.5476328676689335 -1.3344871445850799
O 0.6838495392678494 -0.6722356245786184 -0.29739641318882015
C 1.5180289159778622 -0.15521440996583377 0.6586655528393525
H 1.556153670775941 0.9479478441976593 0.6472903852333233
H 2.5418763722777986 -0.5223181657883195 0.49135905576809485
H 1.2212752641821676 -0.47783261982367625 1.6708084109637507
H 0.03831241208297317 0.13456156126011337 -1.3015957089149262
