18
## STRUCTURE-ID: 64568bbf13378b413164e47a ; CHARGE = -1; SPIN = 1
I -0.27840897094801764 -2.3804486913370395 -2.0266031339235995
C -3.053579407947558 -0.7101552688740387 0.26313219718401326
H -3.8367935038196097 -0.07667516926344357 0.6714616084151034
H -3.516914332868954 -1.574529503526101 -0.21062088661021838
H -2.4767242839349275 -0.15813370380754044 -0.48964997544077626
O -0.8531524959028222 -1.0151260672990787 1.1237892488374728
C 3.544555815365866 1.4014952152996563 0.1409487468033949
H 2.7675032074047157 1.950793544087691 -0.3787092237484663
H 4.408480752529017 1.2564150369460472 -0.49510422306557916
H 3.808770927419612 1.8928436112090878 1.068697245232493
H -0.318110044704324 -1.3625687211596027 1.8669853071309075
Rh 0.11295940366992724 -0.0477017722785798 -0.777959625592248
I 2.7625831696459264 -0.54359320317438 0.6319409043278837
I -0.3550337645608083 2.3396605734310456 0.32786838134532
O 1.2154936715132 1.1979980274100852 -3.2192039690460277
C 0.7667488106306344 0.7040401289575394 -2.2658875209367264
O -2.532545243066978 -1.6882923127883949 2.4010916119719585
C -2.1658337104249026 -1.18602172383294 1.3678233071150963
