16
## STRUCTURE-ID: 64568dc46f0f072eee6f2ca3 ; CHARGE = -1; SPIN = 1
H -3.1244807135886172 -1.1314053423695367 -0.8562520603365232
I -1.4502303984749934 -0.9257475799774241 -0.5230600973297531
O -0.21814175699407132 -0.5108634941388366 2.3432428799203873
C -1.808901995594961 0.8178336901436717 -1.7759713840491889
H -1.0095811386602629 1.5255544097349139 -1.5730980759334792
H -2.7737908875719914 1.2300744088204132 -1.5062699564094528
H -1.767898194895893 0.49272504603604733 -2.809834915657681
H -0.3715330781177818 -0.14791096771352935 3.2400516839233746
O 0.8682220049361083 2.0478742878362266 -0.41760651412200345
Rh 1.1283208327100511 -0.14915600050548758 -0.13930893803552583
I 1.4191145699009382 -0.5895606045840446 -2.7137005146413595
I 2.80403958325145 2.1844577421909683 -0.12576606495417653
O 1.9266923849602113 -0.011468467829381676 2.714838011386854
C 1.0672777738758725 -0.4663323719920929 1.9707957779110232
O 1.8318137658506992 -2.7001297863195974 1.3290165778873704
C 1.4790772484132362 -1.6659449693323058 0.8429235904401148
