20
## STRUCTURE-ID: 645679b83607c16f3e1fea73 ; CHARGE = 0; SPIN = 1
H -3.5730113342456686 -0.9469045009779711 0.36398121965718006
I -1.4364028243398426 0.7369993662267039 -0.6294747991793017
O -4.1143141643607635 -0.6814003912887725 -0.418132794919859
C -3.2505869172775856 -0.30690492082745385 -1.5198085400970196
H -2.8958402066525464 -1.1768155784107914 -2.0700839443970405
H -3.8038496786299394 0.38341190594554403 -2.153814095502364
H -4.74446588372554 -1.3963618417710653 -0.6793492587720178
O 0.5344889448401448 1.713965742080511 0.40414971326123056
C 0.5694606727154976 -0.7395275801752081 -1.1411662288080693
H 1.0460865102099945 0.19424095544533088 -0.9511580984688491
H 0.26758444040932816 -1.4024133963516643 -0.3586109029150201
H 0.4163902306935587 -1.035106425739907 -2.162520556453689
H 0.3275528650895586 2.6074567937757207 0.6917995766002348
Rh 2.106504091779046 0.6585508182357532 1.4749866428563736
I 3.030223037798077 -1.605437111060348 -0.7140323917209633
I 0.2874122281117512 -0.8271384680118264 2.5716661126100346
O 4.2346578126444605 -0.5533300555077009 3.168076253739257
C 3.3978583344512203 -0.10933143952947201 2.508085641220635
O 4.231839355726682 2.6036958721500536 0.6757147631493996
C 3.3684124847625534 1.8823502557926794 0.9396916881398625
