12
## STRUCTURE-ID: 64566a3a638a7974fb73b9e3 ; CHARGE = 0; SPIN = 1
O -2.762976866861929 0.7582078296821134 -0.6570177761820702
C -0.23751251243826252 -0.5508393501879251 -0.10356312445960306
H -2.8726240303418282 1.6432218733774782 -1.014123911749077
H -0.9765677119379983 -0.4452776660775781 -0.9001127259019247
H -0.2732261699288473 -1.4252364306756502 0.5527576693464923
H -3.6433709183840453 0.4134305907916456 -0.4888027948456847
O 0.5689016578846838 0.3612559311852316 0.03810621747612682
C 1.5389409035440025 0.4105864988834542 1.0576069618294779
H 2.517657191011735 0.4872094520712607 0.575824289231983
H 1.504493240304494 -0.46003268032465516 1.7151784837279302
H 1.3699515931112531 1.3398972110615721 1.6099812516496022
H 3.266333624036753 -2.5324232597869427 -2.3858345401232577
