18
## STRUCTURE-ID: 6456735726b72257924609e5 ; CHARGE = -1; SPIN = 1
I -2.854476273330377 -0.1900861293747909 -1.533516380594079
C -2.1455824332054965 -1.1467359515430655 0.2241825548816614
H -2.802648441843188 -0.8803349911279937 1.0427708837997853
H -1.1017665018892018 -0.8103322216730526 0.4336286454407542
H -2.1437515977173924 -2.21585005959505 0.05242707582258284
O 2.9151900206579584 -1.4869031019580645 -0.6134425463350607
C -0.44231063202719334 3.1970064526811717 -1.055132831548592
H -0.4501667712972611 3.447814795565346 0.0009241512186502916
H -1.4398285078471316 2.960152308434549 -1.4094273793804517
H 0.010589926420572288 3.982867432946695 -1.6470489793920151
H 3.196996539721046 -2.221283425058918 -1.193840876445352
Rh 0.8703447522890496 -0.14335409815582886 0.8199559780715914
I 0.7929943484935573 1.4034208808983875 -1.2991116070414372
I -0.23194643506182508 1.6119587527588333 2.4721563762413266
O 1.8701089576765175 -2.147346811519378 2.7883846739839475
C 1.4430279455114763 -1.3266052339990946 2.079862318620042
O 0.9301872129841787 -2.4797329448559773 -0.8229143335751458
C 1.5830378904647116 -1.5546556544237682 -0.33985772376821743
