19
## STRUCTURE-ID: 64567a1318ba31546675cc2c ; CHARGE = 0; SPIN = 1
H -3.270951072292322 -1.8722866443688368 -4.504347673344353
I -3.444064083097702 -0.3138073236716748 -4.2692189730607435
C -1.72730033579475 -0.3798425307690517 -2.127018974410657
H -2.403872343384492 -1.059275050757531 -1.6399791309674812
H -0.9644668062589982 -0.7564771980185683 -2.7850587934676154
H -1.8753842850567755 0.6868079140665581 -2.0331137236436603
O -1.129117279135505 2.15921210367263 -0.751017646640244
C -0.06113003321483477 -0.39960056722228265 -0.032760287415437
H -0.7797854616486383 -0.21678604036921761 -0.8942503753416579
H -0.5508472907971267 -1.020839917460413 0.7111094130069512
H 0.8373675670020013 -0.8744858237551754 -0.41484503672108963
H -1.2050657535308407 3.106972764323093 -0.666832224020988
Rh 2.189703498626607 0.49291103759540117 2.6124282921478503
I 2.5535919260133566 2.9766406736306337 3.2631489095130357
I 0.4899971851362648 1.449819744934511 0.877875715450931
O 1.7840846594068283 -2.3846867699099468 1.9332348715154457
C 1.9059539638554497 -1.2619860401105507 2.15110991161991
O 4.214309392044455 -0.3163743497639829 4.676608116862644
C 3.4369765521270357 -0.015915982045579785 3.8929276089171934
