12
## STRUCTURE-ID: 64566b67151a3115e16aac71 ; CHARGE = 0; SPIN = 1
O -2.3616403509538184 -0.9998267902852331 -0.5669780916335303
C -1.8053002014556288 -0.3200137601569177 0.5375707087509848
H -2.636382422051401 0.12898505053881787 1.0786505894786296
H -1.115619622653733 0.46622700191693883 0.21991107278576422
H -1.2765573196558542 -1.0094104688686318 1.2036463021515575
H 0.09930293812701745 2.5563931532780253 -2.1409890931314197
O 1.569566093403221 0.014342253319139943 0.06635821256256494
C 2.5538481347358215 -0.388009762092961 0.6186979629723007
H 3.3187356765041804 -0.9826566667296527 0.09790426415697254
H -1.6424775623157992 -1.3679822400473538 -1.0936035735206555
H 2.7546162528556932 -0.18879451598283797 1.6815263663170241
H 0.5419083834603088 2.090746745110657 -1.7026947208901964
