12
## STRUCTURE-ID: 645667e4ac71553daf19eb60 ; CHARGE = 0; SPIN = 1
O -1.581287259971568 -0.29846916491569514 -1.322859354711693
C -1.228930988486673 -0.026358408193418455 -0.13303856581960422
H -1.0067179651532343 0.9706671818466965 0.20825527469818444
H -1.0238596208319235 -0.8632853038491902 0.5146964378162151
H -2.9255254865859652 0.18803565651129536 0.8293973826446219
H -1.739184560744783 0.4761107816982109 -1.8984961111599057
O 0.9361206180634088 0.002441207283548076 -0.5672261455645562
C 1.7011395387078572 0.061319490597713834 0.6231863107672734
H 1.5292518933768728 -0.8125568092813311 1.2549510112707771
H 1.3876133885411246 0.953294300983759 1.1611841042010524
H 2.7645971137711665 0.14113998540685796 0.3906177000692767
H 1.1867833293137233 -0.7923389180884512 -1.0606680442116454
