12
## STRUCTURE-ID: 6456668d0dd3491e2a6cd4b0 ; CHARGE = 0; SPIN = 1
O -0.5823450712261924 -0.6373528079521358 -1.6775480701253036
C -1.3752266444166112 0.19524557977132692 -0.051369216725908926
H -1.0737035437482445 -0.2887107712385627 0.8614117101573303
H -2.2516690730903686 -0.2397673305114301 -0.512219653835323
H -1.4140246140397406 1.2691334489773227 -0.014533806333625872
H -0.4801959499040843 -1.568634207725909 -1.4478688315665356
O 0.6664504870591933 0.724046362921132 -0.20161983443920176
C 1.4040889559781269 0.25532776521983475 0.8533995756834459
H 1.5003554098941638 -0.8444733187622635 0.8579812299285142
H 0.9703998557015769 0.5655300176256061 1.8188695245362678
H 2.4206644259342327 0.674430814369413 0.8069545834742081
H 0.21520576185795331 -0.10477555269433161 -1.2934572107538618
