17
## STRUCTURE-ID: 64568bd14f1dba41dc7b9244 ; CHARGE = 0; SPIN = 1
C -2.3166988642782034 -0.95970194141505 -1.6482389304484766
H -2.2267103044949526 -1.6555957885747294 -2.4850984043808095
H -3.3694960703575902 -0.8662036137257445 -1.383892337741001
H -1.9145797295846136 0.008029762845598845 -1.9563434548002292
O 1.997483096460085 1.0915727228593104 -0.48309987891462486
C 1.4418383658911085 1.1963004363972225 2.831964183004785
H 2.181158279940257 0.9113134532990825 2.090329475289079
H 1.6100520852021536 0.6878981510287054 3.7744243120445202
H 1.4035669754184397 2.2713729300952274 2.9629756853912594
H 2.419719855424393 1.856168096506946 -0.9265821059911453
Rh 0.17842775177610287 -0.8177576328821673 -0.081165826254375
I -0.5023955649092998 0.5583970950697337 2.0879636921472406
I 1.474676099569184 -2.3750672918617 -1.6751007447764634
O -1.837352621742805 -2.4337979142609707 0.24254740203937192
C -1.579146547928229 -1.539532289940725 -0.5044035204101657
O 0.20931969546130663 1.3128282563024327 -1.8543603539073485
C 0.8301374981526755 0.7537755682568346 -0.9919191922916234
