15
## STRUCTURE-ID: 6456b7c22fbe155e7f7ffa7a ; CHARGE = 0; SPIN = 1
C -2.0032958720588305 -0.1681460783140575 -1.1651785241149901
O -3.087590283766955 -0.4022307123905239 -1.4040809712400908
I -1.5154527708796786 2.2221412591552525 0.4526894873951606
C 0.5786952895949892 -0.4522414860008759 2.0832953289843203
H 1.6454737319916737 -0.574265280399023 1.8825470836137388
H 0.3059924237823582 -1.0748914839503412 2.93681548869964
H 0.3950844166481907 0.596082978702813 2.3200059104887005
H 1.999550348740176 2.7100478059410276 0.41461202463887226
Rh -0.23141516814792995 0.28265413016022 -0.8286397497704697
I 2.258031431078684 1.4163519407629028 -0.4806403381307728
I -0.5265490118508948 1.3835324163927043 -3.557533862670263
O -0.8482889922284234 -1.9175866933190546 0.8400666280488667
C -0.20773585253199192 -0.9142745743436156 0.9132533657057882
O 0.7844543488434693 -1.969221182266605 -2.5525465494914967
C 0.4530459607851205 -1.1379530401307938 -1.8546653221569638
