12
## STRUCTURE-ID: 64568827c2312a375a4975aa ; CHARGE = -1; SPIN = 1
Rh -0.3661130572917552 0.1337410935413906 -0.3847228004590527
I -0.09806879273895171 -1.7074933183381273 -2.3949087253704637
I -2.2765210707796726 -1.2966740505542678 0.8882638713384199
O 0.022595058973633463 1.6222747714439263 2.1672016992747825
C -0.1449381530061998 1.0666141785140635 1.1797798677123181
O -2.4647548587118737 1.0381311801943034 -2.3953543246406563
C -1.6922714331635345 0.7419679208845134 -1.6097456479050882
I 1.3911299336506944 1.8535301976193965 -1.5105621505592024
C 1.1805742668592192 -0.7068666842997983 0.8740839578913606
H 1.5401936914547882 -1.5620993263046496 0.2843005719323449
H 0.855401592933538 -1.1100369221903132 1.8384187544314816
H 2.0527728218201164 -0.07308904051047461 1.063244926353757
