18
## STRUCTURE-ID: 64568be896d4b20e3b5a8520 ; CHARGE = -1; SPIN = 1
I -3.1671999810181273 -0.7834154755503778 0.9837838402360285
C -0.5831705126314027 3.663400053022099 -0.5645970823001356
H -1.1416088812055554 4.119575840631109 -1.3750249022741157
H -0.970127756601722 4.007939828349945 0.39255412590327277
H 0.4695359087713298 3.9274811213715255 -0.6242438503886233
O 0.9829866817109104 -0.1595398717611616 1.314544003597344
C 1.3485760594858827 -3.62645042536012 0.5504273812255763
H 1.403741602968279 -2.570092110668274 0.7959834020739122
H 1.8675601593747622 -3.8303485120209144 -0.3785142857188772
H 1.7215737854110658 -4.239055697729182 1.360586428495789
H 1.427533802970325 0.6166531199868273 1.708688567758418
Rh -0.9977167595697531 -1.0412519998963405 -0.4571974786333295
I -0.7299263623672193 -4.116970510480806 0.25873704491548494
I 0.41709184944781313 -1.4717563255022414 -2.6105681767974436
O -1.4673905468696287 1.5738728814335319 -1.3813691097950156
C -0.7328204936293108 2.1779399621352966 -0.6366560183769877
O 0.07493213390815222 1.562929006457828 0.26111743777951785
C 0.0764293098441782 0.1890891155812588 0.40174867229917605
