12
## STRUCTURE-ID: 6456682597db6f339b1f8bdb ; CHARGE = 0; SPIN = 1
O -0.2186634745797357 0.2491660512147523 -2.578210683484936
C -0.9435772136784525 0.009306502149965265 1.0752556763943228
H -1.4858500437330313 0.06889440739761077 0.13435119040725174
H -1.4533586182892133 -0.6887636051520798 1.7323541358121646
H -0.9443588518327392 0.9919383114314255 1.5426294401175222
H 0.3892255494767456 -0.054213156680342184 -3.2560240046236877
O 1.1718381705025283 0.34640982230601186 -0.10821975964352097
C 0.4814640068804794 -0.4671358446809535 0.8249854448580294
H 1.0425055112424348 -0.5057615478743626 1.7678823377725854
H 1.1928143310333499 1.2513313932029169 0.2294215142875341
H 0.47542560961694513 -1.4676056396789263 0.38657400581591234
H 0.2925350233606984 0.2664333063639794 -1.750999297713185
