20
## STRUCTURE-ID: 6456b6e9717eff30426dc160 ; CHARGE = -1; SPIN = 1
C -1.8087261560964907 -0.2691452222058155 -0.4040464647564198
O -2.796637059516815 0.24674778116593468 -0.14275623048987499
I -0.8519514984559453 -1.966258325070757 2.1225525324719166
C 0.3447023779326608 -1.690516257452061 3.9177147633910154
H 0.7145186366671341 -0.6704880086029448 3.9060978882169772
H 1.1568220588460727 -2.405093445718583 3.874483309002439
H -0.3047542023443784 -1.8734015674978566 4.764027918238157
O -1.1102015175970346 3.6788956339482892 -2.244002087546
C -0.8845407226838436 1.0574878805044927 -2.8851297231004094
H -1.6717439701187284 1.7224134929785446 -3.208045063499542
H -1.2654349277624775 0.0548030064297422 -2.7099633518012967
H -0.08770069496565945 1.044471800231021 -3.6201893732217627
H -0.9870756494201548 4.498590994694852 -1.765863244857516
Rh 1.1007807783379653 -0.26735184877493995 -0.021380870153185925
I 1.3561232612402188 1.5304670051214821 1.8401941673235909
I -0.12741373545743206 1.8207693071690387 -1.0774391790247633
O 0.9955228676018251 -1.5982006907126485 -2.695793476927134
C 1.0233575063855367 -1.1325770481001798 -1.6414775102745023
O 2.962336265289429 -2.269981263850998 1.227271021986669
C 2.2420163821180865 -1.5116332242566124 0.7637449750216433
