12
## STRUCTURE-ID: 64566706b994c60dba5fdacb ; CHARGE = 0; SPIN = 1
O -0.7236430621725829 2.5938869965112517 -0.2292930969965239
C -0.7221170711533201 -1.0661876193834046 0.621060672522218
H -0.38629845282114306 -0.8128449658260837 1.6327149022314886
H -0.5064102440498984 -2.12244691613999 0.4277708563294795
H -1.7924273268862487 -0.8927750985302725 0.5364717379023412
H -1.5483783297648177 2.706600470527328 -0.7079460955182354
O -0.09896210024804558 -0.24154880325602937 -0.3408355893922657
C 1.2995848028317554 -0.42468445238654184 -0.39590838727979133
H 1.7679346178412312 -0.17261612053264194 0.561715608441047
H 1.6714745425850932 0.2424018139876244 -1.1698826312334296
H 1.5468023425591724 -1.460278466500048 -0.6526578298117781
H -0.507559718721177 1.6504931615287979 -0.2832101471945567
