12
## STRUCTURE-ID: 64566b5e7e5f59211e5a852e ; CHARGE = 0; SPIN = 1
O -1.7917367097864818 0.15910201686800182 -0.4369309519604269
C -1.8426968787961138 -0.44033729452063985 0.8358289769097432
H -1.5733287801565512 0.269296007494066 1.6245144268612146
H -1.1787938646628788 -1.3098544425834258 0.895682045038858
H -2.8691423941144585 -0.770567745895845 0.9921583465932611
H -0.8915155949374338 0.508602644418312 -0.5707371694508729
O 0.919440558089499 1.0115380274019838 -0.7022123220423248
C 1.8375051893877994 -0.00641090717116949 -0.3551086785372654
H 2.8535862351144394 0.38672706290161635 -0.27289638021223483
H 1.8202945961274601 -0.8215885952452946 -1.0838819852388308
H 1.5281726145057528 -0.3897279924023038 0.6155853273778266
H 1.1882150292289844 1.4032212187346997 -1.5420016353389565
