16
## STRUCTURE-ID: 645678fee699c67c15493a76 ; CHARGE = -1; SPIN = 1
H -2.8210081448979825 1.0930293617374347 2.2718253088445324
I -3.6977947865628917 0.364600365916374 1.1577168270107034
O 0.5146502076839397 -2.0760690957200274 1.122085464264773
C -1.7938113325620062 -0.03917913987187687 -0.030473560225999972
H -2.0971594086794982 -0.61362903327424 -0.8976856653564913
H -1.2150000913431467 -0.6122210716663791 0.6869577241682913
H -1.4707382960287603 0.9711303685522297 -0.2727773870069718
H 0.8819683475000476 -2.8298465134289135 1.6275734586174184
O 1.7891117295485368 2.846743729445852 -3.0888316028110987
Rh 1.049287986785452 0.4352797342997554 -0.2445014211471433
I 0.5592603084529005 1.678724248374827 1.9793611562408109
I 1.2557016875478932 2.83800021312931 -1.2771476496252017
O 1.5879688815241173 -0.9139326316541351 -2.850091528917971
C 1.3316072226493403 -0.42944614505505896 -1.8261058507659753
O 2.652990969263203 -1.48417397088769 0.937667616316684
C 1.47296471911877 -1.2290104198975316 0.7044271103936427
