13
## STRUCTURE-ID: 64568a0a42ce8f7cff374190 ; CHARGE = -1; SPIN = 1
I -2.5906530070363267 2.7866913614551967 1.369993221288114
O -0.78969657956277 -1.7274317767789136 -0.4050824624991591
C 2.009538411278496 -0.7763865505020614 1.911121914454296
H 1.9469476114797255 -1.6845785375015554 1.3437131661510382
H 2.9512403095733624 -0.28752196040265504 2.066919995519765
H -1.548659261036189 -1.8670754154029026 0.184545388854304
Rh -0.6164964245333522 1.6417781626792947 0.06367401126890107
I 1.6830474510076945 2.5377770978064667 -0.8454092909460464
I 0.3156132510547307 0.3151126165072176 2.1318551015187763
O -1.8339391090981951 0.33022758667592106 -0.8076924598045704
C -1.0103318293455232 -0.6112325667566255 -1.1802914320963134
O -0.04871251933392953 -0.17235549504546446 -3.442889229470606
C -0.46789830444771985 -0.48500452273391664 -2.390457924238497
