18
## STRUCTURE-ID: 64566f78452e7951b2111df3 ; CHARGE = -1; SPIN = 1
I -2.1517737509674753 2.7511653678575136 -2.2452322403109233
C -1.5297996591554328 -0.06168054755099763 -0.2982129861981249
H -0.9342396828015013 -0.8430447000553897 0.3000000376402639
H -1.98552699486474 -0.6050405468824879 -1.1385549986206516
H -2.36323088222978 0.2448918647183801 0.3502991188898813
O 2.5849761478733386 -1.7037149207440847 1.8777803423569261
C -0.31218394063196236 -2.1744377596551097 0.9772611349191848
H -1.3057895925153573 -2.300238052888031 1.3787168188307395
H 0.4551146687866375 -2.3257770020480333 1.7144910537959772
H -0.1266138333260838 -2.686794995653363 0.04851655477002143
H 3.1327986518399085 -1.3157462377753837 2.5645057257573045
Rh -0.15909252068979526 1.4667202434748732 -0.7308521048520952
I -0.7212020004986466 2.7342608976590665 1.5764324343574285
I 1.6894229591919658 -0.09004219642461393 0.7101124153320129
O 0.5532086042429445 -0.2255112290151058 -3.0816271994665327
C 0.3119604187648327 0.4382375544982522 -2.1798025857678063
O 1.7717966366755447 3.808652724230615 -0.9135396893623586
C 1.090174770305595 2.888099536253885 -0.9102938320712507
