12
## STRUCTURE-ID: 645668589e0ce5458d493a73 ; CHARGE = 0; SPIN = 1
O -0.6728433362049804 -0.8223026084510765 -0.030834387387728503
C -1.3186639237602038 0.3549545517246398 0.18383049111898012
H -1.9000464580261227 0.29763151384378067 1.1060965384484513
H -1.8365485299900792 0.77125644912408 -0.6758727368535518
H -0.473160832284317 1.158602314965041 0.43448199374081764
H -0.5892399554315563 -1.051498203358967 -0.9791207262767075
O 0.8542109659055739 1.2949388622505178 0.7028614907704546
C 1.512725799367483 0.19696732410720486 0.6479243385020319
H 2.2040461204835653 0.0776022692135789 -0.19735135458133798
H 0.644928938817015 -0.6466603518617372 0.32757643473756715
H 1.8252967938353173 -0.23063611983229854 1.6116359076695488
H -0.2507055827116877 -1.4008560017247653 -3.131227989888526
