12
## STRUCTURE-ID: 6456650e59803e70742726c1 ; CHARGE = 0; SPIN = 1
O -2.8454148201429255 -1.05011171731685 1.2414742777682737
C -0.5627233186648167 0.5477007092928414 -0.9486336543581539
H 0.20872668273177417 0.04920635757809328 -1.5329327753227417
H -1.4392298788343876 -0.08907918595908838 -0.8581704874459886
H -0.8180362496588833 1.4672691958640134 -1.4725756800924772
H -3.251042698339777 -1.234316249064553 2.0917029520518615
O -0.45737695407847734 0.5391867998380627 1.447342526964938
C -0.010049566607649331 0.8939562298694331 0.3814628632962058
H 5.398033180412726 -1.1409588283219698 -1.3683933852338874
H 0.8891152634846162 1.5354640355719917 0.353341255243509
H 4.93435724775121 -0.9865168390379024 -0.7642576070008766
H -2.046358888053413 -0.5318005083141304 1.4296397141293857
