12
## STRUCTURE-ID: 64566b220489b136bd6231a1 ; CHARGE = 0; SPIN = 1
O -1.488933350430143 -0.19235491250392325 -0.35719117199603617
C -1.6053145273325815 0.36150916025568447 0.9204959504638996
H -1.3049149013974606 1.4158048777859755 0.9373851598924386
H -1.014764692833267 -0.1928393879261745 1.6602509773361853
H -2.6587022610171878 0.2935450506974667 1.1996241291389356
H -0.5225912366690019 -0.1551001417666099 -0.6514979880634503
O 0.969730229668543 -0.07789183036804781 -0.8992482995897573
C 1.7214311591302738 -0.18082670620970268 0.21556502026855712
H 2.784047653654209 -0.08547984062289277 -0.07249627975793607
H 1.6172583297643912 -1.1602222881328943 0.7132234182922478
H 1.5280830144103017 0.6338594664773062 0.9354040549620278
H -0.025329416948064176 -0.6600034476861851 -4.60151497094711
