13
## STRUCTURE-ID: 6456888d00edf5380d4975a4 ; CHARGE = 0; SPIN = 1
I -1.1340752421215885 -0.3619575686522597 2.4837236077439147
C -1.3089130309837904 -0.13226449223159636 -0.9704225731688272
H -1.095657895321539 0.3673115462641236 -1.9161393084868863
H -2.136738047024907 0.37580985171069087 -0.47508496988896787
H -1.6015822471713215 -1.1622295250062495 -1.1747738269076888
H -0.8390795934486333 3.0063786207465415 1.6002882192635315
Rh 0.39960546825467597 -0.03216848281481662 0.3154701049938227
I 0.14330116502976406 2.761538263391879 0.37494532335627156
I 2.858442227499189 0.011439815660125788 1.7327378668807014
O 0.4454873049332786 -2.989424927825734 0.6650388210975924
C 0.40570027186618746 -1.865876003566125 0.5118036732444574
O 2.311485594174673 0.005643899025559113 -1.9944778914458965
C 1.5520240243140062 0.01579900329786628 -1.1531090466820122
