12
## STRUCTURE-ID: 645669a69196637a0741e58b ; CHARGE = 0; SPIN = 1
O -0.04514157795713325 -0.31868527124477647 -0.04058887747704961
C -1.4055453577383534 0.006499606875445514 -0.22987907763246818
H -1.5173880466879919 1.043982796346296 -0.5635726165998902
H -1.8956731125157287 -0.12250503566877714 0.7322963674239762
H -1.8650712365645359 -0.6580320144472033 -0.9693644652497999
H 0.7682982734046658 0.3518982716442313 1.562597922629745
O 1.176984496112299 0.6121157585884248 2.4020206334441374
C 0.7160123873525539 -0.19879620113081373 -1.2231330803768719
H 1.736738209821344 -0.47399448334513067 -0.9681892821689149
H 0.6954089640530972 0.8297961249675138 -1.59971351650228
H 0.3362482813751329 -0.8708968922411476 -2.0001197108688245
H 1.2991287193446535 -0.2013826603440623 2.8976457033782372
