18
## STRUCTURE-ID: 64568c102c486e0fcb6cd4a4 ; CHARGE = -1; SPIN = 1
I -2.635956455483522 -0.22415524677821233 -2.774685851570501
C -1.4848090174430384 1.7228433471847817 0.6114785194099692
H -2.382279328148805 1.10669000471832 0.5729093055466211
H -0.816607963617883 1.338010239547199 1.3806159660509727
H -1.7552222600935556 2.7515524409284304 0.8452198843835653
O 2.1856480897103006 -1.078137847664101 -0.7358465325868236
C 0.28530506936366234 -2.1922005540773264 1.8320814050363845
H 0.5755186001983367 -1.2485945511714296 2.280223834620261
H 1.14175585011327 -2.7013969688534494 1.405954357906225
H -0.23739861885307048 -2.8232305636452666 2.5411094185706986
H 3.069803297383628 -1.019679513999801 -0.3229618908554964
Rh -0.21521430428121094 0.028087914274283417 -1.5415348388373968
I -1.0941790390650727 -1.759795894246952 0.21008226292767215
I 1.2390177356761995 0.6129976572515364 -3.717324696989608
O -0.5102363221790199 2.7069705552808094 -1.3512986134815153
C -0.7721950559538477 1.722439213042832 -0.7176760821339654
O 1.9135650774001236 0.9854507891052945 0.08490242418622793
C 1.4934846452735098 0.07214897910305632 -0.6032488721832844
