12
## STRUCTURE-ID: 645664b1d4568456ec40f1f8 ; CHARGE = 0; SPIN = 1
O -1.8335966021766759 -0.11825642605079312 -0.34132908767886805
C -1.7781335859126612 0.2792908798205236 1.008015050249751
H -1.4978262911759852 1.333169398693326 1.1046220530110955
H -1.069490970253075 -0.33252132211867985 1.5767588760370728
H -2.7755823016848566 0.13954905098834156 1.4232594701994532
H -0.9531559023625783 0.025047640785356488 -0.7340011395024055
O 0.8550861783735757 0.22749150663491113 -1.256815192574367
C 1.812906256310994 -0.2783145099526067 -0.34792152625127537
H 2.820657605183717 0.05460504328089384 -0.6077083300029179
H 1.7886168693712376 -1.3710495871479693 -0.31211442482602075
H 1.5539969616521614 0.11580365070721257 0.6331267125868114
H 1.076521782674155 -0.0748153256405167 -2.145892461248332
