13
## STRUCTURE-ID: 64568bb8bc8d6e4ab22b66aa ; CHARGE = -1; SPIN = 1
I -1.1896504250818065 0.46903077586180875 2.6429564238187986
C -1.3965180998121012 0.9213015080090087 -0.9660980422360282
H -1.488779484240119 1.059035992893579 -2.0429491389242163
H -1.6026443520499334 1.873563771120078 -0.47245617933042394
H -2.1256559942321616 0.19350167202303287 -0.6173367742349696
O 1.8286568534433352 -1.7318535330233422 -0.1746325169337007
H 1.457631010696192 -2.332924712785652 -0.8279071054742689
Rh 0.3701724127145604 -0.6959975018362942 0.8448420278153849
I -1.2944868208442606 -2.631482990208457 0.29586372363742
O 2.677547807204408 0.91191820770152 1.8110542960707916
C 1.7534337905613955 0.35245901939546503 1.4329458012553833
O 0.9717162447894337 1.031479624301259 -1.2616470101866202
C 0.03857705685106566 0.5799681665479862 -0.6646355052775554
