19
## STRUCTURE-ID: 64568e9760f2437c2e4efca4 ; CHARGE = 0; SPIN = 1
H -3.7360274145913057 0.20841244003588744 -1.4012709529237066
I -3.0851188622104706 1.0263115890273384 -0.21306732102591788
C -1.8314391319729608 -2.084742596277561 1.485528895001639
H -2.1445608110076115 -1.6915539066053766 2.453074592017482
H -2.714981930363469 -2.3433783116906244 0.8984109280093162
H -1.2314686963477834 -2.9832952301583933 1.6418197643720986
O 1.5528746183327833 2.3462740141873386 -2.723933058569491
C 2.2989021548327235 1.6811066604254667 -0.24989418552867673
H 3.2096756631790804 1.8770318627340394 -0.7995330933207234
H 2.4799705464874786 1.0535097690224764 0.6152269816505812
H 1.8262214439366526 2.615601681512461 0.023234518906690194
H 1.1441377925523384 2.375378226876012 -3.59052690164989
Rh -0.717213848660381 -0.6997730549489246 0.334501574084495
I -1.0858865305929224 -2.0266330956910554 -1.9208773033144233
I 0.9929231074331762 0.6602492705418099 -1.5704609072300906
O 0.09560642085271198 0.6353077409797044 2.8761636039351965
C -0.26777914666574903 0.11955959765221932 1.92394492140242
O 2.0886498440801162 -1.6882588357310213 0.24628762617676167
C 1.1255147807257317 -1.0811078218916184 -0.028629681993695814
