12
## STRUCTURE-ID: 6456652ac680b110e37ffa86 ; CHARGE = 0; SPIN = 1
O -1.4745562083504666 0.8897765304893314 -0.5851928969689596
C -1.4080474534286858 -0.02060526928225777 0.42594092774731634
H -1.9033086584602106 -0.9738793748947636 0.20403196741454116
H -1.733862388912307 0.4003756761417178 1.3783841348774204
H -0.25816955041116635 -0.29413770589551236 0.48562867632300943
H -0.6686454644941991 0.5724471856523932 -1.1929318640023683
O 0.6036618712294928 -0.051813669663443626 -1.4839416179332632
C 1.2269105775970217 -0.2915761578533661 0.5137357560518166
H 1.0374606843585048 -0.6300104456857092 1.5310908884637917
H 1.595722773387484 0.7196774465283864 0.48877451426341323
H 1.8276043716501795 -1.0067924610290053 -0.021858695182722314
H 1.1552294458343526 0.6865382454922481 -1.7436617910540044
