13
## STRUCTURE-ID: 64566e2bb0efd6130b37418a ; CHARGE = 0; SPIN = 1
I -1.2177371905047116 3.134422767305015 0.3917615129015372
C -1.4411572366163015 -0.40393485746420954 -0.05464293425534446
H -1.867493369891848 0.0931186474740627 -0.9299341090951244
H -1.9160433751409456 -0.028429637108992236 0.8517717501662775
H -1.5680627979071267 -1.4870645008450696 -0.12509336401254814
H 1.2137336643753345 -2.7312459966480165 -2.3089863857589035
Rh 0.6088876052067017 -0.008903295139095223 -0.10192732859216928
I 1.5075720694063586 -2.6957710015758822 -0.7518887601941777
I 0.8834335188750839 0.7644248173579521 -2.554844783885569
O 1.6079308230283205 2.38686166142478 0.6770023862368175
C 0.5752299888063496 1.8853923520169145 0.379592560602941
O 0.8989678944327474 -0.5229825116363724 2.8212575066653645
C 0.7147384059300272 -0.38588844516106613 1.705931949220896
