12
## STRUCTURE-ID: 64566af8f964a74a2c56edee ; CHARGE = 0; SPIN = 1
O -1.7140101497247202 0.09689557592563372 -0.7178711646352126
C -1.964416085098201 -0.1450441043196339 0.6462741422884548
H -1.7587339412191525 0.7410081283363975 1.2551699014196496
H -1.3657077928291799 -0.982648620174798 1.0206709067557058
H -3.0198819679872604 -0.399324814012073 0.7367963396391958
H -0.7839795264115873 0.37321189263612126 -0.8100486358561683
O 1.0696178479320406 0.758375961370149 -0.791394097397682
C 1.867124434224787 -0.1636581267934932 -0.07518340513393329
H 1.9121587540545983 -1.1297976602520454 -0.5855787610466082
H 1.3964242931889783 -0.29664391224447095 0.8971919571035127
H 2.8804687282062096 0.21801409190320037 0.07131637128516129
H 1.4809354056634931 0.9296115876250123 -1.6473435544220825
