19
## STRUCTURE-ID: 64567ad9d445f4162475cc2b ; CHARGE = 0; SPIN = 1
H -2.53319034563353 0.5481006216071718 -2.1523895310741303
I -3.887678905294828 1.3805391291123965 -2.040674368392485
C -3.7005892059153336 1.7057351356738633 0.09073123855476975
H -4.635422556254461 2.147940954233036 0.42653217195546517
H -3.5275986789204827 0.7219742714114273 0.5177917901870828
H -2.854932664218639 2.3733880312271762 0.22642332961072453
O 1.2736866141979295 -3.0717332264848354 0.4947271477954996
C 0.15477470406296479 1.3928068627576584 1.7559902483065
H -0.6463502875563034 0.6638347483660396 1.7196565965270942
H 0.18073486495254762 1.9928147469864543 0.8539364658179199
H 0.10497798547079243 2.004820375552384 2.6483255800905714
H 1.8205681668987101 -3.785384008973892 0.8244663544956474
Rh 2.1040457292668004 -1.5831735125848225 -0.6749067573227209
I 2.045257906707617 0.2729092992283825 1.8490096158057088
I -0.27820921312167995 -0.752136438630049 -1.2159470395918144
O 3.406810974359572 0.3240976063203436 -2.55730333274769
C 2.8574445891987663 -0.3699647140350403 -1.8082227829552289
O 4.483678673844057 -3.3690676849624275 -0.4086278592669354
C 3.6319916479554744 -2.5975021968047276 -0.5495188677960264
