18
## STRUCTURE-ID: 64566ecb48b49d175b4ed2b0 ; CHARGE = -1; SPIN = 1
I -1.4397060635953676 2.3319445428253145 1.483736997862013
C -2.6081964735212537 1.028723991746577 -0.3727292124243406
H -2.425192725236283 1.1783020397129464 -1.4327807205684382
H -3.5126111280875314 1.5333869619995868 -0.07085788428416868
H -2.5839154412379988 -0.001466611698246915 -0.03996652482867598
O 0.21515596321672686 -2.823505369955352 2.5219333346922252
C 1.7253409294754578 -1.9666404206276236 0.40747891286272714
H 2.0812503014386565 -2.6146488038571127 1.1943186414811884
H 2.4854061479063208 -1.2520640844370055 0.11060579906706204
H 1.386638897340289 -2.5503449907825417 -0.4401653333861492
H -0.436690136202644 -2.798409116684558 3.2215571289343155
Rh 0.032183995459588326 1.2178461253268327 -0.45254587016817377
I 2.648965280201006 2.0217534750894885 0.6448887052219554
I 0.09117499793443046 -0.8911641153431492 1.2028374342508588
O 1.080510650547908 -0.7579509753918444 -2.4662214205904665
C 0.5840124282653425 -0.011281013678331016 -1.7399854235364953
O 0.5098222470863607 3.614182202921724 -2.2157007912654616
C 0.1658501290090666 2.741336162833281 -1.556403773319985
