12
## STRUCTURE-ID: 64566a436357ee35c3530d69 ; CHARGE = 0; SPIN = 1
O -0.6021873317364433 1.0532838781544507 -0.7108096774203033
C -0.9314074524463861 -0.06796391280890052 -0.38233261943317115
H -4.754121220632645 -2.942631399358668 -0.3568343225929451
H -1.4168563892990862 -0.2783661459390613 0.5815963130066507
H -1.0968918592865313 -0.8654439386968901 -1.1209669064588819
H -0.6040310373450603 4.323935768497251 -0.01672731289798836
O 0.7638654241326925 -0.926909395765195 0.2649926846831405
C 1.7192287269287616 0.10004024009118014 0.499105860830431
H 1.4717874961621904 0.5445952731634981 1.4605117916762118
H 1.6511478041773402 0.8581264603550096 -0.28672292097499197
H 2.723867318893501 -0.3166603278924124 0.5335910082579309
H 1.0755985204516738 -1.4820064998002764 -0.4654038986760719
