12
## STRUCTURE-ID: 645669ae482e24630573b9f1 ; CHARGE = 0; SPIN = 1
O 0.3157078692566658 0.6723383261081696 -3.180944255047928
C -1.7767761329551044 -0.603742567387198 1.576873288533165
H -1.9970094299275885 -1.6533914734556687 1.7211464113032657
H -2.6531067850934353 -0.10201243947325789 1.187874475248172
H -1.499701881617563 -0.15967246494358137 2.5240920195542955
H -0.5775241668360238 0.3291351538709215 -3.2616395078684435
O 1.1656285855042536 0.08352024847506338 -0.4112026817924866
C 2.145078448389736 0.3863506887793888 0.2124460985382039
H -0.9603225162304788 -0.4990328768716558 0.8743909111634778
H 2.929597488641138 1.0304993791283852 -0.20703421528713545
H 2.3122502892753585 0.036230971506473746 1.239987036995714
H 0.5961782315930418 0.4797770542629565 -2.275989581340302
