18
## STRUCTURE-ID: 64568ab2bd6edb6f872cdf7a ; CHARGE = -1; SPIN = 1
I 1.1115483385356328 0.9724598794632684 -3.090003837254849
C -2.379403094900168 0.5629099357737064 -1.4225425520577597
H -3.239582716159563 1.215456167068863 -1.5649439707796737
H -2.1126580660692778 0.07513884820247743 -2.3582281277779127
H -2.608136050768968 -0.21446515957421514 -0.6956312961572435
O -0.3857986164984966 -1.6581798300086936 -1.4226147336007702
C 1.5279486192220744 -0.48150770110392155 3.0238696082674053
H 1.8904380684929312 -1.202478069409407 2.2970896857586056
H 1.1620700452780406 -0.961464504057184 3.9231430158700364
H 2.28733874134782 0.2625907881638919 3.2390776698967527
H -0.31716013276808325 -2.6341678197516742 -1.4671891834747466
Rh 0.6114855080211894 0.8267561992756302 -0.49966524509696225
I 3.1496597167286975 1.6501389358043015 0.29626165254320874
I -0.1442921458201616 0.5351150303699712 2.0991894786898437
O 1.3711930646203774 -1.7730547997725707 -0.04644697356850388
C 0.5504726223543368 -1.1144605053435417 -0.6593505540575474
O -1.2538484673186776 2.567278865912178 -0.714718468930041
C -1.2212754342977596 1.371933738986931 -0.93729616826981
