21
## STRUCTURE-ID: 64568d3f2e47e17e1b530d6b ; CHARGE = -1; SPIN = 1
H -2.376732916251634 1.1027685734442 1.769525507050181
I -1.8611855714405066 -2.409029226357413 0.07794506105922906
O -2.074428043180103 0.8514481904926788 0.8843740122772547
C -1.6474539429279504 1.2162617225845578 -2.0703814092821338
H -1.536447756526138 1.4046512565345781 -3.137026758730057
H -2.4665525920742644 0.5116341043771194 -1.9245300566230226
H -1.8883199072461498 2.147468388363923 -1.5434195802463606
H -2.2614994777715385 -0.10973914512639818 0.7695254767699254
O 1.6973198435107073 -2.36911695393546 2.700645752305031
C 1.7820025812674556 -1.8174221732010563 0.046025967530749966
H 1.433768731260083 -2.832965246581163 0.17849987836545667
H 2.8575234986728284 -1.7589981320156327 0.14601614265991808
H 1.4416485313805536 -1.4048994068200429 -0.89515967315962
H 1.53767868281555 -2.2579208931573467 3.6398814220458804
Rh -0.01392572206328357 1.3758796943864713 0.2288774958967457
I 0.11281718115985587 3.0383543247580214 2.2959106866491994
I 0.9309562804498669 -0.6941250521052151 1.6079620272948307
O 0.2866893490851418 -0.19693421660498917 -2.2027654285882248
C -0.3863152695034096 0.5614666018263484 -1.5464298816477764
O 2.757778877258241 1.9173657321957032 -0.6763081053993704
C 1.674677642124666 1.723851856941205 -0.3491685362278713
