12
## STRUCTURE-ID: 645665ff2a594b52e66cd4bb ; CHARGE = 0; SPIN = 1
O -2.9339119533465166 -0.41049040664151554 0.18934424266380948
C 0.436228391170989 -0.08200658166995949 -0.6692663662594533
H 0.5312463651900556 0.7246600302139695 -1.3935456239692041
H 0.7751435060760717 -1.0069594148033278 -1.129356654678018
H -0.6104885303443031 -0.1844082293981764 -0.39845996860511584
H -3.682315625122826 0.0378417428677927 -0.21315509776657515
O 2.6508421587139437 0.28934119328912294 0.3151095319129288
C 1.2619444113040192 0.21689556548286795 0.5753636233447126
H -3.2908609232846437 -1.0927554479844446 0.7636681583666438
H 0.9186877928266378 1.154357750299078 1.0364948509006873
H 1.1483438011562004 -0.5853775579397947 1.308414386419782
H 2.79514060566037 0.938901356284384 -0.384611082330184
