12
## STRUCTURE-ID: 64566a582e39530b7d39082e ; CHARGE = 0; SPIN = 1
O -1.6864853820537478 0.7456871103945063 -1.4318536389324354
C -0.4615712152759142 0.8156507188031336 -1.1534269993573936
H -0.09795575932867463 1.812006878405484 -0.874243705455836
H -0.5060443766722009 0.2542848934306769 1.9811282247218314
H -2.501676328833584 -2.427514584576026 5.619905286174886
H -2.0371679878221873 -0.14040427917811266 -1.6846705807312845
O 0.3015818636579611 -0.18328371892326137 -1.2063481381594336
C 1.6929433159751324 -0.10526285329125315 -0.9061709225799922
H 1.8826526950060465 -0.7697445757818735 -0.06178309221654288
H 2.0004053519031673 0.9127878074570547 -0.6672062912134434
H 2.2308676948789916 -0.47914284240302846 -1.7784548915191163
H -0.8175498714349914 -0.4350645543372877 2.1631247492687575
