21
## STRUCTURE-ID: 64567508d15a1f3aa8230d81 ; CHARGE = -1; SPIN = 1
H -3.138374642986776 -1.1250595009418554 0.9003851337790817
I -1.651827690270439 -0.8691232267180758 1.6634794349859694
O -1.2337360244542288 0.09748067348574116 -0.18383441542062856
C -1.3288176583805749 -2.8013512854838716 1.2273060588135984
H -1.1740450274045848 4.483933515350541 -2.2733713585126276
H -2.2343310751428267 -3.351657608798931 1.0390236308483398
H 0.9002175225247738 -1.9296605671972746 -0.08772272243908191
H -1.9997200026029245 -0.03920260654053378 -0.7530519644848563
O 0.30643428936705713 -0.6429100989399957 1.8768428216044075
C 1.6988350608450564 -1.6068277863276403 -0.7476793300210922
H 2.42668495543959 -2.391583899118834 -0.9096987294819783
H 1.305424255696859 -1.2337164845569248 -1.6876687169875224
H -0.6345506821610343 -3.2661282457529377 1.9089104040402476
H 0.49796765103719814 -0.32664515989411746 2.760845531521604
Rh 0.1290534681090109 1.7715742503000775 -0.3313322133832211
I -0.6695293332007011 2.588592616331147 1.9773248200750504
I 2.7083784822224963 0.04062939530597348 0.22775543429757722
O 0.7667598549489427 1.5472732934419893 -3.240888078215768
C 0.45625439596909223 1.5340347914728312 -2.131203640198183
O 1.7571148714721267 4.230311877060157 -0.6931705786662586
C 1.111807328971885 3.290036057522545 -0.5422515221546903
