12
## STRUCTURE-ID: 645666ebcb2bc725d36cdb40 ; CHARGE = 0; SPIN = 1
O -1.571425461818787 -0.4414016576025141 -0.1955385865367713
C -0.9814791540427555 0.043506637937020025 0.8184197545560091
H -0.284990252423928 -0.6059245315150308 1.3236307570721
H -2.2348195367877612 -0.2716552555303385 2.2987939601531178
H -1.036833148821835 1.0828833659976587 1.0967177929278598
H -2.1705547422495908 0.1746717543724537 -0.6624180797787182
O 0.7590702946826623 0.7829278842214588 -0.3497412835497777
C 1.4133298372128844 -0.2969897510294477 -0.994728603680538
H 2.108331266984306 0.0758954232280044 -1.7497179955016806
H 0.6413285625508967 -0.8897602079056715 -1.480819110727162
H 1.9505563949426235 -0.9243735824029938 -0.2810391596946327
H 1.4074859397712896 1.270219920229381 0.17644055476018666
