12
## STRUCTURE-ID: 645665c905676c2a0d7c7c40 ; CHARGE = 0; SPIN = 1
O -0.7534207695382783 -0.9566805089063019 -1.4444433717804943
C -1.1335311195453248 0.6951059209292992 -0.3991569872912732
H -1.1160899567951355 0.5333651850715176 0.6647169022071117
H -2.0959896226132786 0.5114940621378805 -0.8570944181829356
H -0.6803205476258437 1.610109336408468 -0.7359562830689995
H -1.095808728500076 -1.6737721698131913 -0.8975803477080269
O 0.9291591838186325 0.24184183607922746 -0.2933143092128676
C 1.3386725130179624 -0.016083446100388123 0.9882062322216225
H 0.9331680138364464 -0.9615562416252885 1.3888849757099349
H 1.0525130265295528 0.7980819249074044 1.6751021222645148
H 2.4363776557323336 -0.09041247380719562 1.016263558867305
H 0.18527035168304148 -0.6914934252814434 -1.1056280740259181
