8
## STRUCTURE-ID: 64568810e40f7726be2648b3 ; CHARGE = 0; SPIN = 1
H -3.6104889801587436 0.5816583549498755 0.804192454872042
Rh -0.47411886693544086 -0.3872916101252181 -0.15838115187368926
I -2.963768902904158 0.2918636347115389 -0.6225278239454055
I -0.3838531736889051 -1.041720693116287 2.295067109634641
O 3.051151788320177 0.48379683579190597 0.7404023680720712
C 2.2705273063804885 0.2918578311608949 -0.1072219614279511
O 0.8399681219237972 -0.19719058938208103 -2.0496541567732387
C 1.2705827070627929 -0.022973763990622016 -0.9018768385584799
