18
## STRUCTURE-ID: 64568b906c825e382f5ede00 ; CHARGE = -1; SPIN = 1
I -3.33097304147585 0.18547470597356264 -1.9297754246464154
C -0.804296391818485 1.7259376998004652 0.8207378922922173
H -1.9010767535681785 1.6276510245002505 0.7853824112089135
H -0.5056909559555479 1.4486234469329402 1.8299192786232277
H -0.5615327688463883 2.7738915708030087 0.6486096150730164
O 1.3485188026175916 0.10699728796754433 0.998644100307739
C 0.5759870969428379 -2.99967998771897 0.9466579513432212
H 1.2116920145556318 -2.5020005602301376 1.6687809456228313
H 1.0605743464935444 -3.078933991778799 -0.02165821308894326
H 0.24144040213435136 -3.967915945712917 1.300787195693183
H 2.281440266665202 0.29072534402055195 1.2181601834839137
Rh -0.6804934728686172 0.3382522679633392 -0.9453971269444047
I -1.1926446783680176 -1.770910918498739 0.6810916392539063
I 0.704441835300245 -1.2600363361819333 -2.683799685717364
O -0.43663529944508533 2.4911451025043627 -2.96378394991376
C -0.5217197844601408 1.6785803887525272 -2.1559452657843257
O 1.6246963407323005 1.899306088413821 -0.3007435671321953
C 0.886272041364626 1.0128928124891226 0.10233202032525138
