31
## STRUCTURE-ID: 6456f61d9de82c3c8a324929 ; CHARGE = -3; SPIN = 1
I -1.4425577411537736 -1.3477823315384192 2.8212792435762344
O -1.0197940287004652 -0.7500655240186505 -3.2447045011046693
H -1.1628607275119378 -0.42912664982269144 -4.14686175979192
Rh -2.2073508784910554 0.5116634963229111 1.1578427941370328
I -6.04677547287554 -0.1794592090476757 -2.4993740018169897
I -3.8833149080100307 0.5948404356865544 -0.799813347209896
O -2.3900989037765457 3.0760960946452647 -0.11932305503545551
C -2.0901330518201524 1.8789402725534232 -0.26347840732874905
O -4.1136527608480105 2.317905879931202 2.505941259659553
C -3.388430952610429 1.5226418180789272 2.0674429755836483
O -1.0033010359418928 -0.5573251125702081 -0.34316064722748013
C 2.3039711451166207 -3.850063189093957 3.1024735260522935
H 1.3949881897024903 -3.7677078572266836 3.690422471505972
H 3.0807275253100648 -3.1923716346185627 3.48126667658198
H 2.641983306256453 -4.876793211371194 3.007558806132288
H -1.1168848442482346 -1.712311414534398 -3.328226398747154
Rh 1.705789530473062 -0.48091873391466883 0.6827163902113953
I 3.1839373595031972 0.09586714908700578 2.770685925637847
I 1.816625202271532 -3.173527767869576 1.0566342470132393
O 0.06768760474316736 1.4818453519065675 1.6240373409130953
C 0.5806193589557124 1.1905312844348923 0.4661967800293555
O 3.6261889614711023 1.1623958868004436 -0.8217427824940977
C 2.6934246474300805 0.4617615953083735 -0.5956490265262819
O 1.1062962372960317 2.4101824970054846 -0.16601795410019748
H 1.4139570832889352 3.0075438484204087 0.5274075718055363
Rh 1.1635976388166787 0.17209331735301475 -1.8641800387432839
I 2.198943239742318 -2.011598080544575 -2.697777062542812
O -1.1282875474179845 1.587558937829823 -1.233196197183703
C -0.3749719056148334 0.5308373547379874 -0.5516149709730942
O 1.3003639028467662 2.717401055148333 -3.0022703408513975
C 1.0893138257965278 1.608944440920799 -3.2845155171624576
