12
## STRUCTURE-ID: 645669a2e94f032c05530d6b ; CHARGE = 0; SPIN = 1
O -0.932393425028157 -0.15712253088327313 -2.562517629057213
C -0.7342587548235396 0.18951744050682973 1.2724934076472818
H -0.31275863673773324 -0.18154786898115935 2.212711265689076
H -1.754483540779222 -0.17076255079356895 1.163129049291659
H -0.7292208086126983 1.2851062702382419 1.2867805030529915
H -1.3685796539584518 -1.0003927651166178 -2.705514707063797
O -0.007869987811548868 -0.3045369346847224 0.16778115086237982
C 1.3557755115112722 0.05897459634101497 0.20216291202329104
H 1.4698932304393992 1.1483797724559706 0.207778507281233
H 1.8118176377813229 -0.3506418906683559 -0.6961800142627873
H 1.8471622607931941 -0.3563144068534026 1.088528757649021
H -0.6450838327738142 -0.1606591315609444 -1.6371532031131402
