18
## STRUCTURE-ID: 64566f9d9fa81d103e610ab0 ; CHARGE = -1; SPIN = 1
I -2.118236802273334 -1.2110933795654375 -0.5146609112558493
C -2.1289624005117687 0.1453588374396112 1.6283184674229145
H -3.2068164468945137 0.09677073808777995 1.5776506440523033
H -1.78497574627469 1.1468908215992648 1.3902548135577928
H -1.8093849732603071 -0.21936502376250971 2.60265263010501
O 1.0462621973987651 2.902272778052534 -2.091218985594018
C 0.6349527355931778 0.27942644260941507 -2.451433218170639
H -0.2977864594428604 0.5907917519707068 -2.90313930940769
H 0.6678429500100582 -0.7972053856098801 -2.3223502606542223
H 1.4645466854587206 0.6345566525111132 -3.0473485463594456
H 1.129844089072738 3.7509778509324896 -1.6582394721821148
Rh 0.14470758073416412 -0.8761365852920047 1.0142565632857965
I 1.0994150599383428 1.059092458278452 2.851880162641146
I 0.801003820544619 1.2104974950832577 -0.5559868881326064
O 2.720466874891013 -1.5932056585465593 -0.43387192427112997
C 1.708834282032227 -1.381714393504258 0.0855015943227909
O -0.00936700682575038 -3.356733170174582 2.717054760068086
C -0.062346440190472315 -2.38118223010929 2.110679880571614
