13
## STRUCTURE-ID: 64568b38aa27f443ff4efca4 ; CHARGE = -1; SPIN = 1
I -2.6831618283402725 -1.5545752023292234 0.054062457246343426
O 0.5560401952029913 0.07541098513501672 -1.9032585739866836
C -1.3186602506783125 -0.007110547498444554 -0.4400541781291396
H -1.1832887911793388 0.5965433647285154 0.5249113194716507
H -1.7427706344904494 0.6477334207813549 -1.1985936302793265
H 1.3143328906761935 -0.411458442713369 -2.2719112131874932
Rh 0.5021591192181656 0.8044422517591167 0.8420567175667709
I 2.9620946560285293 1.28567076710641 1.5801078270597095
I 0.13517575075787033 3.103629214415771 -0.3339090439206018
O 0.3461985741995573 -1.7516431229312623 -0.6083787084796738
C -0.007514430836742042 -0.6048951158781889 -0.8763506919573701
O 0.5641792594456152 -1.5366999663664564 2.67925458159402
C 0.5552154899961864 -0.6470476062092444 1.9520631370017905
