17
## STRUCTURE-ID: 64568e7220572931e1112984 ; CHARGE = 0; SPIN = 1
C -1.4410965668805273 -0.8863106856210972 -0.4747135597418509
H -2.276219833842955 -0.8832877157077567 0.22393995918475137
H -1.5531582050932733 -1.7198304116666776 -1.1786827441205006
H -1.439920683427679 0.05969875943057958 -1.0145904909960057
O -0.7118431734846283 1.2763582707271288 1.3288521567491443
C 1.0727044326713964 1.9759479504073805 -1.8550808727344013
H 0.015577014931692224 1.9991430089869129 -1.613135393522484
H 1.2414968436427931 2.1895095537935454 -2.9050647206328852
H 1.6410865666382848 2.6493135052245993 -1.22325124195849
H -0.6350366786161049 2.0638450103545796 1.910052219168543
Rh 0.4149180498393087 -1.251438464644338 0.42370403061450185
I 1.8083429298280769 -3.5077543090755454 -0.08232202177010836
I 1.7920875840387815 -0.04839551962565614 -1.4888558511036072
O 1.2383027412373329 0.5684838043944546 2.175220080987937
C 0.27468233236559997 0.4283697162794973 1.4495225709001092
O -0.9786876505440092 -2.753088013952433 2.5756242906906373
C -0.46323570330409536 -2.160564459305171 1.748781588284714
