13
## STRUCTURE-ID: 64568c32a6cff23a886b0e04 ; CHARGE = -1; SPIN = 1
I 0.7895819718231918 3.227709866097237 -0.774768928394509
C -1.5671537941932652 -1.0072565967053946 0.1426739245159266
H -2.192250603066049 -0.3842864756508018 -0.5014575213482209
H -1.8473614679436372 -0.8572341537474423 1.18693707493094
H -1.684612819591814 -2.0611891003540594 -0.1263238442941878
O -0.09707961646859749 0.3656280321491442 -1.9039957200443822
Rh 0.41950795436885346 -0.517641485175658 -0.14807090265655717
I 1.3573950563184727 -2.192033666777909 1.5900043581887215
I 0.5618429521203155 -1.2310191550693623 -2.7861448082746736
O 2.532242721813822 0.9226013255737039 -0.09682548547975718
C 1.470032094454858 1.4170145276393395 0.2382283030092215
O -0.17646154150776244 1.3766576752506292 2.0557680563989615
C 0.4343170918716314 0.9410492067705719 1.123975493448522
