15
## STRUCTURE-ID: 6456b72199221d5d5d4d91d4 ; CHARGE = -1; SPIN = 3
C -1.9351276994051783 0.9418426584173462 -1.6423461565378388
O -1.9721329140474146 0.40403066720797054 -2.7062619587158565
I -2.9999172053642202 -1.3767713358308749 0.6175401821480638
O -0.4108417737414918 -2.4065558921914905 -1.2710611055768664
C 2.7115033953538563 1.334625402248885 2.092706620364517
H 3.0997034203337956 0.3528754814983519 2.287444559455303
H 2.9466190192202206 2.193811559746999 2.6888125403308267
H -0.037045055072605804 -2.888813437598758 -2.03903158192182
Rh -0.6463189593315567 -0.20572526580572928 0.41050890142640845
I 0.551047981210735 -1.7935150018037123 2.1506373783340114
I 1.4173330793015007 1.5904871452378426 0.5071125393016496
O 0.8056027156734468 -0.6260169390656201 -1.8944610371294008
C 0.0286036370437996 -1.1749853511401356 -1.1461228648907238
O -1.8769865372314698 2.292104804828302 0.37135529775035303
C -1.6820431039434165 1.3626055042506209 -0.42683331433863125
