13
## STRUCTURE-ID: 64568c2d259fc97d005c71a4 ; CHARGE = -1; SPIN = 1
I -0.9430889527737086 -0.16315396925563355 -2.5362839089269227
C -2.6587396139449178 -0.6824041478519902 1.1186597814622898
H -2.8206004331032504 -1.5680701024698898 1.7233884783771074
H -2.8273186402704846 -0.8753574456001146 0.06340556988717284
H -3.2438189372365933 0.16184675253617006 1.4681886825657942
O -0.5153189148792318 1.4863961148327116 0.5125887121342646
Rh 1.1875718965570419 -0.31134054529046024 -1.123631554428257
I 2.434397405711232 -2.5236002322754185 -0.8745829935082577
I -0.581041584613379 -0.13502501052288957 1.367295054895827
O 2.1932685418242333 0.9122324598511431 1.3244689057723422
C 2.1939115575228807 0.7948007556713707 0.12240630443597736
O 3.1109396381194516 1.7443987698870607 -2.003279902537441
C 2.4698380370867206 1.1592766004879025 -1.1626231301299075
