17
## STRUCTURE-ID: 64568f17c278c675f82cdf8e ; CHARGE = 0; SPIN = 1
C -2.1891518497243294 -1.1738711558594286 -0.3357009118560019
H -1.9865738856394117 -0.19436497055745716 0.09686342830589932
H -2.2995466423582607 -1.9355948206014009 0.425699967411151
H -3.0211813168760955 -1.144621689267124 -1.0262046966883525
O -0.4130766076127282 2.2722799240838736 0.03304820702636494
C -0.1576553037400177 -1.7066096004480131 -1.828089865192916
H -1.2414204634683323 -1.456513972976047 -0.9509765626162133
H 0.03055685858257046 -2.7509767024651097 -1.5931309797530413
H -0.6320784076243252 -1.4854539729014187 -2.779624429636251
H -0.24054904581571834 2.3724882791140387 -0.9086264626274319
Rh 0.6326844148029027 1.0256545999458204 1.076877266284272
I 1.4302806749385664 -0.4501869559814406 -1.3622660285188757
I 0.41761779419406714 -1.1056620776445631 2.4789190360249167
O 1.828784298161651 2.7372132845686963 3.1666920768771476
C 1.9143313098402501 2.0988448691879538 2.1521517904462044
O 3.418767808931384 1.3160664428348658 0.30264695142525533
C 2.5082103634078354 1.5813085189667677 1.0517212130878963
