12
## STRUCTURE-ID: 645668e6477ae8688d6b0e10 ; CHARGE = 0; SPIN = 1
O -0.1341300133949011 0.2021848577218299 0.8940743115985242
C -1.4197792526574917 0.643059866210703 0.7175710727990918
H -1.4428737842133414 1.6669916641337013 0.3088094960132576
H -1.9351838707125815 0.6697044488458591 1.689181616602687
H -2.003988385433913 -0.00985680304781439 0.047998058176434905
H 0.24933295233058142 -1.1009300737961185 0.4689214192438675
O 0.8059046319144126 -1.650525722649384 -0.21512376969498564
C 0.9844671765452864 0.21652052671084637 -0.8908025851794239
H 1.6556426336901624 0.7919735488034416 -0.27880445254189934
H 0.1136291142621317 0.7459511993379135 -1.237987580277344
H 1.4613407152707811 -0.34195840122160026 -1.6849781093424647
H 1.6656380823988715 -1.8331151110493848 0.18114052260224475
