36
## STRUCTURE-ID: 6456d91fb3c2731bb40b5353 ; CHARGE = -3; SPIN = 1
Rh -2.441893643297072 -0.42133753593052403 0.42449611101847134
I -4.365545070879691 -1.3039478835577791 -1.101065018554369
I -4.085084952629637 0.10387015244609316 2.405545366318436
O -0.6535462261855651 1.0797151185462395 2.2659772537768936
C -1.259039477810823 0.4490332651114135 1.4865348415379094
O -1.661807810265716 0.5742911334231733 -2.2506205495296405
C -1.571568262181494 0.027026823296821358 -1.2058810018520034
H -5.474968722563805 -4.495341636982784 2.9373717392860956
I -4.1790535293031725 -3.733093164302671 2.134811429997746
O -2.249205015508091 -2.7526829181115593 1.479780266248768
C -3.5861746758223245 -3.218843541360046 4.123165072459164
H -3.4974130494359876 -4.133181852842999 4.696600034900359
H -4.332283268264808 -2.539381819224946 4.519786573288409
H -2.6329155115435445 -2.7140996528323464 4.0316599728154605
H -1.7487960269864802 -3.3992536653254923 0.9796603509837919
O 3.374938131509682 3.905133588601546 -2.430285581245477
C 0.6000955806632056 1.872159409570021 -3.6258345046811735
H 1.2359374659245663 2.4815384513203522 -4.256038394512647
H 0.1716072187501447 2.4768196378571496 -2.828910257451935
H -0.19366479023493458 1.4080680003412267 -4.199689763481931
H 3.9967061245040365 3.539882927542367 -3.0840493573727716
Rh 0.4046839356207288 -0.8005124563300425 -0.6907344903471294
I -0.1041998118454792 -3.054207048390359 -1.958219600351496
I 1.7694221761852458 0.37058472235088774 -2.6720900468299105
O 0.15647326890825555 1.9738628773070452 -0.37990456586200244
C 0.8236600290006184 0.9838233751447736 -0.0270954170759499
O 1.0648929243559953 -1.2742626568937985 2.205832706690541
C 0.8620081843045905 -1.3407418393743469 1.0596439017320507
O 1.9427281279366617 1.206118323658633 0.7197580953143456
H 2.131775100513478 2.1815583723187366 0.6979879781902026
Rh 3.809917233470019 1.2160259127405795 -1.3492381287767727
I 4.15657399426417 -1.4079538741170023 -1.5475287936661268
O 2.5774757223185794 3.568727547169023 -0.4021021518334169
C 3.2150770754767226 3.080530416664486 -1.340879320408073
O 6.344439234813459 2.2666277724462542 -0.16509468453232765
C 5.398748316238776 1.8234437177195941 -0.6533500661935827
