18
## STRUCTURE-ID: 6456706ef341864b60623193 ; CHARGE = -1; SPIN = 1
I -5.022214873948295 -1.3035479524366311 -0.09602025101833053
C -2.5317921265420997 -1.3966118680778077 0.006794359068593884
H -2.4884988658057026 -0.5846161578718577 -0.6964735847283152
H -2.591867381147597 -2.4086103166474473 -0.34840434678351245
H -2.5956378503933104 -1.1843952670941795 1.0576474218581926
O 0.2953585598771683 1.43109521476814 1.046214353859519
C -0.6196867540696445 -1.5112614748282087 0.09094039011916313
H -0.47998885328208946 -1.6951697632464502 -0.9576513686539856
H -0.4828829465986841 -0.5126580923920898 0.47286558406313317
H -0.5483129845937808 -2.3374696113837983 0.7731556736240022
H -0.1945905165871111 2.2554552310070206 1.0994320161191904
Rh 1.9140652894230654 1.4336030360230672 -0.29803657840380277
I 0.26066097486693446 1.2457269161219402 -2.3545747860620034
I 2.069513111839676 -1.5249111025170594 0.13446016469692237
O 2.7674282149886316 2.6131991331527513 2.3077830967323036
C 2.602760274735953 2.158893469907237 1.2601993828111753
O 4.277816876057181 1.731078093223288 -2.099415320175858
C 3.367869851179671 1.590200512292106 -1.3989162071263894
