8
## STRUCTURE-ID: 645663d06dd2db15cd40f1f2 ; CHARGE = 0; SPIN = 1
H -4.204196032409732 -0.19157132976026658 -0.2270405164717399
I -2.6386938834996316 -0.15483154280938535 -0.3973676043266939
O 0.48990635713598907 -0.04562975255373633 -0.7554996496559785
C 1.2450952821331658 -0.05431869291743245 0.4363066300717302
H 1.1405634833593787 0.886871535638761 0.9841051383761277
H 2.303799088059385 -0.24157932251725742 0.23442018999341505
H 0.8525980369225786 -0.8638474598311616 1.04897804128008
H 0.8109276682988692 0.6649065647504775 -1.3239022292669431
