8
## STRUCTURE-ID: 6456645793b83767445b5c28 ; CHARGE = 0; SPIN = 1
H -0.16531804053435892 1.1645804986979553 -0.6366428429235254
I -4.445250850028564 -1.2446048603021576 -1.1746705342219832
O 0.5866027194920723 0.5297959617834213 -0.6530249985307192
C 0.8476201964708046 0.028057679517364664 0.6865544237171924
H -0.008951276477206328 -0.5072424563987831 1.0917045159796004
H 1.0888836554830579 0.8797392827520462 1.3173613823347674
H 1.709094128780008 -0.6325325090114216 0.6299893693745107
H 0.387319466814176 -0.21779359703844062 -1.2612713157298403
