18
## STRUCTURE-ID: 645673661c2591160b6c2b4b ; CHARGE = -1; SPIN = 1
I -3.2202063521180224 -2.2495184379615147 -0.29546932486452476
C -2.5934444950726596 -0.2672948096633694 0.1601136172427326
H -3.347325056283968 0.19302272846202015 0.7847816614442316
H -2.4825806717052368 0.2707518430913354 -0.7725446163146443
H -1.6482339663126135 -0.32278823588974026 0.6884122875473713
O 0.38775622785247815 -0.35206327555091976 1.5054652372084352
C 0.7856419034335242 -2.0441117274243146 -1.251709878247857
H 0.5810629046364701 -1.891485242575472 -0.19638313035822552
H 1.8066462420150253 -2.3727095340371087 -1.4021296994141743
H 0.07096583866032007 -2.722374403882421 -1.6996348636747853
H 0.9944849980226383 -0.8655567239499294 2.0480084359855146
Rh 1.290347495928286 1.2761516758582396 0.5965536207833697
I 0.5721704892051285 -0.11960958634597232 -2.1973384588942366
I 3.615531319055207 0.05460341430902713 0.6603580434360852
O 2.6184046707705635 3.707237684540623 -0.5178327586302596
C 2.094593234574419 2.756159963753328 -0.12109801792218493
O -1.2503553875792464 2.7618747322952553 1.1205767275804406
C -0.275459395082289 2.187709934970948 0.8898711170927098
