19
## STRUCTURE-ID: 64568ece6fa9dd6c5a3eadcd ; CHARGE = 0; SPIN = 1
H -2.3693241591208634 -3.013223500228747 0.5161962192840163
I -2.1570249936084718 -2.003309522704886 1.717718364883279
C -2.1605768199281323 1.4825672536111094 0.6763464784105142
H -2.81654076648996 1.344738308140138 1.5368949559877105
H -2.6926834861703806 1.0985054640021117 -0.2034182382911142
H -1.9854728880694743 2.543711093555493 0.5047662188540032
O 1.7561940033536987 1.1213872568081262 -0.9030923655698475
C 2.472315652711057 -2.2632741323084056 -0.966722037445283
H 2.528568781301283 -1.4413594512890142 -1.670600579474825
H 1.7512189600333616 -3.005597974227189 -1.2904694100990226
H 3.4457052886588797 -2.702899247760527 -0.7844856586672501
H 2.267065168759244 1.7888275095467108 -1.405922235742621
Rh -0.4774948458440436 0.11589749545181655 0.38140686204358965
I 1.78033844591515 -1.4411375153468495 0.9158989800636255
I -0.9190470228753014 -0.9704927774653108 -2.0185655338419335
O -0.45011551263702587 1.9764241297476743 2.7181577022148127
C -0.569217819545395 1.26805878813393 1.8149642159728838
O 0.07113461342744444 2.5872848357933322 -0.9218059774070123
C 0.52495740012894 1.5138919865404705 -0.617267961175512
