12
## STRUCTURE-ID: 64566a32d5c1ba5af03ae5f1 ; CHARGE = 0; SPIN = 1
O -1.2126747259820532 0.07582915182433543 -0.4532650584971076
C -2.2581307201497443 0.5225384695876644 -0.06947437032844936
H -2.988412772235616 0.974190854197082 -0.7546647295848886
H 0.8385901424789302 -0.2624435941735555 1.105102422719812
H -2.5449044401175795 0.5049106334661411 0.990814766267868
H -0.4042435934540237 -0.090049184518542 -2.2697411051268372
O -0.0019235130908744603 -0.18757857302461625 -3.1431899451071996
C 1.7143250409821063 -0.23310679001829318 1.7401635487437037
H 1.5126664305579653 0.38123562942930656 2.60800365064363
H 2.545195139861153 0.18659216331184295 1.1882658611614796
H 1.9638039718318367 -1.23669569381952 2.059038126647329
H 0.8357090393179144 -0.6354230662618483 -3.0010531675393417
