19
## STRUCTURE-ID: 64567a220739937a213ae5e6 ; CHARGE = 0; SPIN = 1
H -3.8907382585257033 0.5872865545924465 -0.13126743047420295
I -3.9628549069517387 -0.7249558321889924 -1.0047110608155245
C -1.0946315933931399 -0.6030541282371754 -1.2975465517278018
H -1.1034552310169738 -0.7732720398417567 -0.21621456149451324
H -1.2001522842301782 -1.4535573186126267 -1.9509719184071883
H -1.32770338925902 0.38098343272935886 -1.673502026228356
O 3.0341247643111804 2.055326795102606 -1.6107305327626695
C 1.4871150364038668 -0.18356334335799984 -1.21776968340467
H 0.37176021913507534 -0.43996495321342205 -1.4170374565025479
H 1.9610693788957565 -1.0510253644916474 -0.7727361809352876
H 1.9471522430018526 0.1401125633070511 -2.1429674317772127
H 3.1270838271676005 2.999239934504758 -1.717511020678263
Rh -0.013282223572589453 0.1859749181871643 1.9099001452539914
I -1.8059666134157264 2.0334131294852384 1.700260186194322
I 1.4720075587404924 1.45871104646797 0.12122886606268327
O 2.2674666009628526 -1.736172419371373 2.125513433834218
C 1.3665954386548294 -1.0332804270137252 2.0179074948073077
O -1.6161279548908467 -1.1738935669416288 4.055567698179929
C -1.0194626120175798 -0.6683089811062368 3.2225880308757837
