18
## STRUCTURE-ID: 645689dca7b50a25126cd4b0 ; CHARGE = -1; SPIN = 1
I -2.663155701279941 0.8889618625491821 -0.3312632559704146
C -2.101319442991813 -2.028174513717629 1.2413438269726331
H -2.478503891265029 -1.49982012940493 2.119644799894203
H -1.6151143500272405 -2.955684458821136 1.5633207842748205
H -2.9451939033053973 -2.281809707260854 0.5963225278674975
O 1.4116029581578349 2.11863918793625 -3.0355547460184624
C 1.3140627801487235 2.2036644123677065 -0.3152086337049602
H 1.698673981880116 3.00300172477241 -0.9324021502594406
H 2.0523403006549374 1.8680589665836524 0.4055756230680448
H 0.3925810462741367 2.4997420658145133 0.17695406503249278
H 1.245388208226514 1.86151338093026 -3.944834662733907
Rh -0.6934553939097103 -0.8849475330531161 0.1540896456757272
I -0.7428188255369053 -2.5436875533811056 -1.9586493782569352
I 0.8759823622634854 0.5842217823071556 -1.611636636471803
O 0.4547917410460296 -0.6290312937531719 2.925780906171839
C 0.18449792625049966 -0.6629462788555937 1.7849520855684384
O 2.3881465191606686 -0.8303892450551303 0.710844942231023
C 1.2214936842531006 -0.7113126699584523 0.4507202566592031
