12
## STRUCTURE-ID: 645668046f3ab069eb5eb031 ; CHARGE = 0; SPIN = 1
O -0.9657896885247823 -0.141221584463279 -0.7319723768412463
C -2.097876905420003 0.24768865651020386 -0.647994505971561
H -2.592966683182589 0.3945727229676162 0.3213969666926175
H -2.7037092895379433 0.47972417836582076 -1.5343988595148415
H 0.6280398727570901 0.047318720402030556 1.2637571277285373
H 0.14612550951869763 -0.5605922387581318 -2.3325219101451333
O 0.6807019281634491 -0.7212554589990676 -3.1218964741707325
C 1.1888385653728544 0.2228546475542961 2.1724826771134182
H 0.5641634986554609 0.7365551315741257 2.891585783829621
H 2.055573558063009 0.8313212787295071 1.9495709782226203
H 1.5104109675399642 -0.7239751536641252 2.586208151514729
H 1.5864886665947966 -0.8129909002190017 -2.8162175584580234
