23
## STRUCTURE-ID: 6456b799fbbb62267575cc20 ; CHARGE = -1; SPIN = 1
C -3.512882960097708 -0.4669364024279958 1.1475940430641458
O -3.932219984945167 -1.5287146558255706 1.297178657065399
H 0.9847823064558989 2.2340217890818383 0.8954412939063081
I 0.9358530264422467 1.2512146142814655 -0.3544495146363376
O -1.1944094609326887 1.408603886455059 1.7328728906057782
C 1.5953343802622546 3.203555088443118 -1.4222419506013797
H 0.8203442680062051 3.9386455459430696 -1.2560985582902902
H 1.7026980916757597 2.981998278747308 -2.474836268647317
H 2.5384025879273557 3.5047011279878464 -0.9870107872874847
H -2.058663383880251 1.7407143977160981 2.040637989208169
O -1.3073461370883315 -2.725943432691327 0.3891043870137767
C 1.7370835432917637 -1.7650338659355471 -2.2358483210274036
H 2.197239104278821 -0.7926050066488558 -2.385976722527335
H 0.6588140425614869 -1.6960493589189136 -2.3342082015719114
H 2.1509880816864495 -2.51564546646242 -2.898396477782072
H -2.197237182654411 -2.994220898370483 0.09613316103546474
Rh 0.4640069855873582 -0.8294216123733574 1.2225119597599443
I 2.225284128685688 -0.11955409799036981 3.0960437756159087
I 2.160810181166809 -2.3721630198475725 -0.19604780405267674
O -1.986430218333088 -0.7356656353629143 -0.3806429253926046
C -1.0936043873821821 -1.376931294534423 0.2016842261083273
O -1.876320781628249 -0.4498809645737338 2.755063565352442
C -1.0125262310860088 0.10531098330768364 2.051491583081156
