17
## STRUCTURE-ID: 64568cd3df1ef42cc561a6d4 ; CHARGE = 0; SPIN = 1
C -1.8163848667200873 1.0514058670162676 -1.6337910879735802
H -2.41624992756592 1.7796986613711023 -1.0944342375371643
H -1.8007946065481086 1.2816885803261828 -2.6960883255019565
H -2.193030120819517 0.034052288514103864 -1.4727865957428208
O 0.46767373829935405 -3.4660614359113477 0.9781148929799415
C 1.2198312167529017 -1.2021202483860056 2.2402708774609748
H 1.7616140477733722 -2.0625657221777276 2.608466547375354
H 0.21507014203694366 -1.2057015132891353 2.6441582770103405
H 1.7439588278247657 -0.27745958530887843 2.4516385508235436
H 0.36266364162790515 -4.120904211760716 0.28987504206753506
Rh 0.1946132682010791 0.784936840965429 -0.8054080716094613
I 1.2158409923935507 -0.10210174968163344 -3.065576578519966
I 1.0822961330710141 -1.4402689930195298 0.12658269600656452
O -0.4743875593544156 1.6252722873341223 2.000169219916349
C -0.19221893497025166 1.3254183921349494 0.9384986563775702
O 0.36212956302593136 3.514254138146139 -1.9847624721897976
C 0.2673744449713949 2.4804564037269063 -1.5249273909433383
