12
## STRUCTURE-ID: 64566a4c37444e1a072b66b0 ; CHARGE = 0; SPIN = 1
O -2.7814665803375105 0.6861928718763162 -0.5702659902821632
C -0.6071432955982677 -0.13816257932948953 -0.3325753573953573
H -0.566399560400662 0.8899793730344067 -0.6516371783082432
H -1.0755549296065672 -0.7861346509722568 -1.0533592040963933
H -1.0259459204382875 -0.2459096109928545 0.6536809492970332
H -3.4012337940147104 0.007191233966481312 -0.27772669041208403
O 0.8749635061221507 -0.6742248114595505 -0.20922680125389156
C 1.680716612333547 0.09037703583137625 0.7072351671124442
H 1.7211296370361513 1.1418217303954086 0.42384605781160456
H 2.678609368759558 -0.34399860999917253 0.7215259574828562
H 1.229071782824421 -0.000324371103599868 1.6927034413026214
H 1.2732531733202075 -0.6268076112470621 -1.1042003512584255
