21
## STRUCTURE-ID: 645678239a339b31275eb029 ; CHARGE = -1; SPIN = 1
H -2.971055871057136 1.8512423405331804 -2.1753355972935355
I -3.2501109291270005 3.334670192767878 -1.750692195988699
O -0.20797908831439477 -1.2419111297434442 1.9542524200873985
C -0.9208381655466173 2.691441792121563 -0.23911441703750305
H -1.5525880939382546 1.940999471611294 0.19392113423674245
H -0.8315296517138345 3.6529462613628745 0.23018920696670153
H -0.4874045429804371 2.5247055245090966 -1.2059886579294647
H -0.7738064012264733 -1.283406775183658 2.751419371908822
O 1.696498309517308 -2.4693071492306773 -2.4510916548405546
C 1.3927138611223333 1.769617241406944 0.9852409719019908
H 0.4095799040431353 2.0121318780769166 0.46790726973729363
H 2.0722347677937667 2.6027718545253613 0.8422959854420251
H 1.2149251325432526 1.551465400569311 2.0323114132637445
H 1.1479317776469158 -2.47223926338622 -3.2409147595866785
Rh 0.5627887009992805 -2.2751532870759164 -0.5624075801581847
I -1.2295666200623392 -0.7519590619425104 -1.6505918431859916
I 2.311987512788763 0.0034014053706244636 0.07071500989703047
O 1.8498963804642878 -4.5019974916272165 0.9537938458591455
C 1.42967793721556 -3.6277062383373746 0.3009020403775678
O -1.369180050135142 -3.058770404416365 1.4089553990352779
C -0.49417487003306443 -2.2529425619117136 1.0842326373068873
