17
## STRUCTURE-ID: 64568ce768b8e75b3119eb5a ; CHARGE = 0; SPIN = 1
C -0.41076854114058176 -2.641243364098233 1.5134891307830116
H -0.37266702632264087 -2.5862979810602047 2.6017823858934332
H -1.4280859994677708 -2.878108989964814 1.1836978469775232
H 0.2563351724574464 -3.4443513647281447 1.1891525236032723
O 1.653253348612052 2.6310784363983055 -2.5539544972119415
C 0.6126272567634036 2.2436499476725777 -0.051604390043623924
H 1.3734223484944048 2.97991900356584 -0.2771664408433785
H 0.8965874218452324 1.6130845525757922 0.7828106186671242
H -0.35391341305768104 2.707543865478202 0.10023410805749558
H 1.9200332593997789 2.468134629629404 -3.460123851297432
Rh -0.9772017583344301 -0.8306873939266874 -0.6152485677270828
I -0.3027636783488653 -2.5942628834569934 -2.2932280429794196
I 0.5109014157950537 1.0149940223069707 -1.7806828923209335
O -2.6162546789591197 1.0548389070103994 1.0287989652193699
C -1.9327600046987945 0.36076435736204027 0.4248045151770665
O 1.0671739703262229 -0.736634789124855 1.263601998929988
C 0.10408090663629489 -1.3624209556396094 0.9436365891155176
