36
## STRUCTURE-ID: 6456f685c3f7375d1932baec ; CHARGE = -3; SPIN = 1
Rh -2.946226323664087 -0.4091465485364757 -0.8765863887957901
I -3.429266238960087 -2.9832391378714793 -0.9117659994825769
I -0.8959459216365446 -1.0249304752835053 1.7479780895899235
O -3.9023896660951896 2.2645120742049354 -1.0009135474149466
C -2.9819695421869743 1.5639554857442546 -0.5985328432248277
O -2.9159605429078437 0.1852538444951977 -3.7700933761582234
C -2.9815522460253066 -0.08090785128351378 -2.6468636399162726
H -3.9919963088374475 0.0037050016440078447 1.2071412117407756
I -6.048979520375124 -0.044087635195832676 -1.6522212716733389
O -2.065597836431858 2.157642718126189 0.217802193118579
C -7.0268131303444 -1.8433867043542966 -2.51848971997984
H -8.003006380890197 -1.9330045801505116 -2.0578054734532314
H -6.397464956171678 -2.694741484985619 -2.27867732708179
H -7.097204224732053 -1.6911643130071368 -3.5884569415928045
H -2.309812242752855 3.0889422260440726 0.4161827675592307
O 5.4537186453150195 -1.9305903173565775 1.2928415315626967
C 5.247130413287131 2.9877371521549847 2.8371174135500428
H 5.638259471974077 2.481425680291681 3.7111324155637426
H 4.1833575632631055 3.190461895865038 2.9225682123546326
H 5.8141099440073445 3.876887588659927 2.5861336496658587
H 5.782507653845893 -1.261387734193162 1.924555021742406
Rh 0.06487602920595735 0.6107596135803699 -0.1213929847876139
I 0.4139142113560188 2.175069185322182 -2.2435222332410705
I 5.464529242869583 1.6045648762112668 1.1426718318329558
O 2.7328715515011277 0.07724340594773657 -0.9086978691346009
C 1.7377868607114602 -0.4632411912571712 -0.3711759712720533
O -0.5802869379824841 -1.2168679923441517 -2.2378419755573504
C -0.9128011678379148 -0.5022758866988984 -1.3362962907086204
O 1.4645180012268573 -1.7828338179168035 -0.537787740990091
H 2.364916312902191 -2.244162709089386 -0.5292875783112873
Rh 3.190000274132717 -0.08424999770562079 1.2026435006603955
I 1.529516761716376 2.1146246940286813 1.5448719541141038
O 3.869509973042067 -2.509647783783053 -0.08905012727993007
C 4.245861233867819 -1.6976652122770408 0.7582700902388291
O 2.4505561167317365 -1.2064255066371345 3.879107629869486
C 2.839332926875548 -0.7788285623933604 2.8844417868926118
