12
## STRUCTURE-ID: 645668510e66367fff73b9e9 ; CHARGE = 0; SPIN = 1
O -1.327689919951758 -0.1863002847617203 -1.0211661467892528
C -0.36992214670737195 -0.9622897342999787 -0.5755283187027802
H -2.833296698151565 1.5171279776966324 1.5395323004652266
H -2.2424249221311396 1.9200251114097984 1.8442402013307986
H -0.7234909182097147 -1.687795279878477 0.1458058940282642
H -1.0045814682001244 0.4857385771780762 -1.6477742149575252
O 1.305085847880279 0.27856499163523224 0.4085318965103023
C 0.9925159639357204 -0.7949303058358757 -0.834617383964431
H 1.6529144026981035 -1.6256230492550174 -0.6337904896800207
H 1.2824783924452454 -0.1887116664999549 -1.6835668917208233
H 1.232804641700142 -0.23986536321145283 1.219796395439968
H 2.035606824692183 1.4840590258227375 1.238536758040279
