13
## STRUCTURE-ID: 64566e16596c7f38996c2b3d ; CHARGE = 0; SPIN = 1
Rh -1.9051252984392284 -0.5425660204892675 0.023358040339044418
I -0.28638248705104274 -1.3675068736259388 -1.857818977382307
I -0.3071864683356494 -1.1494777222969697 1.9751521384501305
O -3.8205780480421367 0.36776722028985154 2.123062611647
C -3.078700577122105 0.03394205995926008 1.3107381523339774
O -3.8431417601009255 0.21405132307055535 -2.118339629837602
C -3.087890319380766 -0.07089833175748153 -1.2985878811962026
H 2.4871230063717 2.4903737272569515 0.09498392997217896
I 1.5064500038741238 1.3600483944407702 -0.5214543627119129
C 2.93403693846715 -0.1623031486419173 0.014067799011756591
H 2.6061629907286497 -1.0721077211625412 -0.48031335671786146
H 3.897957801557242 0.17084887269532226 -0.35970230501027317
H 2.8972742174729764 -0.2721717797386013 1.0948538411020832
