33
## STRUCTURE-ID: 6456c358c38b421a281688e4 ; CHARGE = -3; SPIN = 1
Rh -3.058798926149537 1.2437173937272021 -0.3088953257938035
I -5.4318658821238985 1.0197362425490768 0.8648183168210287
I -2.4897863479666347 3.6047568135256416 0.8129544012796105
O -1.431100814043079 -0.7235587150773304 0.85303493328121
C -2.155396921074612 0.2059466962524187 1.174923468470829
O -3.967609486469401 -1.2283405275463122 -1.6892622379755946
C -3.54118361981633 -0.29689188870477884 -1.1666421211507791
I -4.029713097516891 2.393882574637944 -2.6600746926387058
C -2.3445242252474223 0.5141129918820108 2.648081366382586
H -2.593298729943184 -0.4199346151480169 3.1529255037410104
H -1.378646876813538 0.8638996164343241 3.0197443408249613
H -3.0959536406310595 1.2693474477610194 2.8569249446011535
O -1.1429261579229588 -0.7433338267005503 -1.955388813912669
C 2.742436457294034 -3.8757207172360846 -0.2654407732623581
H 2.2433705864074196 -4.713792313963726 -0.7409516521557004
H 3.138237947318935 -4.142044827569089 0.7118527702295674
H 3.521190789821164 -3.453717588271918 -0.8966706801119744
H -0.6271387745728271 -1.5077210932249325 -2.2650629012697916
Rh 2.521197160139528 -0.2859123222319529 1.0944976553622714
I 3.752081914731831 -1.820852342095933 2.7986110653257628
I 1.199114357456953 -2.2955104158919957 0.03876529912254725
O 0.41163490401932756 1.4774353055896206 1.123359972743071
C 1.3691504049006318 1.2591372220578332 0.35013882567249877
O 3.332740914275801 2.2706463927256815 2.3499266748162837
C 3.1124553794406182 1.2334946200019112 1.8753116018854277
O 1.9241255114376585 2.4331542293857287 -0.22309107721773191
H 1.4006746024574466 3.2052297682067583 0.04790644534755065
Rh 1.5975848039117204 0.18938377734112125 -1.569443299770395
I 4.201185482588818 -0.2232619490180037 -1.4857779243360367
O -0.9973125021755477 1.3330318048549317 -1.1998882190236437
C -0.36032558568289186 0.33551073655434405 -1.5464320110882732
O 0.874342690228343 0.5863911569171514 -4.420114925004338
C 1.3040576817197165 0.29177835227587884 -3.3806409311959964
