13
## STRUCTURE-ID: 6456888693274d393d230d6d ; CHARGE = 0; SPIN = 1
I -0.9619847492935815 0.034549947233386384 2.60101691746701
C -1.2700073221936239 -0.4553890655636224 -0.8132069825547724
H -1.5285314040801024 0.5766265599617849 -1.0786805212244317
H -2.1240365085014785 -0.8729586711990265 -0.2807975189708848
H -1.0984637218303654 -1.014180999573146 -1.7322684910088142
H -0.5291969792555093 3.304744529209508 1.436902346750455
Rh 0.5184581552642497 0.01257552012569873 0.38210483572102294
I 0.30233523737466744 2.9570562683040875 0.1347103173338271
I 2.9012927686134695 0.20941479478151845 1.7193122729084478
O -0.2875169670147328 -2.8487881230145615 0.3373136295745598
C -0.044903651863693175 -1.735350688923655 0.29565801559036
O 2.443114721966545 -0.11197302087566716 -1.9193660192726056
C 1.679440420814147 -0.05632705046629216 -1.0826988023141724
