9
## STRUCTURE-ID: 6456647209725e04a22cdf7d ; CHARGE = -1; SPIN = 1
H -2.6502807450585757 -0.19462655097936074 0.625498401709339
I -5.487407662065292 -0.10317080009765572 0.0008679434837326292
Rh 0.7456187198309023 -0.018363730689299956 0.08503959493983408
I -1.7830922022036342 0.3022591896946916 -0.5984685432117818
I 0.14633984243228623 -0.9411846384345571 2.4280240255506933
O 3.563197868766669 -0.4350122002728899 0.9720947178374362
C 2.495865714289774 -0.26511999433508227 0.6053163082774045
O 1.6742061335394511 1.0249946970322044 -2.561272837320386
C 1.2955523304684307 0.6302240280819509 -1.5570996112662656
