12
## STRUCTURE-ID: 64566b5475d573579c333be6 ; CHARGE = 0; SPIN = 1
O -0.4916145030405495 0.3446421332068978 -1.4864524508614532
C -1.296364471931528 -0.10164760252214033 0.40733670897930985
H -1.9912947692259033 -0.5636542328249099 -0.27302939617493116
H -1.4447688685737887 0.9537628537051299 0.5601383418408067
H -1.2561466646097441 -0.6470225873445301 1.3488104605693743
H -0.849557385219511 1.2228466299219556 -1.6186768695643303
O 1.6676398881560512 0.6302066399606799 -0.3623146552574714
C 1.337900696027488 -0.40247311992794094 0.46249149269389245
H 0.1554356742703136 -0.4228961920440136 0.431642123464045
H 1.6742084729068925 -0.23274039511934533 1.4865662779160846
H 1.6374252746114233 -1.388826460434497 0.08733388251022355
H 0.8571366566288603 0.6078023334227031 -1.043845916115547
