12
## STRUCTURE-ID: 645664ddc446d549bf6aac6b ; CHARGE = 0; SPIN = 1
O -3.665656289420767 -1.5443091712723154 -0.5934611006488696
C 0.26691620900175783 1.295100477258844 0.6308624471323672
H 1.1091419578018469 1.9711720788715736 0.4947420162342391
H -0.4368743348612288 1.3968194987388867 -0.19531073682315914
H -0.23283547257349127 1.519816513071072 1.5706213368416613
H -4.5642326216905955 -1.8381832227595407 -0.7932887488302225
O 0.7950883964678014 -0.04788428394888622 0.7203741816905073
C 1.5239023104258256 -0.44582410240653747 -0.46423221600713965
H 2.3557838564276405 0.2458826789531589 -0.5876836510335829
H 0.8890965845260267 -0.43088602147786814 -1.3500327421598763
H 1.908992765597301 -1.4493785493702425 -0.29598606812799766
H 0.05067663829788425 -0.6723258956581613 0.8633952817320913
