19
## STRUCTURE-ID: 64567a010a731c7d91224151 ; CHARGE = 0; SPIN = 1
H -3.8950459741432923 0.5216773121449243 2.492214205846449
I -4.877997156401484 -0.34529872278686663 1.6287681972874966
C -1.2450180068959742 -1.4120881743921292 0.19995613139876176
H -1.7990281072448995 -1.7929903280182513 1.0619159831357756
H -1.033185084779313 -2.2167508953118262 -0.5014365716469188
H -1.79660039421533 -0.6045748000042377 -0.2885800693948958
O 1.499540938601085 3.388905258078455 -1.6013797631874074
C 1.098636881317567 0.797967375430419 -2.295664563629117
H 0.8603129129073237 1.5627514080253282 -3.022329659635643
H 0.43177036631930593 -0.05235532727168321 -2.369585561337798
H 2.1379778814534904 0.508324985647768 -2.38662342212092
H 1.4140523137251555 4.211611753418316 -1.1207547699358773
Rh 0.47457297942103854 -0.5344182463611308 1.0133204218452565
I -0.7279668347495903 1.0944968106241402 2.6284075898869736
I 0.8101612103449783 1.7119393065708237 -0.39631406592531926
O 2.358496358922656 -1.9318880328076522 -0.822307995934197
C 1.567888054062781 -1.4369195278922995 -0.16558804878861735
O 1.7873535289227485 -1.744636541385413 3.351487760367893
C 0.93407813243188 -1.7257536137086262 2.594494201768005
