21
## STRUCTURE-ID: 6456778ecd3cc746636f2cab ; CHARGE = -1; SPIN = 1
H -3.220525618149767 0.30119092651078355 0.6914236424554874
I -1.607865522083297 -0.1935256917988317 0.9313191774747235
O 0.5362086472893857 -1.1135577828924526 0.8406631908952418
C -2.1617989427058917 -1.6819512133921322 -0.6117064722008748
H -4.061769688169198 -0.8337469049192663 -1.165800469827885
H -2.5901024196043547 -2.509027748841084 -0.04842776271260318
H -1.2029170911589135 -1.9657832862259776 -1.0371311798594272
H 0.9834709428608469 -1.5079356206124626 1.5891806561071016
O 3.595628264046224 1.7854339146508504 0.8483209962009657
C -3.1159358541879443 -1.1030753999483973 -1.6245232018597042
H -3.293473824655156 -1.8755964896130797 -2.3696378080300304
H 3.0892978238204027 -1.2386616727727504 2.402668262839328
H -2.6860300155142 -0.2432045976922865 -2.131568027502159
H 4.567259357238432 1.6824844342503147 0.780426806138295
Rh 0.9490356913481992 0.9740677162702432 0.4170414961703316
I 0.9207337034178106 1.6833949935613386 2.985315296092612
I 0.5256690270673108 0.5182468703464249 -2.122132320328783
O 3.402888910974351 -0.07733975111166062 -0.38678521164914725
C 2.917200402480342 0.8151311870476167 0.25610191865541426
O 1.317588710302056 3.839289813727379 -0.2544725239630962
C 1.1354374953834754 2.744166303455147 0.009723534904345459
