12
## STRUCTURE-ID: 645666fb679c0e1c1f1f8bd3 ; CHARGE = 0; SPIN = 1
O -1.4134510218197567 0.3967279199014022 -0.9539341379250913
C -1.212638422164336 0.03395860179778834 0.3884719777264424
H -1.3794500207145237 -1.0460581851070774 0.5988219467045954
H -2.250292255585314 0.19575623811067835 0.8758580452902494
H -1.0097456261602076 0.9646909156651758 0.9726270113804402
H -1.076904069412135 -0.27728167206567245 -1.5575111216246054
O 0.8846974347390639 -1.255944731056824 -0.13641387294946286
C 0.4963172441309062 -0.25775605072993446 0.693909721573139
H 0.549020461340285 -0.5891957718451293 1.7300763208924703
H 1.024485171229985 0.6797786147071961 0.5259648089653963
H 4.0850143390584694 2.0868667871419206 -2.194188542622986
H 1.3029467653575724 -0.9315426665195264 -0.9436821574105794
