8
## STRUCTURE-ID: 6456643e3254b8024c248aeb ; CHARGE = 0; SPIN = 1
H -3.801386207887333 0.5114113595328418 -0.3735166857850328
I -2.490872346336775 0.7330101548122208 0.4708590913974814
O 0.9361281144854786 -1.2544873253419693 0.24449060777870776
C 0.3570005148986895 -0.8974386474596672 -0.7426256163529619
H -0.4047153616797557 -1.5197593310194781 -1.2339745647991007
H 2.489287653067002 1.5588801827860577 1.4692890550130688
H 0.5562900040017912 0.07225224811698279 -1.221495821837717
H 2.3582676294509084 0.7961313585730232 1.386973934585543
