12
## STRUCTURE-ID: 6456649af7fdfb7c0d7ffa83 ; CHARGE = 0; SPIN = 1
O -1.1656739064079684 0.660503520800928 -0.07967288555161621
C -2.1406262395710685 -0.1225633832782905 -0.7361710917767917
H -2.5708292235496475 0.40729789607795314 -1.590051344965577
H -2.9423816206421227 -0.4136316822447442 -0.05229730953463629
H -1.64083207662171 -1.018359269314047 -1.099882169934453
H -1.5786517159825024 1.4790520893266144 0.22135247490865623
O 2.0167108808559204 0.1842844048469541 1.6398295305313078
C 1.2686973285873189 -0.53717953739891 0.9920347055516447
H 1.0841563012546405 -1.5406498882159254 1.3915742403171898
H 4.704442501939162 0.02539860757615209 -2.085995382973207
H 0.7514425505777588 -0.22756678264504218 0.07778725743613665
H 2.213545219560224 1.1034140244683563 1.3214919759913397
