8
## STRUCTURE-ID: 645663e12b24f11e274dd538 ; CHARGE = 0; SPIN = 1
H -3.8538498570198807 -0.03864664790372638 0.46791887315917985
I -2.9337565959560377 0.014983495101220923 1.7840446598743953
O -1.2465667562200815 0.016943103283342736 1.05144470242361
C 1.6077299017907032 0.0013219235230482764 -0.6618660247996375
H 2.1678666577382426 -0.8973301837772985 -0.4397731027483916
H 2.201440497904378 0.8696081862057989 -0.4084001681790137
H 1.362624778512777 0.024740273972229523 -1.715427777704516
H 0.6945113732498965 0.00837984959538711 -0.07794116202562536
