12
## STRUCTURE-ID: 64566a3547eb55033567f9ce ; CHARGE = 0; SPIN = 1
O -1.4811068827866956 -0.603791311041073 -0.9454939311173556
C -2.1602495996090716 -0.04375987153869967 0.15324855559283607
H -2.1230670003056433 1.049878558256523 0.1324271123805671
H -1.7430704791983804 -0.3959708782086928 1.1029149404648078
H -3.1988769302421045 -0.3653635999437757 0.08391274786989242
H -0.5600275923479461 -0.28778180648143614 -0.921615877441916
O 1.1798049894029745 0.4208308163461963 -0.7026506499245098
C 1.9471952216358617 0.026912854124645114 0.4173014515689106
H 2.785565932447512 0.7081865603930503 0.5821847640338046
H 2.32380437326635 -0.993095553800394 0.30231466085647585
H 1.2860803383831867 0.066362796576013 1.28095178941102
H 1.7439476293539646 0.4175914353176477 -1.4854955636945377
