12
## STRUCTURE-ID: 64566a011fbda101b30b39db ; CHARGE = 0; SPIN = 1
O -2.253336367687823 -0.6738641504674499 -1.4426309026539275
C 0.05647859529347832 0.29507521581968404 1.4038775795573781
H 0.8066917146276513 0.9871244043722672 1.8010881244949857
H 0.2583180293535107 -0.7101300671584713 1.7897518298868993
H -0.9354892129908879 0.6137552151859288 1.7151245027734356
H -2.732303884293924 0.13254920130414355 -1.6476626391430191
O 0.06356448795519544 0.30522693211213475 -0.007432314880557343
C 1.3115520984273328 -0.06739355232156352 -0.5509063475114692
H 2.0989648545009016 0.620249698623058 -0.2242862302986361
H 1.209306322528653 -0.01919562228471324 -1.6323445271277763
H 1.5814703069739147 -1.086355414514082 -0.25251336978577077
H -1.4652169446880268 -0.3970418606709431 -0.9520657053115469
