13
## STRUCTURE-ID: 64568bf8506fab55bc3eadd0 ; CHARGE = -1; SPIN = 1
I -0.851557471953203 -1.5286384256351846 -2.406880904336958
C -1.4792081269473056 0.8394062942363212 0.023306156678667662
H -1.8856088550458179 0.01627811633056856 0.6279395104387404
H -2.1828620790783373 1.012190533558689 -0.790484282405306
H -1.4002873734903507 1.7223860776947044 0.6556578052190863
O 1.0186396220544864 -2.508613662917226 2.5323712402702663
Rh 0.406078139007014 -0.3092238463649156 -0.420654053882709
I 2.901689518342044 -0.8769793723823586 -1.3866579093141245
I 0.18069645584224575 -2.678760149635557 0.8636546603804042
O 1.9502450519500765 0.37690338390151873 2.0443882455103166
C 1.3215272228431352 0.19841610107335048 1.112206572435992
O -0.021188610206974236 2.376428150874622 -1.6912487828443246
C 0.0418365066829823 1.360206799265457 -1.163598258150058
