17
## STRUCTURE-ID: 64568b3b5b25ab53bb64e47d ; CHARGE = 0; SPIN = 1
C -1.3475159710696492 0.5892650741185999 0.9128704407031697
H -1.7121549982317876 1.6191326706334734 0.8908136251990105
H -1.4610034432342456 0.1417001879382262 -0.08339052392282353
H -1.9823495311328028 -0.0010328045642704895 1.571712788874887
O 1.1712460053364484 -1.8843144291035043 -0.22713015316207577
C -0.3997158389077277 0.5308867351264812 -2.9251894145090103
H -0.6186331712011836 -0.509234113848308 -2.7118294266066125
H -0.1451126570988957 0.6676552871108415 -3.9699065744252064
H -1.2137742858401321 1.1856506013633052 -2.6353893949035165
H 1.2916217943474106 -2.8565422157827856 -0.28138836689915836
Rh 0.838459868511763 0.5311003009775779 0.8576949707394279
I 1.3582573503496707 1.0790540994885116 -1.7599766621758217
I 3.3781563676511235 0.7875644032382028 1.5469116932318077
O -0.48745558795559496 0.9300658795770936 3.4868656691540356
C -0.09398323085708907 0.7055289497007612 2.4285639988677863
O 0.5870515545267936 -2.0814173938986156 1.9382975088075827
C 0.8369057748059187 -1.435063232075618 0.9604698210264666
