18
## STRUCTURE-ID: 64566fc4b431224f94242a3e ; CHARGE = -1; SPIN = 1
I -1.301224762234468 -2.549951065061694 -2.3192639568243876
C -2.1941266974815004 0.21065591645972753 0.5391351341702562
H -2.9020976512379653 -0.6126750004943269 0.4211555231725581
H -2.1031625912899607 0.7432718481985768 -0.4075386470290501
H -2.5531289743535925 0.9035440795745069 1.3055752684567175
O -0.9049933562858694 -0.2883929326837146 0.8629360164770433
C 0.60784813466119 -2.145632261987523 -1.463829195370786
H 0.47907683249526134 -1.3511564891993022 -0.7370165847751461
H 0.9684098660375282 -3.045213715071569 -0.9832563304592182
H 1.2774414214376892 -1.8354375366168019 -2.255667029156971
H -0.9827241454288144 -0.7893110066140417 1.6881241227339998
Rh 1.363050705249903 1.265983001820608 0.859819219010009
I 0.6873339924859883 1.9137128504881336 3.318997233891688
I 2.798173150511174 -0.8129730739801774 1.5811716589751268
O 2.418041243157974 0.8929555664828412 -1.9050206967851735
C 1.9928061263305268 1.021050942715805 -0.8384385919820068
O -0.10849927065608563 3.7143661731364195 0.0019306732850303844
C 0.4577759766010183 2.765202702832528 0.33118618221031204
