12
## STRUCTURE-ID: 64566b80194bf506617b9261 ; CHARGE = 0; SPIN = 1
O -2.905171214664447 -1.000626462773839 -2.138598810209265
C -0.31424453371231914 1.254656004674023 2.8696704104965325
H -0.9876994049058525 0.5598848986246854 2.386058135906852
H -0.3189326650964842 1.0756610130256439 3.9368470707286742
H -0.6374040028311027 2.268401775153591 2.6726837559549637
H -3.8398213815856583 -1.2197325927954683 -2.1047817343804653
O 3.9161797132774474 -0.9764941432846602 -2.4025637445566876
C 2.740591064636876 -0.8486467896117853 -2.206929021838139
H 2.1406585228296175 -1.6227625338389557 -1.7066828142477455
H 2.186459033462941 0.04947100770588584 -2.516772477035473
H -2.6682163269544663 -0.6539756792277459 -1.2745541024875244
H 0.6876011955434419 1.1141635023486185 2.485623331668262
