12
## STRUCTURE-ID: 64566b526aad622f894609eb ; CHARGE = 0; SPIN = 1
O -0.17368091842897437 -0.30986744675486333 -0.13916818041036527
C -1.385351781866976 0.24965410610467945 0.3203507783853261
H -1.27242005784473 1.3218971425306203 0.5152458369852999
H -1.6375043524574053 -0.2650906002215553 1.2445393081349547
H -2.1850403719738907 0.10212884587145589 -0.41337867339764195
H 1.1809819559201664 -0.4554713522730961 1.2126886917001496
O 1.8909314615348203 -0.5803399624222848 1.860872131042175
C 0.2619400805307736 0.2548160549917703 -1.357647726751139
H -0.4814623153928406 0.09867936434346423 -2.1467644710849263
H 0.4462318429981271 1.3291429073616057 -1.247639607697401
H 1.187775393680615 -0.24971224511286447 -1.6237710131528595
H 2.1675990633003024 -1.4958368144189287 1.7746729262464442
