12
## STRUCTURE-ID: 645669d43e78d32df26b0e16 ; CHARGE = 0; SPIN = 1
O -0.5791528513906057 -0.551479873940373 -1.3891096622762946
C -1.2614619711132897 0.044561259885710074 0.5120544069520058
H -1.5089572467122683 1.0049424325541902 0.09300861375020394
H -1.1293387460191322 0.09340404056252016 1.5916081949714977
H -1.9327274806346284 -0.7536357570661083 0.24469161456087798
H -1.0365977199094816 0.08410625149563428 -1.9401885286504283
O 1.5730247573754383 0.45453555590295786 -0.788351253840492
C 1.389653358104487 0.006210267437705779 0.48469673696482607
H 0.21641535139779125 -0.11385749357575035 0.5762374129113529
H 1.7429069794772678 0.7237075626935948 1.2270592393277189
H 1.7816943337245001 -1.0022673898033898 0.6653951547219764
H 0.7445412356999299 0.009773143853309777 -1.2771019293932497
