18
## STRUCTURE-ID: 645670c06ff3f94ed34d91f1 ; CHARGE = -1; SPIN = 1
I -0.7780798388197714 3.342080645681504 2.5765956960469447
C -0.5221972859401498 -1.1409460110296616 -2.7708325671900633
H -0.5430497391869489 -0.08927766825894025 -2.4982937103220304
H 0.010012318530950087 -1.243059722503988 -3.713879297310187
H -1.5422508253881686 -1.492675387200444 -2.8944397728417
O -0.7000605428598545 1.4626505359070698 -0.4230087789540091
C 0.2135573785592515 -1.9534089094592733 -1.7369000549281894
H 1.2435190480147083 -1.6260051318568212 -1.6124991013407612
H -0.0913569672009046 2.038483458802936 -0.9022109216804434
H 0.16608597823655352 -3.02088134844756 -1.9359117330346745
H -1.4154203722155787 2.0291012964504866 -0.11102169721035864
Rh 0.5013385150326009 0.2210956091094587 1.734950846095293
I 2.616872237184285 0.4050172218087775 0.19006201282736063
I -0.6843117597208068 -1.741310670149536 0.29439902669244644
O -1.406022865540738 -0.060940370414623704 4.0187082458511245
C -0.7311227837268398 0.03249080353957666 3.087449442707375
O 2.1704533306488747 1.6711924180588504 3.7403967501841144
C 1.4920341743925143 1.1663932299621715 2.956435614407768
