12
## STRUCTURE-ID: 645667479101c10d5a5a8523 ; CHARGE = 0; SPIN = 1
O -0.334408669041032 0.9507574498097185 -1.5773627536813049
C -0.7694628473388448 -0.3803703222165143 0.6857290640310176
H -0.8017774545170049 0.38131713979613174 1.461089471499933
H -0.7271574933982654 -1.36529271652271 1.145780019033393
H -1.7787339539342237 -0.4374539029493865 0.22450461555461018
H -0.6733549173648878 1.838280349673972 -1.4287878501801399
O 1.5754700418103451 0.5792605048605579 -0.1598785218916394
C 1.024278700752347 -0.5028966311840198 0.30891495962868587
H 1.0461424035965567 -1.378922663535236 -0.36256545280801666
H -0.6016092953264849 0.16111984075925392 -0.45894396392552245
H 1.3759283155670532 -0.7761307234447634 1.3120624603156972
H 0.664685169194442 0.9303316749529894 -1.1505420475767199
