16
## STRUCTURE-ID: 64568e05e15d02715b351d6a ; CHARGE = -1; SPIN = 1
H -1.2298310337422709 1.681150995767299 0.8405780195030983
I -0.8859944605467374 -0.11566709277388469 0.787865692212325
O -1.0258966639032907 -2.111191554867426 0.3135846045375275
C -2.5173696284357945 0.01563705916725868 -0.5903905110439863
H -2.302872354818324 0.7958436268539748 -1.3091124145804953
H -3.4081960496897383 0.2457146864146742 -0.01937052090215215
H -2.5928886821138826 -0.9508626605402255 -1.0723754484826686
H -0.6586361162144234 -2.6295839629641127 1.0253042033453084
O 0.8638309894963858 -1.3387039832446963 2.2268980541289007
Rh 1.3301484507894514 0.5576107778851749 -0.4454466896974038
I 0.4761719342202913 -0.5386934607962146 -2.644673782320307
I 2.201971350349869 -1.944674473564364 0.9931519964065071
O 1.75957782705398 1.8891162506783952 2.1886499274298385
C 1.6733662968053098 1.438818991806921 1.1382457926167502
O 3.5916970316290646 1.7118730113428593 -2.026773236534001
C 2.724921109120116 1.2936117888343754 -1.4061356866192207
