12
## STRUCTURE-ID: 64566b539e691c2f2e4b6a6e ; CHARGE = 0; SPIN = 1
O -4.950704530787806 0.23631423480970223 0.7605037507923034
C 0.1034134166436917 0.0814201038317882 0.7138066306410105
H -5.8363208830784385 0.10047378053094158 0.4136549545656677
H -0.029055223150036065 -0.9326227732712842 1.0536799387005311
H 0.16977981386135615 0.8320607470743117 1.4842551628160623
H -4.364913412208851 0.3218972365614383 0.003994557059590147
O 4.999910110553545 -0.9215556624609558 -0.7470758401964634
C 0.17136029009693185 0.38722988591986734 -0.5652670415446048
H 0.1024246906251644 -0.3616023724560998 -1.3369860719286653
H 0.3012735518594274 1.4025755908226212 -0.9016985063748273
H 4.675259325680471 -1.0791534424334188 0.14334917470104933
H 4.657572849904546 -0.06703732892892662 -1.0222167092316568
