16
## STRUCTURE-ID: 64568d61462cec7002111de4 ; CHARGE = -1; SPIN = 1
H -0.45031247061310176 -2.115646697874126 1.2276824575100629
I -1.031435342599193 -0.9704541949591751 0.13973707877444616
O -2.2241985813744645 -1.022020712908374 1.7808797679876829
C -2.3082966903310655 0.7735462723028753 -0.3262629620212698
H -3.346891487078669 0.47157738460497084 -0.3716374803039894
H -1.9933028118991691 1.1501178494587463 -1.2931746839985006
H -2.154524477938678 1.5301273522151055 0.43818878187844634
H -3.036682723886976 -0.5143528141697423 1.735747862800902
O 3.5680269018494957 -1.0353482362077848 -0.49744152099762406
Rh 1.1550853922123636 0.3967141880107674 -0.2992352437989519
I 0.5716661211900095 0.25321475206208155 -2.8507150194579105
I 1.3887645107869453 0.6589148810059068 2.3138358872477953
O 1.6572731056176377 -2.255790880005918 -0.2503100617672971
C 2.439295790137197 -1.369419799726162 -0.3708019832879049
O 3.2810555285304495 2.42711258565216 -0.7797805816229034
C 2.4844772353974705 1.6217080705384397 -0.5967122989430764
