13
## STRUCTURE-ID: 64566c6f67f047757932dfcd ; CHARGE = -1; SPIN = 1
O -2.2104256232769512 -2.012478582962164 -0.8414474403608
C -2.18951681727011 0.17330675505520368 0.9633130567199959
H -2.632274145470643 0.3218726824365765 -0.012203713287752011
H -1.9288715099047307 1.1087767499854972 1.443327743177925
H -2.844917006004009 -0.4301582869748345 1.5769188429087366
H -1.9458130109662681 -2.894899443657079 -1.1033827961971812
Rh 1.5014027374359826 0.5553134317283439 -0.24003932226130528
I -0.07328723971355817 2.556231083166625 -0.7478441357853362
I -0.3969121271627311 -0.9654028821249531 0.6681696548052168
O 3.525745480700014 -1.5095939929581415 0.530975848842168
C 2.7358248890270316 -0.7267342930474912 0.2484290615652402
O 3.6331869379713653 2.2512487763219493 -1.4715306477766683
C 2.825857434634607 1.5725180030304504 -1.0146861523502517
