21
## STRUCTURE-ID: 6456757a125ef224644609f1 ; CHARGE = -1; SPIN = 1
H -5.328647360200542 1.6912988270442377 2.7491348856501516
I -1.8550183909239333 0.8629449702540838 -1.757604399585118
O -5.533804318845667 1.1264178413481767 3.4986482230976375
C -0.48325463342866837 0.5693248590609231 2.129140304885232
H -0.6440819069360137 -0.1573853754523341 2.9203741698937993
H -0.2977556458691218 1.546112607907863 2.571294676479417
H -1.3819822667564678 0.6368396897799423 1.5198878168572072
H -5.203053908312103 0.2513413630655675 3.280343301725333
O 3.3283396685212248 -0.6236728419279376 -1.111701138932543
C 0.7115211155311033 0.19352218619879613 1.2878146442555414
H 4.067810172454431 -0.020133073726542956 -0.9830476911168431
H 1.6195864948229513 0.10560178309016886 1.8771849938070309
H 0.8670613915129184 0.8866788282936638 0.4635587264083999
H 3.6175048908716794 -1.4744263147297616 -0.7634360249647583
Rh 0.20924323864755165 -0.598139335663001 -2.5732098186089045
I -1.2925334664624863 -2.6273021154365996 -3.4468612373549474
I 0.4657170218340458 -1.7688344274313028 0.33277517377678245
O 1.8335398870772932 1.8812244817050332 -2.2622331205557353
C 1.222112912503805 0.9063526762046076 -2.3500687087451673
O 2.467643820398495 -1.9494776279878177 -3.9789711554524705
C 1.6100512835596081 -1.4382890015978758 -3.4030236215200205
