19
## STRUCTURE-ID: 645679d4a580a4157e4085fa ; CHARGE = 0; SPIN = 1
H -3.835570537214431 0.07893860660708613 -1.2860238475430719
I -3.119442879154125 0.9651059897182611 -0.1870679944448875
C -1.7916014402304132 -2.0963983808192492 1.488929748432755
H -2.21678877591311 -1.6529471952068049 2.3900231943258987
H -2.5979323477359046 -2.4801114449692805 0.8611772241339488
H -1.135288264409973 -2.9217063317916194 1.7711235356540267
O 1.5057894330782604 2.406132535929005 -2.714127139725758
C 2.2942512908120234 1.7008274587511327 -0.2605309013983739
H 3.196645172679616 1.9108178696686033 -0.818633766802878
H 2.4893535258025183 1.0568678350486247 0.5893764992734666
H 1.8244121216329574 2.6289372833014073 0.03790029208650184
H 1.0782852411320312 2.450726253463278 -3.570938647091953
Rh -0.7127666798200913 -0.6926576424489176 0.32499175424845855
I -1.0623211190966158 -2.0109189095610835 -1.9422696172217078
I 0.974759377623772 0.6958765002667143 -1.5800925892781044
O 0.1379465879189439 0.6090253407558796 2.871446431262035
C -0.2440521485503084 0.11015173400714845 1.9175091781219915
O 2.0884907845850655 -1.6892936329746704 0.17784193779892907
C 1.125830656860041 -1.0693738697454298 -0.07063529183106064
