17
## STRUCTURE-ID: 64568cf86615de32036b0e0a ; CHARGE = 0; SPIN = 1
C -0.9689300921140973 2.7267416567167553 0.45467239540505267
H -1.4596860585713414 2.8477374395589807 1.4201855369008052
H 0.0025277631210783853 3.2169874597469263 0.45447879050611467
H -1.5712682168920113 3.1929775278317596 -0.3241181458086461
O 2.0784675680423828 -1.5619667612944217 1.8332777381597722
C -0.0943943421613497 -2.8526778170887 0.7236781205669409
H 0.32057064717511297 -3.207217807565785 1.6591531454149686
H -0.261562775934014 -3.6569922809672866 0.015630876797352606
H -0.9902569928124679 -2.2605022756216435 0.8845626126728198
H 2.86466596802311 -1.0219931738355292 1.934695413128478
Rh 0.06501396846327423 0.3171569837388201 -1.2999169296786508
I 0.10596810398872379 -2.0097598221670037 -2.7180802369575763
I 1.4060183987263914 -1.5552899631359964 -0.057566643615561915
O -1.2921959967849075 0.3550006422321033 0.7633453040439117
C -0.8103122127084644 1.28113461019163 0.13394660961511387
O 0.39895956199136545 2.4774571911434045 -3.35769657287408
C 0.2064147084472145 1.711206390515987 -2.5202480142768167
