19
## STRUCTURE-ID: 64567aa9e66fdf2c01333be6 ; CHARGE = 0; SPIN = 1
H -3.431326211360514 1.2160468549828745 -1.7699367445545773
I -3.5394735689364896 2.7788787381761164 -1.6393441665090784
C -1.0501547971636789 2.415276293056185 -0.2854223122419142
H -1.0485725760985107 3.479527241118287 -0.0930688194218288
H -1.7056675016253138 1.7922329061061744 0.30455591473701943
H -0.7906584299433607 2.0780497947293033 -1.278433716160212
O 1.611853433514931 -2.4507973901665285 -1.8248871893952259
C 1.0684507475444096 1.9917030795415704 0.9588635360294879
H 1.680068751175607 2.85136290686987 0.6946194791365135
H 0.7472332950623577 1.9776613183185803 1.9970914301052425
H 0.09706516399326907 2.0427600903512415 0.29363524525470824
H 1.0999834778198838 -2.0360688146889596 -2.527443054173596
Rh 0.6645808907719352 -2.598213742927241 -0.02298515585172355
I -1.3460801541038687 -1.2291640064354639 -0.8850706924383742
I 2.1470140037972802 0.16055258029224856 0.4754527247904504
O 2.6910269503479234 -4.57960712828615 0.9393184944175771
C 1.9591695114526633 -3.785836966231259 0.5285180722786208
O -0.6820747345489562 -3.2083267331236596 2.5638149915146493
C -0.17243825169956495 -2.8960370216832065 1.5707219624822506
