16
## STRUCTURE-ID: 64568e0b38dfbe2839630f04 ; CHARGE = -1; SPIN = 1
H -2.9542491760655887 2.382869344995717 -1.219346398516289
I -1.7050371464880765 1.6301935492519897 -0.39705730005194056
O -0.20733238081065272 0.4198908579877443 0.8832362096423135
C -2.7786260416914383 -0.17391956743084092 -0.7399448486728804
H -2.139408290128278 -0.9818318837335082 -0.40443776464187936
H -2.950861768649818 -0.24795752486691094 -1.8077151560639309
H -3.6975131312986367 -0.1378540921439358 -0.16732898791930653
H -0.27864691389615176 0.6626953746217925 1.8093642270327208
O 0.13053694573912267 -1.8783295120008383 -0.7570977294785847
Rh 1.5893786496451818 -0.7394471889715696 0.2374316948982242
I 3.391270546241086 -2.5368094952710436 -0.3477368535842867
I 0.3873729658689464 -0.7061508528754283 -2.2942667793753033
O 3.269365897388992 1.659588153780925 -0.06029104685721694
C 2.783883878039031 0.7563208768442459 0.6012968441017571
O 2.607321464479546 -0.17518062961856012 2.9291532917212346
C 2.552544501626739 0.0659225894302036 1.7347405977653738
