13
## STRUCTURE-ID: 64568c1fd6bd136c5830456a ; CHARGE = -1; SPIN = 1
I -0.9175291980579721 -0.7843758569109456 -2.401385152723922
C -1.572698574871852 0.2321897092605714 0.7758793286154629
H -2.1970622047273913 -0.6103562547831074 0.481175380133863
H -2.06564811361439 1.1712830409287436 0.4886001722015255
H -1.439925003376844 0.2045447874834551 1.8564582851230371
O 1.6700505037953022 1.390598895152858 -1.628733245184365
Rh 0.24574737624381282 0.34204499051629617 -0.2840524051707242
I 1.4320786315193892 1.5300213917905285 1.7609547762397124
I 0.34935214149347527 2.790074889095336 -1.711072639264285
O 2.4231943488640315 -1.5586440484266617 -1.0185095339828036
C 1.4719568474837323 -1.219397416106691 -0.3939608616298747
O 0.10602692070404446 -2.096742535182365 1.4778849388089688
C 0.49445632454477445 -1.391241592818116 0.5967609568334885
