19
## STRUCTURE-ID: 645679fa1a387a31854d91ee ; CHARGE = 0; SPIN = 1
H -2.798695804242462 -2.8270752521270968 0.5551340769426895
I -4.283027034919803 -3.3035367894294048 0.2533064449072765
C -4.734172105437773 -1.6493668884371993 -1.059915208635098
H -5.745280951297404 -1.32630272465879 -0.8304189864581579
H -3.968342144877268 -0.9156283846862684 -0.8028455541505137
H -4.631687722485087 -2.019142928433925 -2.0747794040623044
O 4.012869863191577 -1.806153431213378 -0.0858575122099271
C 3.877938633031344 0.8363905925615837 0.42235115142850016
H 4.015565486535193 1.4561341302272663 -0.4596346835124353
H 4.702594479095937 0.14750757732763775 0.5182721326133701
H 3.7971311788491904 1.4564083088777793 1.311422092968754
H 3.766329226207588 -2.7104850955687207 -0.2795772926979691
Rh 0.25906654891756026 1.4285683069973427 0.34008779962986985
I -0.9262889525967857 -0.7868940449215357 0.14129618983490033
I 2.156160061818021 -0.305450245726907 0.20189534777604448
O 2.2941433651168133 3.615118251857249 0.43940877784114496
C 1.4801890761663685 2.79828771776127 0.4209335071638641
O -2.05349386070718 3.3417666342416523 0.5455927381602842
C -1.2209993423658225 2.5698542653514496 0.44332838245971157
