8
## STRUCTURE-ID: 6456642e920c593a2c7ffa80 ; CHARGE = 0; SPIN = 1
H -0.9060343183830912 -1.0722305478326917 0.3237650231045771
I -0.6337825666740062 -0.36298537003960596 2.52556538718355
O 0.730892471489577 0.9353841028881839 0.14426828991866644
C 0.36835848978288493 0.306535456831757 -0.8977527916789079
H 1.0975715007940834 -0.3549940144794823 -1.3817127578033959
H -0.33757782136726117 0.7984443792475131 -1.5783661814677865
H -0.5256336577029651 -0.7318714941144132 -0.4637440149395383
H 0.20620590206077444 0.4817174874987448 1.3279770456828344
