12
## STRUCTURE-ID: 6456692a500f4c3374493a78 ; CHARGE = 0; SPIN = 1
O -1.5926792534751688 -0.3657030991297099 -1.1174994168618593
C -2.1095655104505493 -0.16385108372651933 0.17940699888932707
H -1.7274852947175205 0.7606629806193754 0.6230235663149774
H -1.778871658962011 -1.0072999109015046 0.7827170000735172
H -3.2033263078660665 -0.13846208199128224 0.17756377039582588
H -1.8979675444915953 0.35017634755693783 -1.6875946238426598
O 3.0241524952383214 0.37358211207736314 0.5652536046837096
C 1.7019311900608212 0.17633500153600254 0.11271520496373452
H 1.1549809259740538 1.0880074134177027 0.34499787353709044
H 1.2223576156196816 -0.664454251320244 0.6221946422077069
H 1.664525223713038 0.006006449260904318 -0.9668596833863878
H 3.541948119356995 -0.4149998773990302 0.36408106302501636
