13
## STRUCTURE-ID: 64568c38de0ad85289071023 ; CHARGE = -1; SPIN = 1
I -1.5081410886058693 -2.6537397465190566 -0.5822255994639255
C -1.5248320555628505 0.5524663425761431 0.2355414496272384
H -2.2663431699812966 0.4571114188385178 -0.558416190512787
H -1.2058754552545512 1.5969728777851824 0.2890689996633272
H -1.991446008705245 0.2582515425042978 1.1770897427900406
O 1.0356345773677604 1.6496966718020833 -2.8541878356578603
Rh 0.19494834617051246 -0.6440571105883762 -0.21159144964029475
I 2.3632706708165205 -2.1951778968773703 -0.8267225846533748
I -0.09502891346792286 0.19179540368114964 -2.7038178475843644
O 0.21470139321004267 0.025242638560752442 2.7398254860836238
C 0.4942279228730235 -0.2558390975980581 1.633868172666337
O 2.6611133037202426 0.7522443750088734 0.976858734893903
C 1.627770477419641 0.265032580825863 0.6847089217881339
