21
## STRUCTURE-ID: 6456750ab561ca6f595b5c29 ; CHARGE = -1; SPIN = 1
H -3.267914001232685 -0.5479650359576653 0.31886789020375494
I -3.505940010376238 -2.3399610564150803 -1.8441322786669385
O -2.6302594023935986 -0.14850029884525207 0.924767179824037
C -0.51032179928541 -2.1027581076411286 -0.25838714155776943
H -1.2491405493128582 -1.3753361674472928 0.10803343408037003
H -0.4334026424173893 -2.041948668294376 -1.334612145710026
H -0.7250063914625111 -3.1039465678765183 0.09378307585330421
H -2.9203788947960168 -0.37312680976686324 1.8137299167573437
O 2.9205542660053263 2.785683790939297 0.710511401522791
C 1.4679877231077674 -1.9406463113789398 0.06854595648385158
H 0.35742058748230515 -1.582583211081683 0.40909149331545464
H 1.8931729829855608 -1.9270857641479602 1.0790368491637778
H 1.645460233422044 -2.8840483878525847 -0.4405094807150004
H 3.164152039728142 2.4445160872196827 1.5772017285288416
Rh 1.0095123546400098 2.3274681835131963 0.1480995545144516
I 0.6451228848033012 0.9481562775700183 2.3228722123669088
I 2.3115911271831955 -0.3301208718405836 -1.1092596508102897
O 1.2000277234024563 4.19095442546719 -2.1812478130359754
C 1.1980323815892917 3.462247369699159 -1.2844192360061455
O -1.827259466633263 2.3448569197632154 -0.748624572925295
C -0.743411146439419 2.1941442043740804 -0.37334837318760533
