12
## STRUCTURE-ID: 6456b766e789be1fe6230d6d ; CHARGE = -1; SPIN = 1
C -1.8412967299581122 -0.3372539966956672 -0.12821673077197163
O -2.2318556641268974 -0.4948769029681796 -1.2153460694418976
O 0.3028939295928544 -2.0268227195249438 -0.8680744358742231
H 0.8548173954421986 -2.7315392069338977 -1.2625555300160234
H -1.1927357337596058 2.0305508330215076 3.320201365791083
Rh -0.0009581218831717461 0.46731234962134716 0.3587669761773476
I -0.998250525237529 2.6141979704638256 1.8513398624962925
I 0.5537543947644348 -0.8957111144111988 2.587844493157292
O 2.234638147031038 -0.9287051531859796 -0.7861816922738278
C 1.0387285980546128 -0.9452434969435418 -0.5349778130155358
O 0.815419186751542 1.8429773490559387 -2.1705527329240164
C 0.4648451233286431 1.4051140885007813 -1.1522476933045147
