13
## STRUCTURE-ID: 6456888a7b8c1f140d40f1fb ; CHARGE = 0; SPIN = 1
I -2.053077480802873 -0.6000035147325673 2.192415811894666
C -0.9115100738338769 0.36843538684892413 -0.9290044308112486
H -0.23640755400139624 0.9127312992491639 -1.5915515870128203
H -1.8292750086455472 0.9301888968411425 -0.7404926276972692
H -1.1406862230477204 -0.6146267292139079 -1.3361211835258213
H -1.7220445821039208 2.895849386638989 2.22391314368716
Rh 0.10301492855023406 0.2028603517204067 0.9035104850483734
I -0.24457105294458548 2.783834217879751 1.639064108209207
I 2.592883076760003 0.7648884688655274 0.14765809471689875
O 0.7102301535761854 -2.6847145984538683 0.6133471043611899
C 0.46713787126763195 -1.5724256764724744 0.6558397465474786
O 2.5707574678789165 -2.04011331112417 -1.9824301493850731
C 1.6935484773469285 -1.3469041780469253 -1.7961485160327437
