13
## STRUCTURE-ID: 64568c48d5ae1b49c7248add ; CHARGE = -1; SPIN = 1
I -1.3669939406711975 2.180145007502019 -0.9709626625553684
C -1.3273852524588345 -0.6115462848680561 1.1018798843942608
H -1.0337147479441082 -1.2152507131359982 1.9635520699195141
H -1.7411659775410455 -1.3043263126802798 0.352480260064603
H -2.1452544404698854 0.04536505151045966 1.4060734484264594
O 1.3512608965044863 -0.953214982630793 -3.4377671431323997
Rh 0.27320475623615564 0.2731598263544206 -0.059915415520770114
I 2.0285396177564556 -1.5592383592654544 0.8198884862602325
I -0.140529604878145 -1.2178421154273873 -2.344766097577638
O 2.4068885598472254 1.194647879725233 -2.0059290790758224
C 1.638066843610889 0.932320783539415 -1.207568578849553
O -0.025339296929001123 1.319433934369938 2.723727886753302
C 0.08242258693701013 0.9163462850064815 1.6593069408931806
