18
## STRUCTURE-ID: 6456724e20ce7a79f92eaab0 ; CHARGE = -1; SPIN = 1
I -1.8553907863650858 2.338790820071238 1.3066668660485274
C -2.6324341807845464 1.0012576613017352 -0.7104785692382252
H -2.2213205042072657 1.306423960970406 -1.6703498528685683
H -3.6195839715200018 1.4183752466965802 -0.5896204824645463
H -2.658345745426155 -0.07142725606818144 -0.551104296593676
O 2.3868921029749735 -0.2028442514888203 0.872317611345567
C 0.438010632901171 -2.9554640061249544 1.0161513004312173
H 1.5043500451605767 -2.768857247056825 0.9675881419900098
H 0.052212647075590556 -3.2267533775211192 0.03909738113774475
H 0.19304234754424435 -3.7004293132630304 1.763333800310208
H 3.33577917963182 -0.12586305172936052 1.0980394688552169
Rh -0.03347016599105439 0.8561890062086711 -0.19681295446278405
I -0.4994677261556807 -1.0992351664851958 1.605117985769395
I 0.05215701767344715 -1.0256008130988588 -2.369378989526308
O 0.6302534712841357 3.09085462053916 -2.045289058405936
C 0.3733444684635845 2.2500636694790126 -1.2965438458982694
O 2.6611411975356174 1.9348283796601586 0.35069285081824414
C 1.892829970204629 0.9796911179093901 0.410572642752186
