13
## STRUCTURE-ID: 64566e450f9ee24ebc6cdb40 ; CHARGE = 0; SPIN = 1
I -1.1393957597674054 1.0515663853209978 -1.8298555219653672
C -2.0308071781598236 -0.27351205720752597 0.2137650222030838
H -1.542671427867015 -0.8150235812819021 1.0218668700466969
H -2.609013103982042 -0.9261557581678859 -0.4222180540747794
H -2.5872910168873933 0.5822649692841192 0.5675613791719029
H 0.07884868453125447 3.349361531168858 0.6362453626777839
Rh 0.6009260814208713 -0.021186787439118986 -0.10970458771500499
I 0.40153665465305216 2.1356394419667195 1.6078662187550004
I 3.068644237494459 1.07978783177886 -1.4314978555615452
O 0.930199855592801 -2.306502538665783 -1.9941700085316245
C 0.7635798882065743 -1.47868125156269 -1.2295066083676927
O 2.420925417968218 -1.440991614895308 1.81688253281199
C 1.6445176667965202 -0.936566570299347 1.1527652505496135
