12
## STRUCTURE-ID: 645666028c315c0ed27cab8b ; CHARGE = 0; SPIN = 1
O -2.0622833046558338 1.6132589804503643 0.9173733446557578
C -0.1335880738074338 -0.9083147421001863 -1.0781935859299097
H 0.2307916602644945 -0.3054378601143881 -1.917159250097283
H 0.406265080837885 -1.8611617811822145 -1.0622166544484792
H -1.1986260283572407 -1.093000476675739 -1.1972630614668784
H -2.470876294690102 1.109773789845696 1.6259823835163272
O 0.026051899453149882 -0.2209181163318472 0.14403646715692436
C 1.3736843047441714 0.08584292391714034 0.4289213679937327
H 1.3809975548962423 0.6078061234050359 1.3828631893470733
H 1.8012210181033255 0.730694964157757 -0.3465985073281496
H 1.973306936639447 -0.8277189813111754 0.5036182722477731
H -1.326944753428104 1.0691751759395558 0.5986360343531084
