12
## STRUCTURE-ID: 645667398c2f04103e4efcbb ; CHARGE = 0; SPIN = 1
O -0.2092963882704446 0.000837673739503598 -0.2553809485298126
C -1.1236071970145223 0.4520124115874394 0.7207883178445222
H -1.8458890799640608 1.1500870588784644 0.28435686440460123
H -0.6019281642484943 0.9475678066915749 1.5468719331246794
H -1.643877866798074 -0.4274756897297433 1.0928543390063261
H 0.7336189754328296 -1.595330116762855 0.23007098448505675
O 1.1467005460585886 -2.452589497651028 0.41421639817652134
C 0.5395087007446931 1.049304756908839 -0.8316835687159251
H 1.1967575787793183 0.5956735815550105 -1.5698231819997606
H 1.1383085188419335 1.5659668522632182 -0.07362083672848763
H -0.11915029918673777 1.7744341328340179 -1.3213862412963684
H 0.7888546756249787 -3.0604889703144424 -0.23726405977135184
