21
## STRUCTURE-ID: 64567508d15a1f3aa8230d7e ; CHARGE = -1; SPIN = 1
H -2.702647898715683 -2.1835232701698994 2.5540563356264596
I -2.1485519805728988 -0.9746727461534804 1.5447146934098335
O -1.3823380375596683 0.40197925799539785 -0.19250737032355086
C -1.1181719496251041 -2.534901028398448 0.5142013239758033
H -1.275980701165876 4.27796881663083 -2.467196633287305
H -1.8015815489570275 -2.9803671169611157 -0.19810744528358923
H -0.26535898698287425 -2.0782878968354033 0.01492381502854472
H -2.1614579641344505 0.5932403827680454 -0.7262870799640949
O 0.47065261421883137 -0.44037081347179907 1.993734169010971
C 1.8905934646211913 -1.5325784901116113 -0.5333562166788625
H 2.5499981743341893 -2.373059108834237 -0.41727670690466334
H 1.67620382321319 -1.2097598157166123 -1.5382831006023228
H -0.7852320627502909 -3.249801639780418 1.2568251805898107
H 0.7327242808057439 -0.637542084419363 2.9027103081552466
Rh 0.163891672507509 1.8551284374726116 -0.37436664391222313
I -0.40316861906957174 2.8703081517740725 1.93839555643903
I 2.147463498302934 -0.0458509886128827 0.7872081179460392
O 0.7452435526381309 1.35361422708578 -3.2579020589216183
C 0.4512815671807671 1.4504763583433569 -2.1472585955039585
O 1.9310160267202874 4.175437719316211 -0.9658888877528377
C 1.2854210749906643 3.2625616480789597 -0.6883387610467241
