12
## STRUCTURE-ID: 645665db48f2f3746a46227b ; CHARGE = 0; SPIN = 1
O -1.6018408639643722 -0.4722368550318272 0.2099254822905564
C -1.5903272264494959 -0.6805462749149932 1.602623914492191
H 1.0582312160855982 1.684082021833493 -0.2198702176700534
H -2.5323788342732527 -1.1640385895811194 1.8593472679549865
H -1.516348576913061 0.26588543776262796 2.148103824352845
H -0.7521554749930002 -0.0675282095987733 -0.041251912626100576
O 0.9292657216865458 0.7361688653806807 -0.34819361333566434
C 1.5707105367077623 0.34710023810621565 -1.546487072552957
H 2.6454775547563654 0.5408544576070162 -1.4997968188319601
H 1.1444129847966187 0.86328853439078 -2.4109099667102
H 1.4073999973762594 -0.7230655142496765 -1.6574291195342812
H -0.7624470348159451 -1.3299641117044039 1.9039382321706255
