12
## STRUCTURE-ID: 6456672bed334248c87ccc10 ; CHARGE = 0; SPIN = 1
O -0.6864809168528944 0.5144477526531012 -0.354901502897642
C -1.6753803128742402 -0.128148663330229 0.343642867962603
H -1.723622140106153 0.22065897507701235 1.388670419402692
H -1.5468051289691511 -1.223256066739484 0.35032764853402193
H -2.6505594349684447 0.089824527197282 -0.11656549208244048
H 0.20420763030879915 -0.2254862853428307 -1.1808940670423715
O 1.1775897723113944 -0.5702443989960659 -1.3008501005243855
C 1.2174508748696122 0.2626708998090997 0.5095656225501957
H 0.6166355716783035 -0.14143852450557712 1.3064316039373198
H 1.220608231749643 1.3355723611932515 0.4383519195269552
H 2.1952695754448657 -0.1980324640960006 0.468038135964597
H 1.6510862774082673 0.06343188708044396 -1.8518170553315425
