18
## STRUCTURE-ID: 6456b7399a64df26c041e58b ; CHARGE = 0; SPIN = 1
C -1.5181563882691806 -2.0682861666568386 -0.882611203736401
O -2.4040432338228643 -2.76999916576607 -1.0565777232178835
H -0.645996270341741 2.007538089727144 0.6173446384179108
I -0.825495428800385 0.6988765216543565 1.4877967585081893
O 1.7110582049051644 1.2477162568134965 -0.13316231245589658
C -1.4914569972542262 2.085295570350308 3.1226772970720367
H -0.6788294691321823 2.778658964952184 3.3091925259746837
H -1.6923013669488174 1.4729517979724982 3.9945418566356268
H -2.3893690719180345 2.5844433651570773 2.774093456092052
H 2.512759188723452 1.7884455934193393 -0.27739812837339334
H 0.12870976308976256 -3.1537755777331147 -4.37806591252001
Rh 0.006151241720300253 -0.9520589631266142 -0.8380388398342189
I 1.2614818082611712 -2.324968612202991 -3.6447382649810875
I -1.2987309821620405 0.8389893848421586 -2.2690085440456604
O 2.533750560461492 0.033068167041821965 -1.8016737355759704
C 1.6279005767887222 0.1984893149536459 -0.9907952486285877
O 1.9898232385482812 -2.515311689126334 0.7706205730053085
C 1.1727446261511618 -1.950072852272065 0.1958028076633272
