8
## STRUCTURE-ID: 645663ecced6344ecc7b9250 ; CHARGE = 0; SPIN = 1
H -0.8436461938730369 -0.35086973090612816 -1.441668085596109
I -2.2478109450684802 0.21639660934839292 0.9527877367820973
O 0.03779258402424452 0.02734749554110915 -1.31625668863928
C 0.6545720300200093 -0.19372157111168561 0.7158728230024552
H 0.5972254510804278 0.7219655201061491 1.2703151725470156
H 1.5144432268457626 -0.3127128242671634 0.08136948730492986
H 0.31492923278966656 -1.0889303197788602 1.197441102631137
H -0.027505385818601912 0.9805248210681888 -1.4598615480322437
