18
## STRUCTURE-ID: 64566f86e00f197df9224140 ; CHARGE = -1; SPIN = 1
I -3.260647074504498 -0.1637892476834517 0.4001894804814821
C -2.2384564322403597 -2.281099466276627 1.3963514471687481
H -1.9851872599552927 -1.9954996364953836 2.410306972723394
H -1.524149844365974 -2.954128891626183 0.9159311409683598
H -3.2246873006102628 -2.715418210318058 1.3344105651424623
O 1.7409498274423545 2.2872274815274105 -3.0823060306864916
C 1.5472099391745868 2.149329345872789 -0.3708574163038135
H 2.2063032396920303 2.761943483359287 -0.9660824986073938
H 2.104356835031986 1.5836034070463854 0.36903057317474053
H 0.7814610131861747 2.75325491157653 0.10245775721563886
H 1.5765901104877553 2.076638940189517 -4.0006557689508195
Rh -0.6058155786983149 -0.7828110421870735 0.1586354987337965
I -0.9814549216638805 -2.082057603929862 -2.1219590958560555
I 0.6283571544450134 0.7885502597615659 -1.7040248524782542
O 0.020497856425055427 1.150399930441744 2.334712759343335
C -0.23469878297550603 0.4071419270625832 1.489120462530214
O 2.26818577794841 -1.2909628158116773 0.7170017302330355
C 1.1811854411807292 -1.6923227725095131 0.6177372751676348
