12
## STRUCTURE-ID: 64566857ab5ab46055051b83 ; CHARGE = 0; SPIN = 1
O -0.48309104193400304 1.0993751760968211 0.003399307011668998
C -0.7130571521816422 1.0015257129011619 1.4053968980108478
H -0.34100527865509433 0.05972278779704587 1.8076592304064358
H -1.7864820994249497 1.0810231325442767 1.5708991432865327
H -0.20380784088745946 1.8288544094094648 1.8997857325576486
H -0.8675682764135905 -0.07035203979529654 -0.673745375766177
O 1.5360179690975377 -0.26901139767955756 -0.5517614933295695
C 0.8993554524070662 -1.1875333496017921 -1.1774150640433492
H -0.4366985051146166 -0.9302992031384302 -1.0791948483785836
H 0.9248002106672716 -2.2051517846446096 -0.7487687371269749
H 0.9877279137706173 -1.2125678889745033 -2.2781786193543248
H 0.48380864866885304 0.804414445085407 -0.17807617327415795
