13
## STRUCTURE-ID: 64568c9dcecb3528cd6aac6e ; CHARGE = -1; SPIN = 1
I -1.8492359537087124 0.38610309360439565 1.8511316912038713
C -1.5852922508455325 -0.4735605832584607 -1.5340187423140195
H -1.8980314797047204 0.4507182240388438 -2.0299607152208363
H -2.446529776854704 -0.9263445166131284 -1.038599974292025
H -1.1932360024426147 -1.1690686956287557 -2.2788008067018937
O 1.720665848111129 0.5346771072524412 1.6278353203275235
Rh -0.10998081300145653 0.062346488822060266 -0.15029471620374085
I 1.9156360583498224 -0.44475252676831994 -1.8156610415247587
I -0.004024753111208386 2.670058770467447 -0.6338997625539426
O 2.994411110297212 2.0637894156839462 2.754768591535202
C 2.3577105911724683 1.3078244907451455 2.1898056445121443
O 0.10869842750642617 -2.7707571186327384 0.7114676067140514
C -0.010791005768098787 -1.691034149712871 0.346226904518426
