21
## STRUCTURE-ID: 64567740f3e19539624b6a74 ; CHARGE = -1; SPIN = 1
H -4.825956904685164 0.3801120112731019 0.3485319846921056
I -3.159048397394714 0.6259343141821788 0.30915838530003237
O -0.9193559998088571 0.6912809329747184 0.5386420571503739
C -3.0583938959032895 -1.2868901423017942 1.230225506455508
H -3.5785631055788825 -1.2337718589880642 2.1780916746494334
H -2.008566454141951 -1.5117350929675786 1.368058846742934
H -3.5114512978198253 -1.9932187051324175 0.5448912044297636
H -0.69860822116237 1.5417442929317675 0.9158901721979151
O 2.3319244054837727 -2.3417857228672627 1.3957694456129695
C 2.3405340279123066 1.883153974230089 0.11778723829146302
H 1.8625517442075743 1.6043139712761039 1.0585516895070066
H 1.7853157026545128 2.7105137176406315 -0.3221509406690246
H 3.369799183215867 2.186760269889714 0.31900279035501267
H 2.578531037029248 -3.26308474800733 1.4789515135360713
Rh 0.595234732446367 -0.05603907446787502 -1.3917431045762705
I -1.3989930744378594 -1.7883783653949314 -1.961328468722625
I 0.8256526428985091 -2.1874910467237325 0.03011815253227033
O 3.4006289952809805 0.14648558487639682 -1.113083981402794
C 2.3232352306389106 0.6777690085324443 -0.8278462530836027
O 0.9968326135652986 2.0206183630216543 -3.50152309228622
C 0.7486970355994632 1.1937083160222213 -2.7159948207122793
