12
## STRUCTURE-ID: 6456b7825d5a4329672b66bb ; CHARGE = -1; SPIN = 1
C -2.712940997826303 0.12363743817873729 0.05917200742993217
O -3.4552245379657527 0.7405439024172968 0.6654156893764835
Rh 0.9428852372694039 0.005238578122285918 0.7064910365250769
I 2.8024422988435553 1.70973497455932 -0.13011264770859968
I 2.7435744129652164 -1.6111926371599148 1.7054344655022464
O -0.869896149037493 2.33378920043789 0.4181603975199378
C -0.21685843804958707 1.388680949848991 0.44183609858273876
I -1.0373519943356586 -1.336705299714795 1.8889126195675443
C 0.49273462234233606 -0.7276121416565566 -1.2038183040667867
H 0.8295740677098109 -0.04230497763711261 -1.983340541173826
H -0.5759793183444842 -0.9164342018137643 -1.3103233017352454
H 1.0570407964289488 -1.6673757855823679 -1.2578275198194973
