12
## STRUCTURE-ID: 64566b5c2acd864ed5530d71 ; CHARGE = 0; SPIN = 1
O -1.6435302562509404 0.8327260777250791 0.5377845795184252
C -0.4273809535648093 0.919582752389234 0.08569140909709885
H 0.29575013618868085 1.1525132767580983 0.8617884362473439
H -0.871545059863897 -2.9709570446510454 2.4455451355020994
H -1.321507555091042 -2.3495319213306662 2.570069393238391
H -2.3362720186839465 0.7660415724835166 -0.14598286661221335
O 0.0553598570449891 -0.3170041765372103 -0.7529749741358218
C -0.03290123687102645 1.0152707266597274 -1.3215695238783198
H -0.8015380961900966 1.06422619823261 -2.088741500415576
H 0.9074626033023306 1.479050095559021 -1.5936116750837666
H 0.9637229928165855 -0.6374209767933028 -0.5751735195944397
H 5.212379587163166 -0.9544965804950681 -0.022824893883208904
