13
## STRUCTURE-ID: 64568cf70149e672305fdac0 ; CHARGE = -1; SPIN = 1
I -2.495303783297301 -1.2951542030065775 0.09118211454003672
C -0.3513702535841126 1.6394300937618065 0.6088701579014196
H 0.3766812978583965 2.4487170735366046 0.5587900187677609
H -1.2266110497957767 1.9409152672308139 0.030155884455021036
H -0.6790898254016204 1.515427579899412 1.6506633102967152
O 0.9947476989469509 -2.217570208153942 0.5628361448583673
H 1.8651882414221603 -2.4620901178641725 0.8917752560082581
Rh 0.5336658735653296 -0.278152123011977 0.2831902821720393
I 2.3035225149467156 0.2174470812131923 2.096600568668595
O -0.49740490227244183 -1.8997810400516681 -2.034655604105757
C -0.6053559733087535 -1.1212645376178254 -1.1426285656607906
O -0.20418484436224346 1.0539596818813648 -2.298905954567434
C -0.014484994717302848 0.4581154521829678 -1.2978736133342428
