12
## STRUCTURE-ID: 645666ba8d6d8e01804ed2b0 ; CHARGE = 0; SPIN = 1
O -1.334153287340825 0.576571949742007 -0.40242450308403965
C -2.176079630688426 -0.1529409930704903 0.33214663166599817
H -2.0474251092612703 -0.019714841175746557 1.4448769296495543
H -2.0919000430360803 -1.263480199528031 0.1583967201446463
H -3.25650392392138 0.08731934955299847 0.13809982458387954
H 0.754233143889731 1.022615447299068 -0.7745016293377273
O 2.4683128137100496 -0.15579245714205975 -0.11893565683984196
C 0.8833086452121663 0.1193490569684016 -0.205838998278858
H 2.8150444060171287 -0.2598759338368828 -1.0295886500320544
H 0.5881950408733246 0.19960596499438954 0.8250282587857835
H 0.5027550281020482 -0.7623228836362258 -0.6893175661868266
H 2.8942129164435353 0.6086655398325723 0.32205863892948033
