12
## STRUCTURE-ID: 6456671b9f943612f12cdf88 ; CHARGE = 0; SPIN = 1
O -1.852837565873655 -0.1984319839454904 -1.9373264006570075
C -1.5874972829292067 0.003604949258317882 0.3570328097396721
H -2.655760229520075 0.19789781293203074 0.48288390844347906
H -1.0084138795767392 0.5854323163036624 1.070921014451433
H -1.3859152621580697 -1.0634478823563394 0.4828248526032428
H -1.6567175684737978 0.35557731587747915 -2.7087879601245897
O -1.1307997564232926 0.46188812005789887 -0.891848538071877
C 2.2553635014960087 -0.06918012444743175 0.629045505230011
H 2.614216461551562 0.9515281037155853 0.646578453778035
H 3.0628569291403287 -0.7304711120566524 0.3435038520491682
H 1.8966429281658514 -0.3426879322690565 1.6126863962372047
H 1.4488617246010937 -0.15170958306999946 -0.08751389367877523
