18
## STRUCTURE-ID: 64566ec220b3154b815fdad7 ; CHARGE = -1; SPIN = 1
I -4.521453690984071 -0.41695145356557756 0.33266765174750573
C -3.2928055302656465 1.2627042172234937 -0.16875539592407598
H -3.7148166934278506 1.7284396213270523 -1.0486153773628581
H -2.2926594201734316 0.8977048210134868 -0.36621856008894166
H -3.3015702553317823 1.9371883772349252 0.6760201779945298
O 0.4911960693138529 1.179533624436961 3.5235094303236902
C -0.7420033506877489 0.9313684991486828 2.8826329972519633
H -1.3007163990900896 1.8602456915588497 2.733267884170897
H -1.3081726417299586 0.27350593048849947 3.5394940753192294
H -0.6009747865429534 0.4389350994560837 1.9152265887588702
H 1.040486239840216 1.7079252462645091 2.932951756002586
Rh 2.6729212905732056 -1.266257589508573 -2.2847871728471216
I 3.9132202072233992 1.020782994341114 -2.271184050545378
I 0.5173009878669869 -0.3136180632070847 -1.2197620926744168
O 1.3108550811982316 -3.9207256803816306 -2.2921898685376036
C 1.8388129432364302 -2.896877537067076 -2.2950013972687375
O 5.116947751057074 -2.4364252811324394 -3.5368665378981157
C 4.173432197924109 -1.987478517631353 -3.052390108422101
