12
## STRUCTURE-ID: 64566ad03563267efd068a10 ; CHARGE = 0; SPIN = 1
O -1.758612180109014 0.37027510350736925 -0.5305872794189467
C -0.7197751052153314 -0.2191608969554697 -1.1688183928296234
H -0.5482701767898368 0.06403445867607017 -2.203806085356508
H -0.7099009386481342 -1.2936982657357095 -1.0248561814353137
H -1.7806007258199748 1.323242677551705 -0.7315042898391902
H -3.1225655658115063 0.11911307731102218 -0.8419802565149307
O 1.4927572106351281 0.6812230659274933 0.2972407492743718
C 1.5776552374117145 -0.1864134538769379 1.397531835968665
H 1.8196557706954473 -1.2085762947678071 1.084527872076207
H 0.6423093002730075 -0.20345579627762903 1.967777890889487
H 2.3767559589909495 0.18289798017313502 2.0404516316860493
H 0.7305912143875629 0.37051834446675885 -0.28597749450027826
