13
## STRUCTURE-ID: 64568931bc6121473b4d91e0 ; CHARGE = -1; SPIN = 1
I 0.8697373388342624 2.4146587313933137 -1.418813915421264
O -2.6960397468865853 1.4111181541469504 1.2742225725769147
C -0.9636849285895778 -0.44946856434434035 0.13847269993808156
H -1.6155947883290958 -1.1757179177677255 0.621257064345797
H -1.5616972635554676 0.05934188869824964 -0.62583703809251
H -2.964189089219673 2.2653011323694714 1.6204091088684875
Rh 1.1242169618795392 -0.12833254063354893 -0.7179265743936709
I 2.0184908621719693 0.26356117595529327 2.186288437814798
I -0.7234296353412616 1.0289865739967978 1.649302619605932
O -0.16726665943126506 -2.8497902418546617 -0.4957364255056699
C 0.2807215201178926 -1.7628366561582844 -0.4877651071279231
O 3.6966037563620184 -0.6215871701588709 -2.153723076775067
C 2.7021316719872437 -0.45523456564267156 -1.5901503658338971
