12
## STRUCTURE-ID: 6456685ba33d23141c4ed2be ; CHARGE = 0; SPIN = 1
O -1.5074208257683692 -0.29175626358983187 0.38524096797547475
C -1.1885719832993207 -0.4840328696667602 1.7464105143844615
H -2.0368576934424367 -0.242456009032884 2.3931407054310365
H -0.3658097646319242 0.19161075349049253 1.9743840507302042
H -0.865268296187216 -1.511354118547345 1.9396467169617975
H -2.252907145658647 -0.8599253983868299 0.15658751908638774
O 2.0231475255748026 -0.3094941807875118 -1.6373265468198481
C 1.316646802897237 0.8614501775591422 -1.2800889719231612
H 1.9820107166470167 1.4459720882528984 -0.6467707961815047
H 0.40453671818531656 0.6267483276423965 -0.7259443680777586
H 1.059446557059766 1.4535434653088637 -2.1642354119573803
H 1.4310473886237827 -0.8803059722426286 -2.1410443796097
