13
## STRUCTURE-ID: 64566df302d5656b4c351d64 ; CHARGE = 0; SPIN = 1
I -1.8806838020279093 0.26830689639549604 0.918300171798507
C -2.3622523563105293 -0.5226149459025996 -1.0287108435911183
H -2.142125223009889 0.2430927758916493 -1.762561016507113
H -3.4165574649225823 -0.7693242245508214 -1.0269438131271156
H -1.7544765209839028 -1.4052404767905882 -1.1879456244923183
H 1.446587450098161 3.1578412149191326 2.3341542713602164
Rh 1.2789030133147021 0.18533819406318067 0.5589293988464197
I 1.4678751909523193 2.895498630736637 0.7695954345797457
I 1.7756860745752006 -0.16318703965862816 3.127782984702864
O 1.7815725833671985 -2.7575803310176306 0.5095185715706667
C 1.5843419161217147 -1.6314943820521306 0.4942297381116964
O 1.067077094764416 0.24086662293044414 -2.4240069988829296
C 1.1540520440611568 0.2584970650358216 -1.2823422743695063
