12
## STRUCTURE-ID: 645664bc6da7af12e27b925b ; CHARGE = 0; SPIN = 1
O -0.28945806882322517 0.19467302905918407 -0.4812782826593532
C -1.245389150195338 -0.3875315950159588 0.3804465568810024
H -2.103266347718055 0.2784819264178532 0.5190987826163401
H -0.8070149754145596 -0.6105227487459601 1.3593313690352498
H -1.5757062313855856 -1.3081369513257721 -0.09517923780102389
H 1.2573440079724172 -0.9521178714371499 -0.7174878722879497
O 2.0235182207329214 -1.5424166119098404 -0.6474550502869555
C 0.17201616056063757 1.4465784226599496 -0.020131151460965984
H 0.689631310864909 1.3438440752360794 0.9396658812979058
H 0.8657776681713001 1.8200039846672824 -0.7697662087630006
H -0.6597180285974406 2.1493450269205914 0.09535354636982232
H 1.6722654338320246 -2.432200686526259 -0.5625983329410779
