12
## STRUCTURE-ID: 645666fd7765062bf256ede8 ; CHARGE = 0; SPIN = 1
O -1.5144270951006535 0.7638819686287965 -0.1494299439991816
C -1.929647052079042 -0.0024442473011949207 0.9608375348386698
H -1.5110619840917976 0.47533220218454475 1.8449378458524541
H -1.553443999519711 -1.0281870529831372 0.8994152808549474
H -3.0195423647728714 -0.02108955849691948 1.0494674233417765
H -1.9044280673565386 0.3883208054596781 -0.9479788115494026
O 2.0657422379073433 -0.6247922112546088 -1.543629881339145
C 1.8663669573783745 -0.10219150473039779 -0.24578107004795874
H 1.858783510112844 -0.9529584226165381 0.43358104738119263
H 0.9131258508893894 0.42770582663358236 -0.16800061161921306
H 2.6798926393888127 0.5716498688068513 0.04078451631473662
H 2.0486393672438608 0.10477232566933722 -2.1742033300288797
