12
## STRUCTURE-ID: 6456670ad113a91f256cdb4b ; CHARGE = 0; SPIN = 1
O -0.9454865083174592 -0.47286573528819376 -2.5380779365565482
C -0.8194000312178299 0.2722984867301496 1.146100230465877
H -1.7690690352121232 0.6650344157493989 0.7905988941245236
H -0.452005405080192 0.8899104692587272 1.9726964185805542
H -0.9557218219513559 -0.7551118908121197 1.5012200916134701
H -0.9728014685692759 0.3600038974703863 -3.015604993761938
O 0.07326652817064248 0.3141893813925827 0.05354895588221569
C 1.3608148507853328 -0.16264874709897023 0.3809215550761403
H 1.3202892197373575 -1.2082119448843982 0.70576547817992
H 1.808799452785714 0.44150838701012723 1.1772192076957442
H 1.9632178599210792 -0.08355734192590143 -0.5210175221321648
H -0.611903641051866 -0.2605493776017944 -1.6533703791677774
