12
## STRUCTURE-ID: 645664b6acda723a833288bb ; CHARGE = 0; SPIN = 1
O 0.04417488809991976 -0.04053105252717696 -0.28648393567934427
C -1.217616881861208 -0.5485915412431691 -0.6625592853452852
H -1.1172600417180862 -1.6299707309619764 -0.7187459083221623
H -1.5199409552230223 -0.15696051954184148 -1.6398664956526947
H -1.9809115866285425 -0.2861418340527212 0.07837630200431382
H 1.338466932903662 -0.7760083632551001 0.9576577729071061
O 2.0115422058187784 -1.0993108586734268 1.5738233806827557
C 0.0585061161862585 1.3670404744866067 -0.18496764745915395
H 1.0621183164393488 1.6480905988144896 0.12545812055022476
H -0.173860177565898 1.8297335881173218 -1.1501737071846116
H -0.6658316763683928 1.7128066103017399 0.5607827599410974
H 2.1606128599171828 -2.0201563714647417 1.3466986435577561
