12
## STRUCTURE-ID: 64566b4d2eec416f68224140 ; CHARGE = 0; SPIN = 1
O -1.0937202581104537 0.31544204804509773 -0.5267352925078064
C -1.1152672559093908 0.6965163159535421 0.8387266880901885
H -1.3937124616905752 -0.13890653957890467 1.4841903211919416
H -1.8518422592969581 1.4935525479206957 0.9282693351514415
H -0.12528798245712738 1.0538700639545444 1.1300654005470172
H -1.2938612649453938 -0.7578395820624813 -0.8448590071003079
O 2.309633150143331 0.37663183522686516 0.29211825069851294
C 0.026919278900877308 -0.7769011842629046 -0.7781770837687453
H 0.1775643297454462 -0.8811447892324553 -1.8425076999706658
H 1.4781773243533478 -0.06444939597043899 -0.12761058911246645
H -0.101795100700858 -1.665642613657201 -0.16505740323259047
H 2.9831924999677595 0.3488712936636686 -0.3884229199865903
