13
## STRUCTURE-ID: 64566c7c46ece52801293414 ; CHARGE = -1; SPIN = 1
O 0.04847967160536415 1.9737841749249478 -0.2209195230109713
C -2.3076570374415515 -1.0327097306318027 0.8048990849803309
H -2.8939312950305665 -1.8522668648807792 1.2010003882158344
H -2.9286699002920096 -0.32642490028980725 0.2674465728238797
H -1.7433387631382014 -0.5384299315172989 1.5878780875497687
H -0.2598337025932022 2.609680845827266 0.45575696255217335
Rh 1.2835625540919218 -0.464941288652505 -0.9034249601991802
I -0.8631288393398409 -1.8541383134516787 -0.5867116295992497
I 2.1562189023585963 -2.3754001554569903 -2.512477085372677
O 3.540764279586806 1.4792804883034512 -1.0098177455104855
C 2.689536050296373 0.6864472853521965 -1.019076930127141
O 0.6534538082817014 0.8152275215411935 1.58248781019514
C 0.6245442716146126 0.8798908689318039 0.3529589675025742
