12
## STRUCTURE-ID: 64566b6b1df8f4543d64e48e ; CHARGE = 0; SPIN = 1
O -2.3950917811572716 0.4793895145589338 -0.8830945822076769
C -1.2271548251885995 0.31045619120817314 -0.1024920963838808
H -0.9951782367114987 1.3045975003085348 0.287127568273652
H 0.8307931217786024 -0.2814927007152663 -0.26184027615398603
H -1.4401106791596432 -0.35102586765249594 0.7496299756297237
H -2.602592326207412 -0.3631637389407797 -1.306555720298549
O 2.4968016148772154 -0.11645236799640624 1.4805540806834043
C -0.04770244522340492 -0.23341585792936026 -0.8987080314602096
H 0.16315960302201596 0.4152929346537486 -1.7453639999859942
H -0.2639476719649806 -1.2333549760394078 -1.2696316934327547
H 2.843227511720088 0.7508240412100198 1.7058109607714795
H 2.637796114214889 -0.6816546726656919 2.2445638145647773
