21
## STRUCTURE-ID: 6456767bab56dc08c96c2b57 ; CHARGE = -1; SPIN = 1
H -0.5893558398719771 -0.6325074106696054 4.3720651672614235
I -1.2759266637678048 -1.908034461083935 -3.219229117315906
O -1.3484066609678018 -0.592559080996793 3.7838963246115154
C -1.1807433137950096 1.3018775685878632 0.962718868956887
H -2.0203205154596033 1.989065194787903 1.0475597637670653
H -1.2908899041391444 0.746604438593761 0.03017887056869151
H -1.2200900579784721 0.5985046501199784 1.7913798795369478
H -1.7726414464237372 -1.4535743786006152 3.8180327110108374
O 0.07874984485233864 -1.8416880859992977 0.016644234201651693
C 0.10068300340584845 2.097042732080754 0.9802798981617169
H 0.278680189235105 2.565334335463802 1.9445964746183866
H 0.5333817407722625 -2.6045296356603598 0.39243949601232136
H 0.13798414520557276 2.836395610262105 0.18228035649222774
H -0.723377131814018 -2.177096813666393 -0.40354115888548603
Rh 1.5194983147172565 -0.3631142107693972 -1.7705928104285333
I 3.457958108669074 -2.0757492988889124 -1.272160654066977
I 1.8433731717026007 0.8098293249956161 0.6302329326737242
O -0.34010672393453 1.7497916872883243 -2.767773468606063
C 0.354244990001962 0.9370177685864328 -2.3333032048591043
O 1.8265374731104338 -1.1125276731341405 -4.647612399959596
C 1.6307672764797327 -0.8700822612970841 -3.5380921637517555
