13
## STRUCTURE-ID: 64566cafe0b2726da37cab88 ; CHARGE = -1; SPIN = 1
O -0.9717188001230914 0.8696741977699641 -0.05189706087266953
C -2.1410739564974866 0.14671795372054197 -0.4047668055821514
H -2.575039408143494 -0.3546266483001965 0.4651450412884394
H -1.8420323824977738 -0.6065756890008674 -1.1333426166124563
H -2.8788010060454488 0.8143309214908213 -0.8559994785705244
H -1.2295745496972947 1.5635628446173062 0.5721906967734164
Rh 1.4173711382831384 -0.2627873724547162 0.5931886506133353
I 1.6546530425197017 1.6055890073204904 2.421880875752713
I 0.1629829989993375 -1.9466850683509387 2.172221090980168
O 1.392228996173756 -2.428617067889138 -1.4567997911297248
C 1.3970358011109332 -1.5868632283048372 -0.6668069785694616
O 3.151542738548307 1.4091260125946887 -1.1658473552894324
C 2.4624253873693953 0.7771541367868886 -0.4891662687816512
