12
## STRUCTURE-ID: 645664add6e0ca1b701aaa18 ; CHARGE = 0; SPIN = 1
O -1.1164517476601516 0.5859412373276272 0.26991035024342885
C -2.0702626001699467 -0.10423974371972644 -0.512505113006386
H -2.336622774471641 0.463906562533347 -1.4077306027637249
H -2.973139061741793 -0.3193566440584066 0.06469072281367995
H -1.6099143556200628 -1.0433662652777655 -0.8132970967929701
H -1.4947696284020424 1.42634652449402 0.5560585460587394
O 1.6097377010097558 0.423701333867854 -0.5429017666737782
C 2.202831344890643 -0.3379050366571632 0.48221604027849696
H 2.1087205340203194 0.1572962665071018 1.4538937281037707
H 3.2592589824835794 -0.436895990381105 0.23492980557350887
H 1.7575133257912097 -1.3359121148108428 0.5484873597431081
H 0.6630982798701367 0.5204838701750583 -0.33375197357787656
