12
## STRUCTURE-ID: 64566b8d470ead5b91224146 ; CHARGE = 0; SPIN = 1
O -1.7348991974170738 0.818778678980648 -0.6862331799308731
C -1.4982102551308913 0.37445063872867945 0.5139150020231733
H -0.5154859583480618 -0.3937649796781044 0.31461521235177575
H -2.2368488007951566 -0.3183829405130171 0.9256160482832175
H -1.0860925120850125 1.1007076539433858 1.2212048907320836
H -0.1633516025203576 -0.31342533105803466 -1.4884691864381918
O 0.5417454376278734 -0.9916436335967833 -0.24853070401939173
C 1.6546531354802354 -0.27261782198906864 0.18495136740936494
H 1.559080791638208 0.029062786762694574 1.2334912756624072
H 1.847142295553179 0.6155374331313782 -0.42391444095203973
H 2.5049617374283106 -0.9522852054839566 0.08212187615438064
H -0.8726950714313105 0.30358272077214227 -1.628768161275795
