13
## STRUCTURE-ID: 645673f92e9aef5a28462270 ; CHARGE = -1; SPIN = 1
I -1.9140468400399537 1.1205973713742232 -0.9226576969072059
C -1.6387052792858567 -0.7933676276722402 0.7534853706976314
H -1.0705369419390023 -0.5952876574688756 1.659535011219174
H -1.4426105574581303 -1.7614093039972896 0.30181471943126414
H -2.6936698234064074 -0.6753472665185909 0.9493796476176628
O 0.7573206843776272 1.1069560331460453 1.3507271163615522
Rh 0.5068066976605721 0.04826282486090886 -0.4025990763410486
I 1.86863137439257 -1.9888908112893067 0.8377178134326702
I 0.13930339077280063 2.922258342666565 1.7603898597798955
O 2.7687956712397606 1.9938271003227004 -0.60258617100886
C 1.91018242062617 1.333345298901205 -0.9821307810474812
O 0.3931166557699365 -1.6946978507339157 -2.8140553536157293
C 0.4154125472899446 -1.0162464535914235 -1.889020459619517
