10
## STRUCTURE-ID: 64568dda4275b6608f333be3 ; CHARGE = -2; SPIN = 1
O -1.6514094721624448 -0.47391299464273007 1.2886670407704075
H -1.9884064616610575 0.24626055258497467 1.8493454278533268
O 1.122768268276096 2.094774356653933 -1.4609097208633242
Rh 0.36400632576142616 0.47467818167239484 -0.8217650461852556
I -1.8583935433577525 0.18548424065721913 -2.234643799315819
I 2.7980207575573046 0.7170543675268662 -1.8314054469279686
O 0.32028217064304637 0.5570685093487782 1.7754968345834115
C -0.30395025603521164 -0.30403571614189956 1.0850850628401707
O 0.8486561881587293 -2.307418182082751 0.23422897810147295
C 0.3484260228198633 -1.189953315576788 0.11590066914357416
