15
## STRUCTURE-ID: 6456b6f3370d2060322c50c3 ; CHARGE = -1; SPIN = 1
C -0.8684156357489581 0.33265728528789673 1.4709714210389093
O -1.2804488470122382 -0.13312587483818702 2.4937842285198624
I 0.36243000503968503 -2.0689646377593287 0.24467750313609876
C -1.6477225865930194 -1.9926953121603572 -0.03513918728139754
H -2.2561801691024246 -2.2439343637849807 0.813619649988925
H -1.9967766830084828 -2.2194485835613356 -1.0244334857763988
O 0.7014442367566178 -0.013181795340530777 -2.054942108594548
H 0.7771590138072019 0.2540416761718481 -2.9975533748985534
Rh 1.0188264500941975 0.5913098500399471 0.7645305448054561
I 1.626398424536857 1.9836089850886236 2.981175817670291
I 3.5637950925200963 -0.14493124210032812 0.26966766696417976
O 1.3533283366975215 2.0587787622740845 -1.4944772757669513
C 1.0349246495079465 0.9296504094332974 -1.2065264842503765
O -1.5119667233363554 1.6383106145473667 -0.5288160532742786
C -0.8767955641586346 1.0279242267019815 0.30346113771876654
