16
## STRUCTURE-ID: 64568d3cbba283220a0876e4 ; CHARGE = -1; SPIN = 1
H 0.7326615444712911 -0.9242198137595492 2.8375661819745135
I -0.26183503698611504 0.534299180524323 -1.9391033750754312
O -0.34882702638720353 1.1320327642232175 1.2230337802004978
C -2.2911008489027833 -0.025225893065850467 -1.4215829055841875
H -2.280573003227938 -1.084108217768551 -1.1843553172981653
H -2.9120302235373914 0.18888430458803168 -2.284492311788295
H -2.5684425353979883 0.568564550570408 -0.5580616147234488
H -0.2742730684044225 2.0901610180656887 1.2564446271827368
O 1.8978824285211027 2.4436100312234226 0.054471534449170404
H 2.672418589637085 2.574766871711448 -0.4983987603067729
Rh 1.230648869028794 0.45313989119042947 0.1522244755550808
I 3.3706665584152002 -0.47818906464056776 -1.1102712030246855
O 1.3849416366746479 -1.1414651923169719 2.1524262293333276
C 0.755867130848247 -1.4024547759203538 0.9529623222663782
O -0.925399238177203 -2.784296567478093 -0.15998789652525286
C -0.18260577657532343 -2.145499087147044 0.52712423336453
