17
## STRUCTURE-ID: 64568b3b5b25ab53bb64e47a ; CHARGE = 0; SPIN = 1
C -1.5181812026497923 0.7718720121094614 1.3980670506392272
H -1.7476988186628402 0.5897108655709563 2.450131808434575
H -2.2560952611287215 1.4673636779574148 0.9991230705764189
H -1.5584271486669377 -0.18168430373499225 0.8668564014130152
O 2.229586110197985 -2.0439544506178366 -0.09837860707016424
C -0.5218562335189583 0.3228769413366645 -2.523704409175069
H -0.7610762333666093 -0.5454741016644195 -1.9177466247025905
H -0.3234183806977326 0.04795567557117384 -3.5530481832153136
H -1.2944104373518233 1.0801910332857607 -2.4597790754103106
H 2.176577003858885 -2.961878025643641 -0.43504451844458136
Rh 1.3388581011148109 0.31178852038709437 0.7801313839923617
I 1.3112349493355766 1.1885397485415756 -1.722467939744691
I 1.8700614728926124 -0.5045602049998669 3.1678576545283907
O 0.19664993842504438 2.5008415332584613 1.5986953437387428
C -0.17640811078039134 1.396103320260851 1.3409843348509138
O -0.030951177145216776 -1.9498939597577072 -0.03934943581696027
C 1.0655554281440862 -1.4897982818611049 0.1476717454057167
