8
## STRUCTURE-ID: 645663ccd0a2da45d22cdf85 ; CHARGE = 0; SPIN = 1
H 0.09670535803623306 -1.0206733488310291 -1.1236696748460677
I -3.164831701549203 0.8279667094780381 0.054825483269755004
O 0.012357179842705034 -0.1609029506414817 -0.6917336277050198
C 0.9954932026410636 -0.05161973198342725 0.3212297494282666
H 0.8975274717480137 0.9438832991206377 0.7501636116185497
H 1.9988307669673189 -0.16231324208836834 -0.09461678420100036
H 0.8399265409573277 -0.7970316878058423 1.1055807773412718
H -1.6760088186434636 0.4206909527514695 -0.3217795349057498
