12
## STRUCTURE-ID: 64566b6b758d4866a7068a19 ; CHARGE = 0; SPIN = 1
O -1.665169814216693 -0.29477407043784315 0.08379264991762403
C -0.5824602448453522 -1.0263364583345165 0.18570515690841016
H -1.4411858660452426 2.5636434343840335 2.0823297514173467
H -0.8145300031784996 2.895998575156767 1.7643109437744933
H -0.3979640079759235 -1.357678336793856 1.1995719229858695
H -1.815297066670197 0.029066961050347846 -0.8224256495885217
O 1.2682636666639577 0.13829935450451047 -0.5447863273790328
C 0.3532661054014055 -1.2321130604934092 -0.830841580623932
H 0.050044457367816146 -1.0452298532677207 -1.8532520845749707
H 1.7194067178152512 -0.025128916450884765 0.2929468740252973
H 1.0566811703703796 -2.043568173611928 -0.7157564678369379
H 2.268944885313095 1.397820544294497 -0.8415951890256469
