12
## STRUCTURE-ID: 64566a4b14b95e60107cab8b ; CHARGE = 0; SPIN = 1
O -1.7847760871179668 -0.09041928657915582 -0.2296905423890614
C -0.398914358206193 0.10063093683043701 -0.84606083670841
H -0.5198985738538642 0.15274171752306542 -1.930771635884091
H -2.385636893442464 0.6671891489172501 -0.4201270964112351
H -0.04036799567533295 1.0430831568656769 -0.417505035448379
H -2.1674887625304304 -0.9497998257512484 -0.5349530860568766
O 0.3447656700502168 -0.9754706276261427 -0.5468121266655639
C 0.9426286780190946 -0.9900960577981324 0.7485209720874596
H 0.1838289799891838 -1.046049788326089 1.530035252186375
H 1.558741526847927 -0.10082057904515866 0.9006613744842696
H 1.5704554480585715 -1.8758525204531653 0.7794787049831496
H 2.696662367861263 4.064863725442656 0.9672240558223514
