15
## STRUCTURE-ID: 64568e5617a186182c7cab74 ; CHARGE = 0; SPIN = 1
H -3.2600854949942906 -1.5458128895934207 0.8526258812603603
I -0.47753488486894574 -0.5325144450914797 -1.6285945401833706
O -2.3814020790649657 -1.145426502718809 0.6395515137722467
C -2.4144767749294873 -0.3142864337265199 -0.5147410356527234
H -3.170460789829494 -0.668272623624676 -1.218684397903858
H -2.505646106014439 0.7447253928375055 -0.2632246949369984
H -1.9768845273722693 -0.6728018657195213 1.4180735917964962
O 2.2737632073828586 -1.2624290999942063 0.8584324724684753
Rh 1.796918018939519 0.6407926809229688 0.0935656970908926
I 0.006769217635577017 1.0923302226677278 1.9228138308133653
I 0.8863937362470454 -2.5486957697166606 1.3249370525257178
O 1.8025055647173631 3.4789300991003675 -0.8073242791968471
C 1.7258652246139867 2.3759117507239647 -0.47716031629417793
O 4.348637242448743 0.03387026863560276 -1.345341050255876
C 3.345638445088772 0.32367921529717736 -0.8549297253037211
