13
## STRUCTURE-ID: 64568c7facdf395f0a4975b0 ; CHARGE = -1; SPIN = 1
I -2.2300815657320294 0.5799178023783277 -1.3350065604450043
C -0.7837882628144353 0.08757764069433711 1.7776431662889927
H -1.7888653592649186 0.4819983301421886 1.9287413882482638
H -0.16783626926434758 0.2760996773591345 2.6572370189171104
H -0.8660469182007597 -1.0070891903321162 1.6526452256953585
O 1.002698913933279 0.07533624721158201 -2.213357024684096
Rh 0.11263927966338888 0.2691588578932246 -0.17099950027349184
I 2.539131727459425 -0.04576182211626077 0.8046777230280423
I 1.470774950931194 -2.1909486494887624 -3.9376552889248666
O 0.3392342997444476 -1.8203243724347786 -1.2882789802961936
C 0.8256306814770371 -1.1397435844931525 -2.1771961312818684
O -0.2807676022003377 2.7235634459066005 1.417652168942979
C -0.17272387573188863 1.7102156172796645 0.8838967947849008
