12
## STRUCTURE-ID: 64566b4d26501610eb5b5c28 ; CHARGE = 0; SPIN = 1
O -0.2855220400904503 -0.14264061950461662 -0.15568236671017424
C -1.6324130920010382 -0.07688440893898502 0.369452953798506
H -1.64632017752809 -0.18340747160049461 1.4539414578739418
H -2.204013846468206 -0.8755749119222564 -0.09861039358390115
H -2.05173494567024 0.8843173099962046 0.07794182038622516
H 0.12227611653388107 -1.016247241857933 0.046542662032966545
O 1.910270495639211 0.5407864881964852 0.18630369919558823
C 0.6331043242634994 0.9365188765419461 0.35994851646901593
H 0.33355885413930036 1.83008471791278 -0.1984463806463141
H 0.44915160213844146 1.04828573079183 1.4343073973761178
H 2.2161876669282714 0.6225523404842058 -0.7283677059189964
H 2.155455042115426 -3.5677908100991638 -2.7473316602729714
