13
## STRUCTURE-ID: 64568c791f258d011415986a ; CHARGE = -1; SPIN = 1
I 0.11696578444492935 2.062457487245098 -2.7789970391321326
C -1.3944429712222253 -0.7010198423278399 0.9206144614070196
H -1.4870374479859914 -1.7259426542539413 0.559847566804105
H -2.1669062041288254 -0.07418260076998863 0.46797553103093004
H -1.473891731434304 -0.6806191636194999 2.010361763004812
O 0.7999608223442961 1.2080465923149077 2.335106595862927
Rh 0.4576362990897433 0.09351793623908494 0.4288010299470645
I 1.7366050370228754 -2.091875619739324 0.992613723204297
I -0.2092110895016716 2.484268888354636 1.3198906161377901
O 2.3014879518964815 0.8396128465194348 -1.1520460925087184
C 1.2181517796045083 0.5355368744523143 -1.6232282549503714
O -0.22908080489937588 -1.379008847224916 -2.0822401428984048
C 0.32976257476954346 -0.5707918971899791 -1.3986997579093028
