15
## STRUCTURE-ID: 6456798a133c134fc85a852b ; CHARGE = 0; SPIN = 1
H -4.120631991083609 -0.4064830414185984 -0.8716020764337257
I -0.9869270491110773 -0.126409363432415 -0.8319440401598753
O -4.01239334119724 -0.47979787881994135 0.10766803121297876
C -2.981348937601099 0.40300141563660014 0.5529974889255098
H -3.1955401658727824 1.4557123989945595 0.3540235227095951
H -2.7254973192865144 0.15956711289764686 1.5862222654701355
H -4.8548440773805845 -0.3143178365473228 0.6079703563757062
O 2.625635310817385 -1.2005314156134022 -3.5594620493770925
Rh 2.8265106427605255 0.08565148277988523 -0.13411973337562105
I 4.648488027090809 1.0585585622392732 -1.7748755492030988
I 1.4693664627608944 -0.6280476473184795 -2.1990414820136546
O 1.054738866540507 -1.2173768533387266 1.8770363086683572
C 1.6860501758237298 -0.6854461010721781 1.0856517959955523
O 4.6502461561091355 1.1595018588818595 1.9853476668992718
C 3.9161472396294146 0.7364173061307628 1.2141274943061386
