19
## STRUCTURE-ID: 64567ad8d445f4162475cc1a ; CHARGE = 0; SPIN = 1
H -2.017908595427875 -0.4641828816460071 0.2630313694314687
I -1.792546857325184 0.38675373475680935 -1.0479024927129348
C -3.0682101029574174 1.9475861565827008 0.1407441793107272
H -3.3015506331028073 2.728298883235449 -0.583293688022622
H -3.978424532034833 1.4277677199748495 0.43843698521168356
H -2.352303988022959 1.7740563679033086 2.212449918550377
O 1.8684891132593109 -3.546070891083252 0.3877532413908509
C -2.2369515171626166 2.4676535080204958 1.3356606417794337
H -1.546785870070266 3.280847726404241 0.9692390384342269
H -2.836706835925874 3.244598857908306 1.8687487361079385
H -1.2039840142842273 1.9731660977889913 1.3673109162598769
H 2.500115131018685 -4.21322303336724 0.658379181245641
Rh 2.5218434830010414 -1.8801994043079782 -0.790101050030402
I 1.3840101454089095 -0.12297473285438079 0.9065184048248756
I 0.138933111352468 -1.9367304391012694 -2.0662482072985
O 3.7548731319004167 0.14667624562691228 -2.574961427706713
C 3.209339488387631 -0.5914770282200882 -1.8519344117383036
O 4.900621700741949 -3.7165594525915173 -0.7766543423309622
C 4.057147641243527 -2.9059874350302786 -0.8571769927065715
