15
## STRUCTURE-ID: 6456b660fb15926e9a3dae5b ; CHARGE = 0; SPIN = 1
C -2.421072199695643 0.3811737540717569 0.17701811611312998
O -1.7816642785377579 1.138100854500451 0.7281693148378952
Rh 0.6869869652721139 1.7840770520323899 0.970850064130167
I 0.9627727904018087 1.3117191565314175 -1.5867790298263342
I 1.2140229395348996 -0.6931943557229002 1.6685387754195087
O 0.6389955666697119 2.5255147521315635 3.864411916048842
C 0.6335534449620446 2.2284202454306943 2.7533242985164916
O 0.48324691630303346 4.662125002203419 0.2024836981169211
C 0.5312050780620308 3.5541948484368704 0.5057727177913411
H -2.1670080102436073 -2.1877329170916235 -1.8440508408889036
I -1.095440454616987 -1.8393957599388082 -0.6906459277137584
C 0.40634562371438365 -3.084827372294043 -1.596875152191389
H -0.03315398736260363 -4.0612089876190876 -1.772728057960479
H 0.7262655943515336 -2.5836126931682744 -2.5056005146031963
H 1.2149440111850371 -3.135353579503813 -0.8738893777902482
