18
## STRUCTURE-ID: 64566fed640a5f3da53ae5ee ; CHARGE = -1; SPIN = 1
I -2.246820858292435 1.1710019659398798 1.0690223313248932
C -1.7682984127820462 -0.8969761012675617 -2.6031879884903137
H -0.7532276768049161 -0.532450343460208 -2.7074162618742306
H -2.4592970142459207 -0.09134774550288673 -2.8117527431247225
H -1.9313119489784132 -1.7111076793952928 -3.295703146608146
O 2.305626297897041 -0.9641341074145162 2.689377807455811
C -0.04168461386177979 -2.101827592442519 0.5212087031490927
H -1.9251505217592397 -1.241614564801567 -1.5889926241061936
H -0.44452340635626614 -3.0324877793801135 0.8648963113867159
H 0.4283043822147511 -2.0395107912680226 -0.44090910512935405
H 2.308741934421394 -1.551056717096322 3.4480087707479368
Rh 0.6296022077094688 1.6853459735566807 0.9649426474479657
I 0.8014599612800168 2.4104220822023374 3.530809314517795
I 0.3443217374474619 -0.7246150003468712 1.87869838810812
O 1.464451865915332 0.5804676025029437 -1.6874066040560627
C 1.1340765668019865 1.051085775242041 -0.690082838497266
O 1.179991004681483 4.549804559550132 0.32543035868414705
C 0.9737384947120632 3.4390004633818414 0.5330566790638857
