20
## STRUCTURE-ID: 645679739eb8e93ba7068a18 ; CHARGE = 0; SPIN = 1
H -1.5287139197303765 -2.5112080547675113 -0.7400887386623547
I -4.189252766443295 0.20302646046904266 -0.10618856976145763
O -2.2308520257221818 -1.9834206253735185 -0.29037180581834504
C -3.0064477342366174 -1.2179889276609248 -1.2337630272393927
H -2.3279068994402516 -0.6361472803903077 -1.8573435629995683
H -3.691725315624398 -1.8355636693109165 -1.8122666173860977
H -2.8087435299050125 -2.5582490339183637 0.26987233978445546
O 1.6545805961265487 2.3006836391915373 1.162355209991073
C -0.46499134416481 0.02597751035250085 1.9110841583756661
H -1.3510323581262853 0.1505118671798754 1.3014490769145055
H 0.043969872655566664 0.9772597275482533 2.0253431992156345
H -0.6770176122150068 -0.4288753438248564 2.869226402508391
H 2.3123688845417267 2.7251546281893817 1.714644800032493
Rh 2.2712934462717906 1.1950380021269693 -0.48909881336390504
I -0.08128385063325622 1.4753082385929275 -1.5801973321333551
I 0.9047849556022515 -1.2678403461116905 0.8491478053239372
O 4.946843796550992 1.5950987698763466 0.7721173292745837
C 3.9453448412256944 1.3581792284429477 0.24223775473734668
O 3.380923053184587 0.022361186327479098 -2.9930473216532265
C 2.8978579100823354 0.4106940230608042 -2.0151122871404623
