12
## STRUCTURE-ID: 645668e21222c77a42230d78 ; CHARGE = 0; SPIN = 1
O -1.6926978086919633 -0.05150787681444933 -1.5444794815087965
C -0.44982750944142424 -0.03929614078934371 1.2601813890963385
H -0.4320362824792946 0.9864461429077747 1.622523751939071
H -0.6308939928827549 -0.7428886749393936 2.0679899591884983
H -1.226453737085941 -0.13061707294904304 0.48837836502126125
H -1.8121205261729056 -0.8102530355721629 -2.126198997975232
O 0.7966008745073881 -0.4053790945443188 0.6252097670748574
C 0.9695794243017759 0.23769652384793105 -0.6621640906187889
H 1.7499190743977964 -0.2941586057175432 -1.195646060921119
H 1.2041415924807182 1.2933604078793288 -0.5571544423758749
H -0.023958115604538727 0.13226459994564166 -1.196977869433706
H 1.5477470066711572 -0.1756671732544338 1.2183377105134339
