12
## STRUCTURE-ID: 64566547915f2751917cab80 ; CHARGE = 0; SPIN = 1
O -0.9800255769809498 0.8965233556679638 -1.3389405614844636
C -1.2856952161931485 -0.5295533332020909 0.017494025572575237
H -2.3006240427511724 -0.22322195350181362 -0.1965785482265712
H -0.9483575935838201 -0.26649125722702655 1.0051396155395047
H -1.0827125435649814 -1.5407326624488238 -0.28637541522022025
H -1.0520624026284373 1.7225730352737043 -0.8458685948039565
O 0.7682049383477615 -0.4400700034522187 -0.47287064643620114
C 1.5475060969356045 -0.09888476507279355 0.6009456588671374
H 1.3442106990856626 -0.7471588560275642 1.469897630347028
H 1.4121147312941833 0.9503645757712489 0.9164386267980742
H 2.609031258022008 -0.23093441005530418 0.34234712207968254
H -0.03159034798271233 0.5075862742747024 -1.211628913032585
