12
## STRUCTURE-ID: 645666826386696307230d73 ; CHARGE = 0; SPIN = 1
O -1.1107947338800195 0.0020932563156109032 -2.213715153787984
C -1.521828525255459 -0.023444239964234722 -0.9501655290134554
H -1.9928607364530724 0.8679235711343338 -0.542108400329441
H -0.4086201289283453 -0.05646762147233974 -0.1295956716571193
H -2.000843715929005 -0.9651493527904562 -0.7022713780843052
H -0.8363334155348273 0.8836152917727896 -2.5156855426949156
O 2.524298695837906 0.7135496099756254 1.7574895293933852
C 0.5183642453582589 -0.3153001364514777 0.5535160402474859
H 1.0685333362455078 0.5885061220072728 0.8249406725122704
H 0.12090008365467016 -0.8159973335161883 1.4284883215846844
H 1.147287569754117 -0.9920015343672306 -0.012933031598963968
H 2.4918973251302665 0.11267236735631286 2.502040143428297
