18
## STRUCTURE-ID: 64568ba7673f192e05671000 ; CHARGE = -1; SPIN = 1
I -2.5348139900166275 -1.6176345716674432 -2.985298069330679
C -2.3083613765570483 0.01962075493391212 0.24718391289005814
H -2.4541672917576163 0.7126874247465198 1.080534025919951
H -2.799485205483854 -0.9261479161353153 0.4874257090166841
H -2.793056589930828 0.45313876901692857 -0.6335208924194766
O 0.03226372882134082 0.36346019749328784 1.8064258143545366
C 3.077065817194222 1.2954285957176723 1.0820608868439048
H 2.2182652720868488 1.3929825552403934 1.7386216108394914
H 3.197808931265007 2.1793035488810917 0.4660761559250024
H 3.979852292133155 1.049903089525524 1.626766566119259
H -0.544315777682165 -0.10444955172466971 2.4182125213267716
Rh -0.2601943183514753 -0.14052859749370955 -0.11894831808839726
I 2.631030254009209 -0.36578636716151486 -0.23798645636685437
I -0.05437059013606619 2.49357480081406 -0.7763246313395135
O 0.251207046801762 -0.7349365104117941 -2.7815940993104262
C -0.6283953237473805 -1.0735026171795612 -2.0397684754448093
O -0.5356670049776191 -3.091655206112282 -0.7462429901054861
C -0.4746658736708706 -1.9054583984830968 -0.6336232708299928
