12
## STRUCTURE-ID: 64568f0653c45732c73dae44 ; CHARGE = 0; SPIN = 1
C -1.2459671244534873 -0.4816577684758498 0.7812558183077392
H -0.9279619606551127 -0.7148178869444728 1.799997821443673
H -1.512129207744623 -1.4140234980212525 0.269757920861817
H -2.138337992825262 0.14325242878930122 0.8376910763821449
O 0.8381212756360811 -1.6708175310170084 -0.9873269581311384
Rh 0.2783245746787859 0.3538272469069512 -0.3726025141764898
I 2.3001742428388865 1.2450978647684408 -1.9893664801631148
I -0.3493366290914568 0.985849971542048 -2.9625594186827713
O 1.8847921387260103 -1.752328090072431 1.0664353486796667
C 1.3065417691361136 -1.5618671419731875 0.08247925763590443
O -0.32689826546682166 2.9359505080269446 0.9835319488427239
C -0.10732282077911721 1.931533896470517 0.49070617899984487
