18
## STRUCTURE-ID: 64568af2e5f8d60dde67f9b4 ; CHARGE = -1; SPIN = 1
I -1.1148180378524506 -2.6745726870346833 -1.1491144363105585
C -2.4537333393277274 -0.14758446671380343 0.8168314257417529
H -3.091851320436855 -1.0062863125362964 0.5984355218386865
H -2.7780735562587795 0.6928147482544204 0.2015713478998964
H -2.587864468955521 0.12055243395471743 1.8686908257587986
O -1.5557186889820633 1.0155726259601257 -1.7702009192872112
C 3.4142647860154116 0.6758193627642688 -0.3433805335904427
H 3.3576442963948807 1.2555442721406502 0.5715219145578277
H 2.881485191985625 1.16689845122569 -1.1500153855945867
H 4.437606959326685 0.4493898769517371 -0.6162215484913166
H -1.39260598174937 1.4802339132047595 -2.614726682051819
Rh -0.4312718020914389 -0.5931974457043108 0.4071363722472504
I 0.2387219540716883 1.6774381200942488 1.6327484328049848
I 2.4062315641882583 -1.2051522935908334 -0.0004663207474630829
O 0.6163591445797959 0.6329486951695242 -1.9319660579890168
C -0.41866628003198575 0.4699417107102472 -1.2884542008944813
O -0.9488575215209406 -2.3428614036566144 2.8095631406301727
C -0.5788528993552198 -1.6674996011938756 1.9580471034775409
