21
## STRUCTURE-ID: 645674fab129f7770822415d ; CHARGE = -1; SPIN = 1
H -3.5199107393182936 1.554726002471846 1.979841684887957
I -3.8559436603695483 2.2278993985579576 -3.0543459314432275
O -2.5886081493875244 1.789377192924001 1.9457484041134985
C 2.1592960213982217 -2.1558269040032583 -0.9987731830369887
H 2.9532064038029184 -2.4593297065110202 -1.6769851300453311
H 1.927734795499684 -2.989361338727909 -0.3401137681157363
H 1.2718512787704608 -1.937776150989385 -1.5943712110279138
H -2.382664520023282 2.247951931692446 2.7710544381379654
O -0.5100672723337396 2.189287043171087 -2.5057881082889746
C 2.5787990744024265 -0.9368308896673879 -0.19001809400592215
H 3.464609357492305 -1.1491393639633718 0.401310588665821
H 1.771759724879642 -0.6469363013535062 0.5000798862319984
H 2.794264357798523 -0.09384198749782088 -0.8449225863084273
H -1.4689575972655853 2.2868608365159133 -2.622969416166983
Rh -0.5815736959398343 0.34520537528418294 0.9393741708207042
I 0.8205504058842609 2.0865571451848255 2.299695994382659
I -0.05586333092808719 2.335551038850001 -0.6224315360930905
O -1.771760096348564 -1.2634238431350187 -1.2725056749149335
C -1.3479469191905966 -0.6910072228711908 -0.3759067111663251
O -0.892270079284385 -1.774164720671537 3.0263133210926583
C -0.7665053595389771 -0.9657775352608603 2.235712862280591
