12
## STRUCTURE-ID: 6456696d2f28d660d25eb020 ; CHARGE = 0; SPIN = 1
O -0.873427905583058 0.1724143387223561 -0.747769183394531
C -1.0867428160829558 0.12011189645087157 0.6964104698769292
H -0.09580682503199983 -0.03571929760326455 1.19428586147478
H -1.7511471420887044 -0.6929241858963975 0.9649073573426815
H -1.5070339070463215 1.0772028215555443 0.9925127714238501
H -1.449699785618011 -0.4894348611960979 -1.178525836356596
O 1.6416884664970073 -0.34915025263599436 1.407867711624002
C 0.501490872932655 -0.030661895884098136 -1.197276644670957
H 1.153619461021598 -0.15086847238798456 -0.2955737482736678
H 0.5845404019942564 -0.9165759317689696 -1.81605573707782
H 0.7912276079611871 0.8573642727850962 -1.7520669130290423
H 2.091291571044341 0.4382415678589363 1.7312838910603754
