13
## STRUCTURE-ID: 64568d3cc0df21601b662c5d ; CHARGE = -1; SPIN = 1
I -2.2135824075883956 3.6108117821655235 2.042014157198604
C -0.9459338773030974 -0.8573786314286727 -0.6167435309860275
H -0.6555086378893122 -1.8318571185874777 -1.0124338561390644
H -1.542377233155235 -0.35246811646118675 -1.381138221024483
H -1.6344712135883828 -1.0307830227492865 0.24142427060159
O 0.27849257122447424 1.2784869418341178 -1.6872333446906205
Rh 0.4368625833177921 0.11049797510646772 0.7410795302616378
I 1.8635059796140203 1.213381111039041 2.6145094460598144
I -0.816421456161979 2.287144624006894 0.050222378773185944
O 1.4302556831433246 -0.6223079749560622 -1.7721758331607051
C 0.613772175872703 0.1357999708529514 -1.2776883472561404
O 1.8776100518583954 -2.465318027310527 1.0798258467782527
C 1.3077957806556944 -1.4760095135117934 0.9783375035839555
