12
## STRUCTURE-ID: 6456673bbfc58c3344230d78 ; CHARGE = 0; SPIN = 1
O -1.466446453393727 0.9136989981057632 0.7002068542398315
C -1.7724203140198767 -0.4370818987039184 0.9522574924225565
H -2.824411679808801 -0.479790626869342 1.2318255108765868
H -1.1695143274664657 -0.8380649508426763 1.7735266862085888
H -1.6193154107015981 -1.0554241943752212 0.061160910282898426
H -0.5212709208831212 0.9688561729372607 0.4678339409299333
O 1.2759257853581356 0.842679810781387 -0.07730262450045028
C 1.5555130069398946 -0.1835074687932224 -1.0089675486772918
H 1.1110577997767932 0.033468006589684574 -1.9844553433408008
H 1.1148686589915777 -1.0963524042256234 -0.6117973290984385
H 2.632004304332385 -0.33154554536420494 -1.1240132070548527
H 1.6840095508748247 1.663064100760099 -0.3802753422885697
