12
## STRUCTURE-ID: 645668fab2e785579e462270 ; CHARGE = 0; SPIN = 1
O -1.4371452245712437 1.1248664975790175 -0.5677952475396831
C -0.8908834232335243 -0.35864988367796996 0.947342989694901
H -1.3692341932227294 0.37805961994115844 1.564335388053244
H -0.2808738205851478 -1.0670821022158476 1.504872844303084
H -1.5423333577611398 -0.8334043882747655 0.23826836944390892
H -1.0828108451866805 1.9754148771680426 -0.3026455974003964
O 0.6928803483596225 0.3199952113694123 0.28624163772270816
C 1.07173146798657 -0.3189736746875055 -0.9262834409336528
H 0.2574314760458008 -0.12748910441479183 -1.623633327359228
H 1.2071199842797682 -1.3928294401991776 -0.7875277311726773
H 1.9893866487102683 0.1384611062071253 -1.2956151418225021
H 1.3847309391784612 0.16163128120530634 0.9624392570102585
