12
## STRUCTURE-ID: 6456697d241b1d52c064e488 ; CHARGE = 0; SPIN = 1
O -1.3809472782269987 0.8531691786899744 0.9175515241463035
C -2.0568443673688597 0.12825065162046845 -0.08211480218665672
H -3.0791081568167766 0.503545298792008 -0.11330870084354856
H -2.0781775466508834 -0.9424406512226623 0.14443673136104357
H -1.5961944370476957 0.27647890139700476 -1.064886999469055
H -0.46982633960530046 0.510371124175047 0.9748115090729023
O 1.2733300943344796 -0.19001452099379446 0.830334964530035
C 1.7752139690788662 -0.31083815276731797 -0.4858732878108808
H 1.9633674165281139 0.670012876193146 -0.9310308188090616
H 1.0115267502109375 -0.8241430191304809 -1.0671300548162321
H 2.693441946821421 -0.9024128747046665 -0.5065802491869442
H 1.944217948742746 0.2280211879512632 1.3837901840120885
