12
## STRUCTURE-ID: 6456b682b28e987e275c71ad ; CHARGE = -1; SPIN = 1
C -1.8141647121138351 0.17765445577307204 1.0498590103177117
O -2.618549021415102 0.5674558916487602 0.28013575686830927
I -1.1077967359465197 -2.171859745048606 0.7563284004685092
O 0.6174502174976934 -0.6284540305985027 -2.1380509187360066
H 0.374395678592908 -0.4479868974701438 -3.0725851230065486
Rh 0.7774610931305407 -0.27656075452487916 0.5336593708002907
I 2.3521438169229825 1.8043759445804055 0.5609065540769993
I 2.8222288371813824 -1.9133641401218862 0.25855072044219274
O -0.5551408442028071 1.1807897182666052 -1.493027438016396
C 0.1492363753236209 0.23371585894275276 -1.2674893291876201
O -0.38119887755350235 0.9227953986065028 2.828759464455505
C -0.6160658274173652 0.5514382999459196 1.7029535315170523
