13
## STRUCTURE-ID: 645689485db2673c746b0e0a ; CHARGE = -1; SPIN = 1
I 2.7133739443791094 -1.372590916825442 -1.8992891700201144
O -3.3946031870995794 0.9619191091185749 0.5859191277943312
C -0.8522218427185015 -0.18669733750529047 -0.8073246043444012
H -1.346894327499849 -1.1440849237953097 -0.916323624460421
H -1.0229193815419577 0.4829768332111671 -1.641096386205147
H -3.890405382635907 1.2826245774905791 1.3415502648550457
Rh 1.1160838218459048 -0.19567217827997552 0.04750455986688309
I 2.8545715896332364 0.36214641265139697 2.071822803178423
I -1.2272068206002391 0.7065556850288899 1.028232049753229
O 0.8063961808897271 -2.9327205077336007 1.240259333652278
C 0.8670039837320248 -1.8849803203371298 0.7898260802974951
O 1.8569827476828629 2.457003002179672 -1.1461805303315362
C 1.5198386739331358 1.4635205647967175 -0.6948999040359576
