12
## STRUCTURE-ID: 64566a2a637a8b177128a819 ; CHARGE = 0; SPIN = 1
O -2.2521587321954475 0.6475007072400198 -0.06132430555082255
C -1.4309747879551422 0.3819278706348556 0.7840897857915344
H 0.32388330585631053 0.09538330459527836 -1.0358316327030284
H -1.49029627164827 -0.5417004903494395 1.378055353613957
H -0.7593480995962588 1.1463356068477821 1.202894839806661
H -4.468387277267721 -0.7236273608926271 -2.2019094498357648
O 0.1284684056262871 -0.46660332769972634 -0.2718426899004728
C 1.309401658140008 -0.6442646590596677 0.4916967355172272
H 2.0877458565899416 -1.1069720532673886 -0.11717511880036888
H 1.0582646664174677 -1.3036265119008745 1.3197356843190748
H 1.6912342832725442 0.3046396309451881 0.8759449518422152
H 3.802166992760281 2.2110072829065004 -2.364334154100184
