15
## STRUCTURE-ID: 64568df0ac9ed80af364e474 ; CHARGE = 0; SPIN = 3
H -3.369297791649672 0.9768858807323922 -1.426334822441786
I -2.1904069326612796 1.7057561714897405 -2.1994112374451307
O -0.07797558903342262 1.222870433054466 1.21768421788197
C -0.7787722856288881 -1.1365608637036753 -0.3354170384289485
H -1.5089639435238273 -0.9391261894556178 0.43830339187952255
H -1.0538100278329243 -1.8600582127071486 -1.094756474137977
H -0.31073999864084056 2.022594771729725 1.7311622907432913
O 1.4933303490178242 -1.8273289020387833 -0.65329515421591
H 2.3580007339363456 -1.7745670694930156 -0.21856385852764762
Rh 0.1133809765816368 0.608744934165385 -1.1981150314701898
I 1.9993566840707284 1.8120890226317197 -2.5188730231958547
O 1.0211168553819874 0.585717653181922 3.058893339237567
C 0.6797324510393874 0.37897161173144484 1.929654249098032
O 1.0460526992760124 -0.714734144317825 1.2788212923603477
C 0.5789958196669467 -1.0612550970006889 -0.009752141337214065
