12
## STRUCTURE-ID: 64568efbddbcb248762726aa ; CHARGE = 0; SPIN = 1
C -0.8214869899985915 0.6873316368036548 1.418594641052192
H -0.908010518283827 1.5933820664496343 2.022320395978542
H -0.44068359909171523 -0.1312067447307756 2.0330696489022784
H -1.8079375689408836 0.3972296310981292 1.0474568025658828
O 2.4206334322834784 -0.6977010734172587 -0.5310135387503758
Rh 0.48359001611389907 -0.43013314820142 -1.1213449906555124
I -1.5200190364812807 0.23299823490589877 -2.618079286985261
I 2.873386576281284 0.26429553056262467 -2.1456671871152246
O -0.7524842479248691 -2.8838612708082367 0.004942967403379791
C -0.3106431964217713 -1.9058514256499666 -0.37122375210267916
O 0.6974248345177679 1.9137864186477576 -0.036719108215695274
C 0.08623029794651343 0.9597301443399415 0.2976634079224802
