12
## STRUCTURE-ID: 64566bbe28e11f751046227b ; CHARGE = 0; SPIN = 1
O -1.1865499673713864 0.08425154646044648 -0.805878191416902
C -2.2512430808246706 -0.44156984487708256 -0.04541994687884646
H -2.820934419085929 0.40908251164832155 0.3254901812955958
H -1.8869286510317393 -1.0239008252406339 0.806385058772781
H -2.9078873782878505 -1.0692661853757892 -0.6560594326332336
H 1.1826270035692124 0.7846819562137165 -1.0928301094362787
O 1.770573398268516 0.09358074155161004 -0.7624985060279946
C 2.108696061741709 0.40246138036335444 0.5719280114485458
H 2.691814605188618 -0.43491240103095447 0.9519280048493733
H 1.215716768476872 0.5288587948254713 1.1904404700071762
H 2.7158112318070815 1.3114861467944496 0.629023584510401
H -0.6316955724504248 -0.6447538213329044 -1.1125091244906136
