12
## STRUCTURE-ID: 6456652e7b936d67ae1d80b6 ; CHARGE = 0; SPIN = 1
O -2.7844699650871836 -0.14635068316099087 0.19357981760939802
C -0.7932448748092127 0.2340002486435946 0.14524409218955592
H -0.9708086191111545 0.8022622288965094 -0.7540035343966932
H -1.1754683824684162 -0.7894117985549824 0.1766555449918309
H -0.9710721237566187 0.8043295104931835 1.0438147730072567
H -3.0363635376702653 -0.2517681198071813 -0.7260155348089724
O 2.787830742250889 0.14707840478678208 0.14829190240841106
C 0.794787215718734 -0.23240815441190493 0.1325596431450577
H 0.9575390212935749 -0.8034055938829225 -0.7677680813523178
H 1.17852689211329 0.7906414690518369 0.15380686866883791
H 0.9875483732986622 -0.7999390739906946 1.029762630635721
H 3.0251952582277046 0.24497156193676567 -0.7759281220980832
