12
## STRUCTURE-ID: 645667dbcdd8b02545242a30 ; CHARGE = 0; SPIN = 1
O -1.180911059809675 0.2029716259169109 -1.4072505955377683
C -1.1706467546365742 0.3123501998801717 0.5825047639694743
H -1.4072830502715488 -0.6367327145512196 1.0291092906364616
H -2.028080403829252 0.9265982014562594 0.3424971642713562
H -0.4008670713219449 0.874397364562482 1.083188662930991
H -1.8449250004670739 -0.46980460830613635 -1.597071165461658
O 0.5070066330214578 -0.7722020896376892 -0.08559196231020835
C 1.6918867991118396 -0.16137711070486915 0.23279559389915674
H 1.8066511946823482 0.8212736957939728 -0.25427956008270713
H 2.530449458741039 -0.7942897191984549 -0.0937726080651676
H 1.7943082444252163 -0.02158442924874095 1.3218276484024611
H -0.297588989645818 -0.2816004159626709 -1.153957232652412
