12
## STRUCTURE-ID: 645665a15f6e507ac71d80bb ; CHARGE = 0; SPIN = 1
O 0.014916569003161928 -0.2964152480904007 0.06322941599658309
C -1.0179433906483326 0.30311658110464995 0.8158933207245844
H -0.7277480517731159 1.3049993896247083 1.1507648329416167
H -1.2671839568881433 -0.3076993367784114 1.6901151391831424
H -1.8822894617523824 0.3749626771543177 0.1597897638424726
H -0.15544382554261024 0.2993908386143307 -1.765163169107361
O -0.3383464976427645 0.5506355597294607 -2.6823719393672882
C 1.2083255068151861 -0.4541618856089062 0.7997101491505869
H 1.5996521948929194 0.5159616566524791 1.1254659101891542
H 1.9249225250964597 -0.9339184273769205 0.13715848939999303
H 1.0413971305427305 -1.085001630232315 1.6795337050707182
H -0.4002587421030975 -0.27187017479299114 -3.174125618024207
