13
## STRUCTURE-ID: 64566dea1ac36f24fc2fdd83 ; CHARGE = 0; SPIN = 1
Rh -1.4321875078896729 0.2013893389606298 -0.06714583827473124
I -1.4700945814627564 1.8685702574897836 -2.104858853858522
I -1.2009763235478643 2.0708736451747076 1.764596973068859
O -2.0082353804421 -1.6215192810452803 2.2265396403259787
C -1.7152503038689269 -0.954673227373971 1.3451445027919102
O -2.1496566887938915 -1.8281664737865242 -2.139451497700309
C -1.8146946615920123 -1.083614895214254 -1.3389684522950975
H 3.659365802187541 1.301078406180193 0.85224559392532
I 3.669906503967439 0.042080768575071203 -0.11284487526971869
C 1.1779091055022803 0.0024822819830112516 -0.10398790345339885
H 1.0848825801678 -0.7815757110298461 -0.8449480922980523
H 1.1041721815221992 -0.25229712415719113 0.9457051235184268
H 1.0948592742499603 1.0353720142436593 -0.4220263204806589
