10
## STRUCTURE-ID: 64568dda7897266a1e2a1573 ; CHARGE = -2; SPIN = 1
O -1.3565384420943796 -0.012305625725631611 1.4177861990834562
H -1.4049092756561445 0.3743539904261881 2.31561474570682
O 0.443532739126352 2.2946995271094175 -1.0759602584044157
Rh 0.12728543929830127 0.10141056564873756 -0.971336168839209
I -0.9339324577945605 -0.02349611890828268 -3.3845766445998513
I 2.254596172788961 1.6643500047399793 -1.5059340168858009
O 0.8291022576732919 -0.024568407063593797 1.8953703765633438
C -0.053733890524007594 -0.23654198890903141 1.0593767752493897
O 0.056451793589863956 -2.6263035643490977 0.35810820881760297
C 0.038145663592321466 -1.5115983829686825 -0.1084492166913396
