12
## STRUCTURE-ID: 645666d3718ea80db21d80b8 ; CHARGE = 0; SPIN = 1
O -1.6603540578829712 0.5804614317446984 -0.3171706897132306
C -1.806629700466593 -0.2479430786458325 0.8166377541273582
H -1.3403279679522142 0.19913687518575346 1.6997018715917116
H -1.299664706436226 -1.1839810921302285 0.5883167038599539
H -2.8588858945629867 -0.45581472032381964 1.0293992685508988
H -2.1424852433093964 1.4026497324423233 -0.1664691844475629
O 2.3938001759410463 0.31623535004593434 0.2579690638767235
C 1.7385277682721894 -0.32933878439624115 -0.8146384917454412
H 2.178266585135127 -0.04717171516255599 -1.7764165878633844
H 0.6696113828287477 -0.10181713802631252 -0.8268301086193752
H 1.8761816585186422 -1.3989218390864158 -0.6646175221374718
H 2.2519599999146664 1.2665049783526694 0.17411792251979918
