19
## STRUCTURE-ID: 64567aeb048fe97d682a1576 ; CHARGE = 0; SPIN = 1
H -4.150735717793146 -0.6481514088232144 1.8580449872101157
I -3.250720790250443 0.6606888714236402 1.9147879976359359
C -1.95491362032425 -0.18076782838364336 -0.10221789309132481
H -1.2009776816883349 0.6008421278035371 -0.05621394545777549
H -1.7502875836040568 -1.1378823585881506 0.3403912277803406
H -2.7639106892452547 -0.06996085863068999 -0.7998313943839022
O 1.3213867262830004 2.6650297113076244 0.5361756333054165
C 0.6299656162657898 -2.8557928092404756 1.012672499861049
H 0.14388391710425655 -3.010000269020462 0.0542433989137277
H -0.08082461540351331 -2.7941769565357975 1.8287395465858527
H 1.36477789733931 -3.6297470244974646 1.200682735058805
H 1.8024265433320121 3.382848939097246 0.9908557270838616
Rh 1.1109622941805646 0.5144914882019763 -1.1564022783298056
I -0.5559929024635591 -1.2198814913624216 -2.2774867856180925
I 1.7151218071097327 -0.9328143207960125 0.9284667477002465
O 3.32242112916003 2.2207947986608927 -0.3579493591744978
C 2.133256051844773 1.935747928722281 -0.2771126840558704
O 1.1191575282643675 2.6880994510051934 -3.1962063882953133
C 1.045004089888761 1.8106320096559827 -2.4416397727288137
