18
## STRUCTURE-ID: 64567382582252790d242a3e ; CHARGE = -1; SPIN = 1
I -3.3661102470701976 -1.1762307175678908 -0.49194564946758057
C -3.126251350183411 -2.8081112684007223 0.9037547761484824
H -3.9059543724199792 -2.716136432530495 1.648210526402538
H -2.14069931206891 -2.6897112827627554 1.3381934528645936
H -3.2117730622311065 -3.730371395352946 0.3451128354388766
O 2.1312474788780102 2.420820081913006 0.0684388928657959
C 1.6101965683991089 -0.14023288115143295 1.897088775241117
H 2.048006422404412 0.816221601867653 1.6325030019124527
H 2.276377677187163 -0.950767019546413 1.6282278722447312
H 1.3472699487023647 -0.16875132625196845 2.946013397138587
H 3.0687899877111087 2.502914657665641 -0.1311252963115916
Rh 1.07521829106325 1.4352091782832694 -1.4605222783100107
I -0.17106501765353324 -0.3254211326011839 0.7384863622642105
I 3.056482626297825 -0.27639492148862865 -1.7624203910161411
O -0.33358338641907187 0.2581790885035303 -3.814168500592581
C 0.1887761953246574 0.6919798424660251 -2.879585673646576
O -0.5524273812846074 3.9284036289541078 -1.236289750381214
C 0.005498933363000681 2.9284002980011934 -1.3699723527956364
