14
## STRUCTURE-ID: 64567b0c2bf1893e3e333be3 ; CHARGE = 0; SPIN = 1
H -2.71117599611616 -2.83623381937494 -1.3605888747748958
I -3.410869348423835 -1.8020269355442113 -0.383039218366644
C -1.125465156506559 -0.6734856572533088 0.011315107347467563
H -1.504153086728663 -0.06167150264077796 0.8200779543104814
H -0.6950830083077912 -1.6413298382639536 0.2327243811134712
H -1.1342655700460231 -0.2878490231401388 -1.002241192489235
O 0.9641381044053705 3.694554745204364 -1.5604833962298663
Rh 1.2085256243717428 0.3598731899729941 0.10436506936853741
I 1.9197891289976785 -1.4759741816017782 -1.5801180489706346
I 1.293893758422587 1.9130291336177208 -1.9668818927397922
O 0.6714026603273138 2.9082528089771813 1.570636875089619
C 0.8254959801466741 1.8926834136805681 1.0794123539730678
O 2.0566144446454198 -1.2867688482710655 2.4588100165583153
C 1.6411524648121887 -0.7030534853627401 1.5760108658101095
