21
## STRUCTURE-ID: 645678be261be451a0530d7a ; CHARGE = -1; SPIN = 1
H -1.5059263730792103 0.6299988760828151 -1.8238391207156746
I -2.22502335226841 0.6347559119728458 -0.344042861121981
O -2.4189467452838516 0.6607134591385533 1.7527358447160462
C -2.049391940572726 -1.3536938895589261 -0.3030172682003926
H -0.2127992769014899 -2.719612009610087 0.5597133355675223
H -1.9348347305841718 -1.7554737804734186 -1.294369517704824
H -2.80209727151009 -1.8264390468139302 0.30452524741398646
H -3.2852186811357043 0.35918957834891446 2.02673782880353
O -0.4509066045608784 1.4726735660435188 0.21620645981600764
C 0.6051298741132844 -3.405559558944534 0.7468816443999045
H 1.493797043208072 -2.8371631607530117 0.9931503640925584
H 0.35613585979157253 -4.058962524061107 1.5718427404945365
H 0.7917625064202836 -3.9877393272349306 -0.14508874121822332
H -0.5495526568814111 1.4807102612739589 1.1696473319635834
Rh 1.925979621528436 1.9257675323345602 -0.6807497013304605
I 1.4734325816559901 -0.05643696805730952 -2.3474359699178575
I 2.9560004182481814 0.3862720096392271 1.1906854730369933
O 1.1290610785650805 3.7898279983690704 -2.868689858043518
C 1.4237732396367286 3.059663147500132 -2.023625118109029
O 2.82031911157799 4.2516027331653055 0.9626573035904445
C 2.4593062980323244 3.349905191638339 0.33607458246686883
