12
## STRUCTURE-ID: 64566a5f58cf33770f46227b ; CHARGE = 0; SPIN = 1
O -1.3048559578136592 0.8983172797052873 -2.1584087755822132
C -0.6838535955991091 -0.5981101295111594 1.1233715464355585
H -0.9392269740702331 0.38042733576516713 1.5436659637679395
H -1.5895700538318271 -1.10409379949736 0.797578652510608
H -0.18345950289832041 -1.1971061319684988 1.8916982591675755
H -1.017891390664358 0.510791639085327 -2.98862817085527
O 0.1370738046352551 -0.4601068557734571 -0.016602789856062915
C 1.367231977801249 0.1716682197064975 0.2696814065913943
H 1.2125886704106144 1.2115118780699614 0.5775737755375772
H 1.9535752421273367 0.1437580033441558 -0.6455288843980826
H 1.9020286879576136 -0.35906971920869324 1.0641480157902816
H -0.8536409080545478 0.402012280282785 -1.458548999109294
