12
## STRUCTURE-ID: 645664b564add854f90b39d8 ; CHARGE = 0; SPIN = 1
O -1.5002066740571338 -1.2144801741671718 0.28138655930497963
C -1.9374808816042293 0.05322269946356246 0.7124223902036259
H -1.726697901622469 0.8253650529509741 -0.03474092450423773
H -1.4687984142600603 0.3372410457275858 1.6601033588470704
H -3.015218557493618 -0.01409689890105421 0.8564361813926616
H -0.538046017685995 -1.1706404111887536 0.15016204124181523
O 1.3011205716037075 -0.5983664532928055 0.015047296354828958
C 1.6584725239469957 0.42915325752528005 -0.8859671557538713
H 2.5638011007936283 0.17339151267949826 -1.442565692200957
H 1.8078791978100255 1.3797947338732945 -0.36608087782475424
H 0.8322665360167538 0.5337049443222238 -1.5867344777199168
H 2.022908516552408 -0.73428930899263 0.6405313006587583
