12
## STRUCTURE-ID: 64566a572e39530b7d39082b ; CHARGE = 0; SPIN = 1
O -1.2668236916977766 0.4782883922217658 -1.2128151454526068
C -0.7094076977093856 0.5626726911048548 0.008113588253579516
H -0.2939394449568102 1.567666319211457 0.1326137876215101
H -1.3583802178876083 0.2847510983247405 0.8445520622592202
H -2.5365741378726714 -1.4938500963581731 4.5693228961704655
H -1.84122574997692 -0.2962063396501355 -1.3112129819294238
O 0.43370709769403126 -0.42524073322621403 0.06871205010212537
C 1.5115608270177021 -0.0920031641106793 -0.8459531672647486
H 2.1652613259110733 -0.9588953049313667 -0.9093307551279473
H 2.0612214534493987 0.786712716735438 -0.5110514391335501
H 1.0582709943848168 0.09981678910263818 -1.8178145456611623
H 0.7763292416441524 -0.5137123684243294 0.9848636501625387
