18
## STRUCTURE-ID: 64568a85262dc85621111de4 ; CHARGE = -1; SPIN = 1
I -1.941445423010179 -2.9089914300182445 -0.5213810597352813
C -0.6345419286272683 0.34472729019762927 1.9084723921505786
H -1.2298914027021424 -0.5754188668540262 1.8718616390853533
H -1.097833187908613 0.981654749566332 2.6706561866450156
H 0.35353463714161787 0.07736159981581979 2.3016356038583035
O 1.5398475302651318 -0.09323711987745069 -2.2640290078248313
C 1.2399745047924242 -1.947246011851021 -0.20765195460173835
H 1.2650622670356426 -3.0204206651596195 -0.36743182539767993
H 0.907677574244839 -1.7060477903581526 0.7962951547038961
H 2.193638292714912 -1.48462241277051 -0.42749493272115036
H 1.3031706901773568 0.5654219254664757 -2.91503829899523
Rh -0.5976845944828514 1.28660319932628 -0.011353964509967441
I -0.6683930515218985 2.8266750637262117 -2.2553926942321105
I -0.10738015747004157 -1.0600231469074042 -1.6100813493986066
O -3.5548083063017426 1.6778453005698082 0.25374875783334677
C -2.4424015387955675 1.407125321352131 0.12312701356790762
O 2.2814366597197475 1.985906921540018 0.4183275342336414
C 1.190037434728637 1.6426860722357144 0.2357308053385499
