13
## STRUCTURE-ID: 64568c9ececb3528cd6aac71 ; CHARGE = -1; SPIN = 1
I -2.3594498643777246 1.3869213963824552 1.0245341742740848
C -1.204089092724744 -1.3370885589261468 -0.9187038101493198
H -1.6517225109395082 -0.553370345349812 -1.5776435045679276
H -2.0009442152597225 -1.7722516291929276 -0.3130517038455047
H -0.7406746518069087 -2.0952823819864648 -1.552056835577596
O 1.735024652649051 1.1467837878939446 1.3027492287261182
Rh -0.40157388284936035 0.9971265890372402 -0.702851459624079
I 1.2972141803030297 0.4815162352450236 -2.6516523562330923
I 0.32724378025350404 3.4855774006562816 -0.5824774397614031
O 2.510435088284846 -0.18317554592161167 2.9948443983586435
C 2.117651302198852 0.4716302029525658 2.1464203645189888
O 0.5303746089530729 -1.263106313898871 0.832274759864473
C -0.1594893946843888 -0.7652808368916717 -0.00238581598339041
