12
## STRUCTURE-ID: 64566634f0e37b4a3d750efb ; CHARGE = 0; SPIN = 1
O 0.38192887164692896 0.8961184859313616 -2.5819359822375865
C -1.1847923150894586 -0.6381953598806986 0.4533132891599084
H -1.9851167770366442 -0.34912723263857076 -0.22372114707547977
H -1.52221406347598 -0.5305076978029406 1.4897141683265236
H -0.9108382633668631 -1.683654719189889 0.27385898664095015
H 0.10253533234568382 1.814797653461808 -2.598190823411808
O -0.09705092482424056 0.22127489129169167 0.188117234433191
C 1.0194626570841576 -0.038726991917614154 1.0113656960126152
H 1.3907299035936556 -1.058031282845564 0.8580510808430771
H 0.7625740700371293 0.09207532308025786 2.068011335333264
H 1.7890440311230078 0.6764863837730385 0.7306418834018101
H 0.2537374779626324 0.5974905467371117 -1.6692257214264603
