13
## STRUCTURE-ID: 645673daa65cf834553288a4 ; CHARGE = -1; SPIN = 1
I -2.175159093117036 1.6732605397625782 -1.0641420053938067
C -1.369495360298967 -1.102227874719022 0.7911746497242799
H -0.8432148734777792 -1.7339231886328879 1.5088926918682195
H -1.7362218082558947 -1.7175407569844539 -0.032531633518372835
H -2.220830323036494 -0.6344098193274201 1.2878124454722253
O 2.835718131247884 0.9792268977543575 -1.798317103689342
Rh -0.09596692004222702 0.4624187227113004 0.06795404325711026
I -0.26806317933940993 1.7460883768941513 2.3886500993450834
I 1.7725097388908533 2.3101069656125075 -0.9928602376458657
O 0.18971085579783137 -0.7482548376328793 -2.6485603959443758
C 0.06394723255798979 -0.3402430319892044 -1.5953626837568484
O 2.4182109313255298 -0.6217568052898643 1.2632011166664991
C 1.428854667747715 -0.272745188159155 0.8240890136151999
