12
## STRUCTURE-ID: 64568f106df5083acf068a10 ; CHARGE = 0; SPIN = 1
C -1.808982156855981 -0.047934113561141134 0.2944688685489714
H -1.745509649953454 -1.0003597783547975 0.8142831205563025
H -2.7910230962365996 0.10374839653922989 -0.1294837862740678
H -1.5117015647045418 0.8343398918575338 0.8657390002126503
O 0.4725113454082735 1.9918706144493137 -0.39887270609992453
Rh 0.5937658382802116 -0.07480513561247046 -0.26419639810954443
I -1.1152820236382048 -0.3352218016550646 -2.202848139945016
I 1.8427392912218692 2.175176926156439 -1.7727141280665888
O 2.3261408459831556 0.8831102331468428 1.9845996782600106
C 1.6789872089088769 0.38402807339453093 1.1965745377513872
O 1.1474093495422386 -3.0137804677060545 -0.18771472406330772
C 0.9109446120441761 -1.9001728386543941 -0.19983532277084604
