18
## STRUCTURE-ID: 6456726b8fc55d31b7159873 ; CHARGE = -1; SPIN = 1
I -4.067474589000148 -2.3742049567190744 2.1859761711429955
C -1.9994946621067373 -1.8954597231442374 0.8695191922965816
H -1.6750812221658644 -1.233868959691256 1.6520612645225037
H -2.624233221391168 -1.517631559948784 0.08211646863578508
H -1.7671217798921022 -2.9426410866152573 0.924493306864638
O -0.44891242327013203 1.601393413750429 -0.5779197979973237
C -0.41224172517962404 -1.5695141205525212 -0.15841353875539474
H -0.5946669208946586 -0.5130663467090796 -0.2730790833229757
H 0.27452903753328445 -1.9034208792529825 0.5965892552614175
H -0.634084070372392 -2.2245029984061513 -0.9798088574479573
H -0.9628109164946574 2.2719383069112786 -0.12076415315854004
Rh 1.63472217735396 1.7492741217253058 -0.3215086918803619
I 1.8274295172446542 -0.9873629071177606 -1.522356883263304
I 1.4406183910192172 0.8455034822897163 2.1561471722520316
O 4.556231470146249 2.29354952023603 -0.022230814110746757
C 3.4305459811609276 2.057449571278781 -0.1465900090850661
O 0.7645502864039179 3.491663493349695 -2.5834770002185463
C 1.257494669905216 2.8509016286158473 -1.7607540017357197
