13
## STRUCTURE-ID: 6456700962a8b176c415986d ; CHARGE = -1; SPIN = 1
I -2.214400941991273 2.7023249888216903 0.9881162773278491
O -0.6994410448427534 -1.7127021330293124 -0.2312560253186774
C 2.008979323415709 -0.6588558053879483 1.8698550254369413
H 2.4697787562174898 -1.5079637495719194 2.3354461216651115
H 2.594480182919576 0.15487412699272574 1.4835807309006404
H -0.8585130667326607 -2.641647774040312 -0.04459430503439488
Rh -0.6600615597270632 1.2783337058652249 -0.6153322828570785
I 1.5275423677166131 2.6495383942033888 -0.09792647513678848
I 0.04856165476126329 -0.6914865027980477 1.5543631213069395
O -3.136645853657669 -0.15177178864127353 -1.4687808021775892
C -2.1835810434483482 0.40019591241744495 -1.1340620340388543
O 0.828408593723231 -0.20308472798696542 -2.7308508936257225
C 0.27489263164589245 0.3822453531552848 -1.908558458448375
