13
## STRUCTURE-ID: 64568c5624ac7f06ca2cdf80 ; CHARGE = -1; SPIN = 1
I -1.39385838936504 -2.720824323312136 -0.7469141541167437
C -1.141027719511747 0.9855043412578821 0.33514880585563217
H -2.0420926970691013 0.36597236763469393 0.22994897626230076
H -1.1811103077931278 1.752671572751885 -0.43826748996597714
H -1.1606629106044724 1.4474541600206146 1.3213523564144785
O 1.1278334781163806 1.470090714277805 -2.8244401767028657
Rh 0.25428502469621805 -0.7305878395436728 -0.02437470524756228
I 2.573627840596824 -2.1316441074029537 -0.3396384184211359
I 0.20642037097778182 -0.13834399174066145 -2.610272249379604
O 0.2590798947386035 -1.9065133416195268 2.738261755921214
C 0.2240053486853292 -1.3926084670230219 1.7259653430541393
O 1.4024710031853815 2.005298081631346 0.37016539420211436
C 0.8710290633469696 0.9935308330677499 0.2630645621240136
