10
## STRUCTURE-ID: 64568dd97897266a1e2a1567 ; CHARGE = -2; SPIN = 1
O -1.5640315430884437 -0.5116822745341523 1.5734099364235028
H -1.7691566374633054 0.28516184839071373 2.0923356213831266
O 0.9590139062136105 2.358116208320721 -1.3438091654211772
Rh 0.32104372488294797 0.3905972579906172 -0.6681631278006941
I -1.2975131365346868 0.04806338314385574 -2.7095917294123937
I 2.5647466519020132 1.3458331401565022 -1.8612016372465838
O 0.519760160835551 0.43853896910016815 1.6619123545323384
C -0.24593418849791804 -0.4557763812589213 1.1651344514285504
O 0.3284364224428584 -2.557110290317261 -0.00852528781874355
C 0.18363463930735408 -1.3417418609923586 0.09849858393204351
