12
## STRUCTURE-ID: 64566b49c7e11d17e7399e43 ; CHARGE = 0; SPIN = 1
O -1.0823005087160629 -0.1605981991097963 -0.5950981393950143
C -0.6200718033237091 -0.052317867917854914 0.6743737143014515
H -0.6846421286631712 -0.9989338217832846 1.2407571473138679
H -1.6740484783745226 0.6136821963511334 0.5256077499631875
H -1.4010819984040406 0.7460558576870309 1.5546828665424783
H 0.11041423874911935 -0.7943751112508912 -1.6131024064452852
O 0.8415491731464781 -1.1412073912898497 -2.1799348286865707
C 0.7416313011814084 0.601328866156635 0.8511795074587863
H 1.4639320212540856 -0.021611039810066866 0.32614400528477566
H 0.760515560381422 1.5874732578499973 0.39691622332951043
H 1.0192664368646989 0.6665509307526599 1.8984842816688101
H 0.5248361859043017 -1.0460476776357122 -3.080010121336
