31
## STRUCTURE-ID: 6456fef8a3ddb51e021f8bd0 ; CHARGE = -3; SPIN = 1
I -3.323737544988742 2.519086798501626 2.1939793978043323
O -2.4510179257658216 -2.614270458436312 1.7334960946638116
H -2.937698713237571 -3.367621819883908 2.0696000897433797
Rh -1.9980383646959439 0.5480274789438295 1.170798277207063
I -2.3527109971587103 0.5756616591485806 5.498413214260992
I -2.3045073640228306 -1.0693461827787936 3.2168452735190614
O -2.434537830038405 -1.4716684298894038 -0.8328124916994973
C -1.7215057415688353 -1.0008723665841495 -0.005658828267888206
O -2.39314080764295 1.7169365897953497 -1.518637021233223
C -2.1420917249893083 1.3615171311254675 -0.43972040539002133
O 0.6119675982227972 2.880930644726996 -2.3012406921511412
C -0.42561478524930074 -0.6661740839973428 -2.9743549377351863
H -0.19840106718517583 -0.5425011788386799 -4.026462860236184
H -0.9382172522395876 0.21674737502130542 -2.6011210963505023
H -1.0592689937167648 -1.5369673133938304 -2.8318583152092036
H 1.3233745252497697 3.018718137059706 -2.9503562223415574
Rh 0.20088840098113206 -1.700186906579643 0.4950514277323483
I -0.24543839472603532 -4.103993026587782 -0.7678385463256915
I 1.3812332555469808 -0.910534122415945 -1.8714162476559755
O 0.38775579416463235 0.5526381179604163 2.3785983423150574
C 0.9381256124380484 -0.13636715675199432 1.5141193667409114
O 0.3661161001264438 -3.4457343121159774 2.936130277872325
C 0.4506213581363086 -2.7323337516289987 2.0269142743074524
O 2.2632629393920856 0.08192485554788054 1.3158641857419466
H 2.6258002237089664 0.7363662776672126 1.9540993007331848
Rh 2.710452536940391 1.1660030584839653 -1.153551907968275
I 4.450041831843373 -0.8185222648830364 -1.135658173921147
O 0.24763393525030397 2.1199553883084152 -0.25454399793224763
C 1.0561772203092596 2.2042957346011574 -1.1806145673967
O 4.226554467899469 3.7107124311975532 -0.7449332015052795
C 3.685921707016087 2.707571696676085 -0.9131300093220026
