12
## STRUCTURE-ID: 6456689632d3b844d14efcbb ; CHARGE = 0; SPIN = 1
O 0.06199102218473713 0.4680460707880056 -1.591830280400145
C -2.207599981561058 0.04811850212610111 0.9646568026600499
H -3.0331827797232345 0.7472406650015658 0.9405501916185321
H -1.6490806939741662 0.18306262257559938 1.881567016157366
H -2.591965873365192 -0.9625019279329897 0.9186736039039013
H -1.5654828839353947 0.23069228263484426 0.1105465799825277
O 1.4803232478175257 0.24459642496212392 -1.5068398880402578
C 1.897436930872083 -0.05976048581879487 -0.15242544007237407
H 1.3602632795930631 -0.9192606040073512 0.24737289154660405
H 1.6771550929719774 0.8191845750897264 0.4509540630179864
H 2.970667968965123 -0.23733476043883095 -0.1985548646071819
H 1.5994746701545417 -0.5620833649800137 -2.0646706757670175
