12
## STRUCTURE-ID: 64566b66730e0a7e964609e6 ; CHARGE = 0; SPIN = 1
O -1.5220468864506285 0.013373030540540473 -0.996103361038529
C -1.4191568625247837 0.16079355964275088 0.3542225403328917
H -0.25293318665460723 0.13775010878518665 0.5534663512592015
H -1.8103074854309473 -0.6878198227545772 0.9287849204779309
H -1.8297324817699723 1.1125262620735166 0.6950155623593115
H -0.660322911617535 -0.5660416806481695 -1.1996544283620671
O 0.6775292131857927 -1.0703814327362313 -0.9812959705134953
C 1.2226816445125421 0.30754733822842123 0.514781711945922
H 1.4992719985785574 0.99611451711982 -0.26535384601647033
H 1.9106770897549445 -0.5066799706887607 0.6660979290278397
H 1.0157095031451908 0.8193276011859859 1.4532397850908363
H 1.1686303652714547 -0.7165095107484747 -1.723201194563375
