12
## STRUCTURE-ID: 64566aceeb61510fc56cdb48 ; CHARGE = 0; SPIN = 1
O -2.2336746350085765 -0.22344408135578056 0.7577161285946771
C -0.16851256924910582 0.2798799017061577 -1.0660435028662454
H 0.030867276819126984 1.3473910855498483 -1.1077168428754072
H -0.31962150690079166 -0.13379776765785903 -2.0570485764577113
H -1.0891238382351671 0.09302612556340895 -0.4153651365042679
H -3.097923942574307 -0.26209217248132477 0.335975456348878
O 0.9237298358809113 -0.4417261776679201 -0.4458262604061533
C 1.0386141815396353 -0.1544078135489594 0.9639929430391333
H 1.360115328606766 0.8711508160605641 1.1388529759971324
H 1.738206823802196 -0.8668536943634902 1.3938095673721482
H 0.04630618162491713 -0.29615709251537875 1.3941312052163823
H 1.771016863694515 -0.21296912928929268 -0.892477957458523
