16
## STRUCTURE-ID: 6456762552a6614d8107102b ; CHARGE = -1; SPIN = 1
H -3.648962532332478 0.5756907701893679 2.2044315988799856
I -2.7993953958254734 1.1471700282455097 0.8482743595796151
O -1.511468681601877 -0.34142477222925316 1.5981146488067755
C -1.0959768969572987 1.1497484626232528 -0.5293535736933973
H -0.2010807678475815 1.2985912687485603 0.07465249251694304
H -1.232097885902064 1.964185361020801 -1.2290508557939344
H -1.0830925013660586 0.18681467109618047 -1.0366618575059556
H -1.8130397156059723 -0.6810625174483418 2.4412261681997793
O 1.3825366075883523 -1.2234406222011358 3.0413314516610828
Rh 1.7037539973515972 -0.5082045552917304 -0.6335051795718847
I 2.9826924305248377 1.1857678524982511 0.8819046623525099
I 0.8991094484922606 -1.9473261052583208 1.3787170059050968
O 0.3901110367581623 -2.5773817806953176 -2.3408821832762587
C 0.899495078921265 -1.7668104865386003 -1.704476532503224
O 2.7780852193529806 1.0780236576242839 -2.9303763106171443
C 2.3493305584494384 0.4596587676163434 -2.064345894939598
