21
## STRUCTURE-ID: 64568dae61e7ef4c682726b0 ; CHARGE = -1; SPIN = 1
H -1.2615719307962894 -1.4886303366986067 3.871052867794589
I -0.7790310356300157 -0.1480015460739979 2.8866580714627825
O -1.609114568025529 0.12938539978293398 -1.8897992716775711
C -1.672804980296193 0.5485065301264753 4.992931952606698
H -1.621134144455685 1.635518160938562 4.9750258296853795
H -1.0121136207535164 0.11452833919756183 5.749876200026094
H -2.704497765484735 0.1825112627240568 5.006302111788987
H -2.1915087240550277 0.35614027310617297 -2.6338508934702425
O 3.0228299949353534 -1.2595014689472532 -1.0460838036392135
C 1.2841491458176828 1.6190411386688792 -1.1817958958012214
H 2.1892701753999093 1.0729033638983272 -1.4583231356832251
H 1.5671234043328666 2.6530461239331165 -0.9745631722528885
H 0.5787964288480346 1.61583411162022 -2.0182525047525424
H 3.600757532714658 -1.9696869597640383 -1.3292801697115926
Rh 0.8454862130308588 -1.3645230164595572 -1.3582630527314237
I 0.43358020282786586 0.7576452975570537 0.44687420255809357
I -0.08089843890043447 -2.9122053823185055 0.49208535104290535
O -0.688342433547948 -1.1867761783737762 -3.507973041497952
C -0.7025072300525492 -0.8563291488116995 -2.242674388384804
O 0.9967934790187344 0.2746248278402221 -4.341667126475222
C -0.1952617049279884 0.2259692080538022 -4.438280130887674
