12
## STRUCTURE-ID: 645667dd88138463142648b0 ; CHARGE = 0; SPIN = 1
O -1.9028737466267986 -0.7956204521521948 0.2519254855404479
C -1.0602172890070265 0.07337359273460813 0.6384447370927179
H -0.9620697573129599 1.047646334777833 0.18970216921513233
H -0.329002684443513 -0.25030516210381526 1.361086251770567
H -1.9672458332022544 1.0019019098376594 2.1055902129465793
H -2.5390005632378707 -0.48759198240382867 -0.4236046934083515
O 0.4476738305824363 -0.4274396813474128 -0.8999946674332212
C 1.6986202832856614 0.1764286928318767 -0.6242703001134913
H 2.414143099563518 -0.04630873130769416 -1.4179196639114293
H 2.101878002045636 -0.15470867106077432 0.33501201196160496
H 1.5332831314216975 1.2508996539231945 -0.5862766223424968
H 0.5648115269314617 -1.3882755037294807 -0.9296949213180319
