21
## STRUCTURE-ID: 64567c50057a5432855fdabd ; CHARGE = -2; SPIN = 1
O -3.0683155040657977 -1.4484206219151707 1.3290886685803838
C -1.0387645939269718 3.479982183963815 -0.4248324531655675
H -2.100633881938438 3.693363922831566 -0.5046789452664852
H -0.52094645166013 3.6129293145874746 -1.3697758822010007
H -0.557726604510595 4.042329935062452 0.3683397211055807
H -3.796171747759806 -1.0422739338507572 0.8429078454422213
Rh -1.2972189627448596 -1.5584772200031705 0.45816386634196077
I -0.9211742618346602 1.2371955305107893 0.11145213162453213
I -2.6389017516808866 -1.771719451631416 -1.7533067880829245
O 0.4327922116113658 -2.8809520820217904 -1.6129022474740637
C 0.5102788332956519 -1.7797101996295925 -1.0317760413206414
O 1.8203765302543513 -2.6685473025974686 0.7424722966723509
C 1.0516390708708248 -1.710906918231407 0.32617859749396105
O 0.573260216035496 -0.6271680614191136 -1.7976329855467321
H 0.32483965030997375 -0.808728687214657 -2.7261804282414275
Rh 1.5472749398206982 0.4736957904755215 0.4378634815036173
I 2.6058970903451937 2.6165175779388123 -0.4720555518866406
O -0.06883774493453138 -1.0649594645228053 2.4393428615204806
C 0.37566163919108386 -0.8876710583485321 1.294626803277619
O 3.768204745175333 -0.716694164560416 2.0126325021189815
C 2.998466578146749 -0.1897850894241244 1.330072547503731
