12
## STRUCTURE-ID: 64566859d499497c0f64e48e ; CHARGE = 0; SPIN = 1
O -2.016382309115047 -0.5536445980380411 0.8955304935022582
C -1.4890555668494847 -0.7255610425860959 2.1930014839534624
H -0.6508813958905183 -0.04634802820188317 2.3770231174966003
H -1.130412594831457 -1.7517061561142104 2.2507373599065668
H -2.252874230054042 -0.5730380701551063 2.9612433373404086
H -2.377395804877057 0.33833462928127117 0.822976922460559
O 1.9541023753380318 1.4586242338631483 -1.404645259828124
C 1.7430279322150577 0.24103638163756055 -2.085903343097973
H 1.163852542963069 -0.4626086787993328 -1.4804690453814096
H 2.727179859173134 -0.18257468883397437 -2.2782297478741262
H 1.2318774928667868 0.40081339363115465 -3.0402180207264573
H 1.0969616990614899 1.8566726243155214 -1.2110472977518922
