13
## STRUCTURE-ID: 6456b823a708635e9e19eb63 ; CHARGE = -1; SPIN = 1
C -2.4750157650413107 -0.39891200777227626 -0.07180170180043559
O -3.54459010822143 -0.2578343727892315 0.38857179658321384
I 2.301068105894997 -0.8532641277844604 -2.061304783098125
C 0.3895689432940851 1.4852302945659053 -0.3675953439555758
H -0.39038736824929304 1.4024926521190137 -1.1350008263386595
H 1.2526922349140155 2.023225149160632 -0.7586142673250132
H -0.0015264325171376145 1.980293369878922 0.5228426581481761
O -2.3746817318212297 -2.1913297143558053 -0.4660068924571642
Rh 0.7629725574199685 -0.5361488043431646 0.04571756694581485
I -0.43709853243220465 -0.9353852716368602 2.3962209832140844
I -0.638086369752106 -2.4095603417635334 -1.1694609226743469
O 3.01856126847557 0.5243853527049466 1.6501772886984587
C 2.136523198036045 0.16680782201593244 1.0262544440595598
