13
## STRUCTURE-ID: 64568a204e983e50d72a1564 ; CHARGE = -1; SPIN = 1
I -3.083257789937056 -0.2825903106030416 -0.3942763124820206
O -0.4570714953155543 -1.1650709797980638 1.663822326951916
C 2.2979034950175015 -2.339482176067102 -0.36018717932494076
H 3.005088594742773 -1.5643742340991187 -0.6006201456818732
H 2.623153563396285 -3.2838908092651584 0.039285869616640885
H -1.1300081594021765 -1.7775973032598724 1.975363991486654
Rh -0.7554081138537979 0.7549665576075847 0.22687869731285057
I 1.6050873513950767 1.500246683566487 1.0628586811796426
I 0.35956203501865086 -1.895771063520799 -0.31999024400413456
O -1.8956170064404412 3.4618793199552864 0.4816167307543782
C -1.3512875420473576 2.5735850116537544 -0.13094041664126327
O -0.4308838274299191 2.006828484180783 -2.3994827894717816
C -0.787261105143978 2.01127081964926 -1.2443292096960905
