13
## STRUCTURE-ID: 64568c29ec95144eff6c2b40 ; CHARGE = -1; SPIN = 1
I -1.315897665247418 -2.468595375266389 -1.0103354742424846
C -1.4373225770392641 0.48606932514755263 0.769985162397544
H -2.283183664073912 -0.12228815908019684 1.0888934078084156
H -1.7274837966219079 0.9677165505771832 -0.17447430730702898
H -1.2280494962571196 1.2651425853260732 1.5014331807168781
O 1.4652294042609375 1.6826069620748239 -2.96718426564578
Rh 0.31447133250261905 -0.5460961896502509 -0.19867891748900965
I 2.569619119985245 -2.073958252330538 -0.4597875360233767
I 0.3196510439868774 0.20856345081337246 -2.795058051928823
O -0.3214052997693008 -1.1058416045349493 2.6809269988277142
C -0.16866550813446107 -0.8302606961138398 1.5783541429956829
O 2.303628879573336 1.6763065436162328 -0.01037555457287649
C 1.5094082268343727 0.8606348594209297 -0.0036987855368529805
