12
## STRUCTURE-ID: 6456672101e09b0c5841e58b ; CHARGE = 0; SPIN = 1
O -1.558562698655542 -0.8815425556091752 -0.07119073845176449
C -1.7219614698024646 -0.8689368284038126 1.3281770636681554
H 0.8651709261345429 1.75257009471031 0.015082629411143703
H -2.4718293055576543 -1.6217595449054631 1.5682695018140262
H -2.073982607351692 0.10621857303983515 1.680705231940416
H -0.8424121638460105 -0.26383107954866064 -0.2938718945527857
O 0.7038764302299803 0.8847308964007465 -0.3743339752901682
C 1.7694253027147597 0.5756850276360114 -1.2490901202707358
H 2.7178492778184427 0.509895299584376 -0.708861256016729
H 1.8553482631542249 1.3188454431123136 -2.0460192040219076
H 1.54593463262384 -0.39329652135386745 -1.6907967362536056
H -0.7888565874624225 -1.118578804662601 1.8419294980239538
