17
## STRUCTURE-ID: 64568eb620e1f35abb2cdf74 ; CHARGE = 0; SPIN = 1
C -1.9031481371746515 1.0313994849639434 -0.625564666318568
H -2.1569225782102532 2.0259193420068256 -0.9957651540670548
H -2.0294946120524773 0.9831004984110228 0.455146962135299
H -2.515747294977136 0.268294946730461 -1.1126667087544904
O 1.2879217366794566 -3.3024456276431358 1.3468084097564308
C 0.443076787777633 -0.8324070668407857 2.063662274132887
H 0.3067258508943435 -1.6801165722287372 2.7216275402291648
H -0.4013413845154347 -0.15590823028604248 2.096774988431401
H 1.374126233096962 -0.3267786684726858 2.287739296520717
H 1.467007018085831 -4.07768082032336 0.815113242712918
Rh 0.054603391979707455 0.6055188143439884 -1.2368575889121716
I -0.38480232502900896 -1.0417732124343917 -3.199848930656246
I 0.5695599911065186 -1.6564638318625708 0.10260470722678769
O 1.23842744815605 2.222023510156329 0.963611770395382
C 0.7086710413786672 1.6121632732642042 0.1578929946698222
O 1.4434989938164604 2.2912040233622606 -3.211969574266434
C 0.49783783898731215 2.0339501368528348 -2.62830956323577
