12
## STRUCTURE-ID: 645666e3467ee7524c4d91ee ; CHARGE = 0; SPIN = 1
O -1.0112794710340531 -0.5565837712275987 -1.1321334526872537
C -1.7953741903396423 0.06702695031766859 -0.08520039198352437
H -1.82553121348633 -0.6242415158940958 0.7533177840047107
H -2.804417320507107 0.21927065846382196 -0.46006669152676444
H -1.3664555746352276 1.017371218318049 0.22949133197074745
H -0.9980694414502178 0.013564759156722212 -1.9299805012296705
O 1.439827241756017 -0.7868263519771147 -0.24313408912022644
C 1.9694792355864692 -0.7943279826999182 0.8377782343896677
H 1.4025050413802906 -0.6733992720628813 1.7689869995473404
H 1.9896150579329763 3.740099022912223 0.11231893750894045
H 3.050193659581438 -0.9230237782862295 0.9480770382235979
H -0.05049302478465432 -0.6989299370206614 -0.7994551990972997
