12
## STRUCTURE-ID: 64568ef22a4f0b31f109291d ; CHARGE = 0; SPIN = 1
C -1.3555705007525984 0.03047177670292571 1.1612611089670892
H -1.5196074217591584 0.04780386228490542 2.240797306820588
H -1.7404999449533332 -0.8952694274507884 0.7299741814130734
H -1.9121337949522796 0.8497101822183769 0.6943937658395674
O 0.9608615279487331 2.0300208678867566 -1.3008125720986998
Rh 0.8128360686403935 0.08775068240653613 -0.983312539215047
I -1.314317052186215 -0.03888254959177208 -2.4654592580503265
I 2.866230640093338 1.8200714692599687 -0.991841116190436
O 0.9888880274465401 0.4870668315506261 1.6038939523984048
C 0.07799708034049085 0.20339771955046204 0.907079656008698
O 1.145503966940771 -2.8754737786382134 -0.7804961856589797
C 0.9898114031933213 -1.7466676361798708 -0.8154783002338774
