9
## STRUCTURE-ID: 64566e0d51ecd512f67ffa7d ; CHARGE = -2; SPIN = 1
Rh -0.3424951008911069 -0.8207766876745699 -0.6038166255712725
I -1.316084442661759 -2.286030939381524 -2.5905697243233674
I -0.034655260813664664 -2.8212900984632063 1.0480424443433176
O -0.8621602538550406 0.8985078890108682 1.5772593082087998
C 0.021858751364616954 0.38433229085946996 0.8760605698196712
O 0.028879600522553457 1.833100874072399 -1.901262588261267
C -0.16107252416748322 0.7425172981305211 -1.4974935538648788
O 1.3195686691506656 0.7318219086524624 1.1620344439257175
H 1.346160561351214 1.3378174647935777 1.9297457257232764
