12
## STRUCTURE-ID: 645669b27fb06e393030457e ; CHARGE = 0; SPIN = 1
O -1.4775907630899794 0.5342380414354744 -0.6470364380971215
C -2.0918139714512107 -0.11862101900786962 0.43792679711924987
H -1.518418942890785 0.011951591933879617 1.3617851875285267
H -2.2143472384742853 -1.1890475420876139 0.24411029301598378
H -3.074720429964812 0.3333998664318156 0.5665671450400994
H -0.596733275083985 0.13635600806952158 -0.7814959064126984
O 1.1722605598059292 -0.4603052783351119 -0.8944175931680203
C 1.920210853461692 0.13445805505986325 0.14900460083239572
H 1.8486796199236282 1.2251045146023598 0.11467929122603951
H 2.969956513622758 -0.16383970841104534 0.10517580783829268
H 1.4913793408737859 -0.22148973597191016 1.0840546600240986
H 1.5711377332672711 -0.22220479371935462 -1.7403538449468592
