8
## STRUCTURE-ID: 645663c62e850a726c4b6a6b ; CHARGE = 0; SPIN = 1
H -2.880383926701997 -0.01767878738881895 -3.8855912829832953
I -1.184667577774687 -0.4570049626520821 2.1561085070689954
O 0.10836147377288051 0.4629488161628649 0.9519472837150517
C 1.4501208158653471 0.044410845091204146 0.9860375114648865
H 1.9463136113924837 0.6911830606195707 0.2598595823469926
H 1.5678071776357707 -0.9979866807424599 0.6786428380561902
H 1.9054900880892005 0.19118068123179163 1.9688795459244366
H -2.9130416622790007 0.08294702767793483 -3.1158839855932676
