12
## STRUCTURE-ID: 64566826f309673ad40b3f6e ; CHARGE = 0; SPIN = 1
O -2.2758452138532212 0.009608546748654467 -0.47527436208840435
C -1.2819987820135168 0.22884470765432618 0.4048363456945993
H 0.06022707307333468 -0.3208879906072241 -1.041004052794304
H -1.174056205683741 -0.6490778647037172 1.0500372604053574
H -1.3610883036472106 1.1516543966807233 0.989628262749444
H -2.5816985484646864 0.8212347826381978 -0.9098617658875446
O 0.006827004057446397 0.3988410348929147 -0.37010599286865364
C 1.193672886919106 0.4063865350064657 0.4523195574085198
H 1.3088453760782643 -0.5248577518737755 1.0063299353751078
H 1.1162146116411895 1.2503441774078918 1.1353029035319786
H 2.0507621903943374 0.5423300090944227 -0.20385439134869257
H 2.9381379114986994 -3.3144205829388924 -2.0383537001774044
