18
## STRUCTURE-ID: 645671f08523ed078b0b39d3 ; CHARGE = -1; SPIN = 1
I -2.604947989248152 1.7703450652317765 0.928358434926557
C -2.6981873271604147 -1.0248509124035003 2.942882487876493
H -1.768220256629878 -1.3022042727550587 3.3975260941806873
H -3.1147719483424177 -1.6623835520077546 2.1889597551400595
H -3.2476640297988113 -0.17645548075850268 3.3041689398893057
O 1.6973393984917142 1.4387169903000685 -0.4152248710091289
C -1.4886151768887934 1.6838809379617503 -0.8646542477076816
H -0.4334131263164727 1.651506303696597 -0.6147960327314953
H -1.7851344050472184 0.7887891329027055 -1.396096159434262
H -1.7094036134573043 2.570898297482435 -1.4432186862836625
H 2.4431688387582433 1.8708464811260355 0.006403440422250229
Rh 2.0165211015903557 -0.9277391469770178 -0.7221441003967187
I 3.528683524814289 -1.2429341514992334 1.4247023085431023
I -0.18443725544971817 -1.6477260040395831 0.5140854309776771
O 0.2309649126582426 -0.7868277940210872 -3.103704561658127
C 0.9558494018139543 -0.8932186743599989 -2.2142129006382714
O 4.581954557186792 -1.076554566127752 -2.2523725007478177
C 3.580313393025244 -1.0340886537518093 -1.680662831348957
