21
## STRUCTURE-ID: 6456764a15e4af183f5c0b1a ; CHARGE = -1; SPIN = 1
H -1.7133641383169005 -0.8666862370266307 2.5010843814097394
I -3.1375729929293494 -0.587364312702693 1.9050615856820834
O -1.375094807539795 1.236738550137091 1.064594745176031
C -0.3458229887970252 -1.990470452567198 -0.40896782362691114
H -0.5788124780557672 -0.9380130927834739 -0.24123587106041902
H -1.2467438721720914 -2.5720585174191437 -0.23003960593202422
H 0.4122819100266427 -2.2936912320776894 0.3112260964116365
H -2.0063321155119063 1.8851875748880034 0.7353909160256515
O 0.06833148015397929 3.2177085387027455 2.7058441384774343
C 0.14942133023734103 -2.2100119290728655 -1.8297254326117587
H -0.6020931690000042 -1.901876522233937 -2.5536415990245125
H 1.0554852435259694 -1.6377719512552384 -2.0211808970294616
H 0.37575208485780204 -3.260179295676933 -1.9996767089251763
H 0.034096040820919285 2.793652775670149 3.5710510721499706
Rh 0.6200898236290269 2.0369026650093596 1.2224355863487357
I 1.4659068310934724 0.23322671708807724 2.9030827420018395
I 3.047439327728357 -2.601480007733925 -6.527533028004827
O 0.055159777100355044 4.534469169569011 -0.3230263956234598
C 0.3049152302393599 3.548280716696048 0.1835850992685224
O 2.012506249783881 0.3747328502301961 -0.8523573194269553
C 1.4044512331257297 0.9987039925590068 -0.11597168168611223
