8
## STRUCTURE-ID: 645663e65afde52407224148 ; CHARGE = 0; SPIN = 1
H -1.7706348494690254 0.070244833807764 -0.38408276262055396
I -3.2986169171003943 0.37901274254142636 -0.11283826817232977
O 0.034105165427425185 -0.24905585160687138 -0.613510683104007
C 0.9633202556858383 0.043009976141141416 0.4120128397021903
H 1.475611512530386 -0.8614266526316411 0.7491769567220045
H 0.39718915524005155 0.4599228754207233 1.243088895268295
H 1.6993510357033494 0.7787888665380667 0.07906830332749086
H 0.4996746419823684 -0.6204967902106096 -1.3729152811230891
