12
## STRUCTURE-ID: 6456659fde7e1e34d86b0e1b ; CHARGE = 0; SPIN = 1
O -0.08876237390544812 0.3056388290246557 0.07678568139797688
C -1.0738755268417657 -0.2995443411901445 0.8864610757285656
H -1.242513562510794 0.28573385347887853 1.7967198554304435
H -0.7803266189616287 -1.3174231181482532 1.165549966365086
H -1.9875268810424582 -0.3313722027044793 0.2976036204212799
H -0.03585628616789321 -0.26252904311495995 -1.7545847524362375
O -0.042597334403426404 -0.4717965766427371 -2.700917593876574
C 1.1598284086210764 0.41776439402823873 0.7253319540010694
H 1.8365545424109306 0.896607049370961 0.021545781861669066
H 1.549882004498484 -0.5691767944477721 0.9973072371134811
H 1.0750235531606778 1.0298686328571252 1.6295870055751578
H -0.3698299248577433 0.3162293174884892 -3.1413898315819226
