12
## STRUCTURE-ID: 645666d24ccbfc3205233638 ; CHARGE = 0; SPIN = 1
O -2.4969756586555625 0.41990257756785154 -0.13315563049215595
C -1.7658191203250508 -0.34471806237309693 0.8041505564111372
H -2.148507526838996 -0.19996484355922653 1.8195254832836776
H -0.7014164163269488 -0.09755538430360498 0.7812902190965239
H -1.8972999750691841 -1.3883400268377508 0.5233345071734495
H -2.3647900212737403 1.3539898884701191 0.06625542092400577
O 1.5802419752054166 0.5247020946781621 0.27452330946225123
C 1.8964360168324566 -0.25041695929216373 -0.8619842819787216
H 1.4839304091514012 0.19216464116309265 -1.773717720654623
H 1.4431648815112954 -1.2285150622899028 -0.7099428854397407
H 2.977343609339568 -0.373168630925338 -0.9753514398017881
H 1.9936918264493537 1.3919197677018467 0.18507246201597738
