16
## STRUCTURE-ID: 6456b7d46e2bf159ed111df8 ; CHARGE = 0; SPIN = 1
C -1.0711943473252443 0.05163075125391564 0.5864934787957061
O -1.586448017152109 -0.777668322288295 -0.06165359727879897
H -1.4184837035188718 1.0939585293658973 0.7420779538864039
I 0.58852553780739 1.2574519380728364 -1.8373669053707533
C -1.0709721709411282 0.42221040454529957 -2.9687656343859383
H -0.6702530068567151 0.009190729693586669 -3.8857608791179024
H -1.5297412679254752 -0.35177797752819984 -2.3626441713865143
H -1.76851402902223 1.2230638071275557 -3.178407451258053
O 3.0428607359620656 1.8165299159353143 0.09668187221364986
Rh 0.552489361752782 -0.27589605663032235 1.7995789031107787
I -0.4276820048246397 0.8411749494832701 3.9398875995671774
I 2.0173204402430494 1.866505050823265 1.6356627521015972
O 2.4565771110023413 -1.4035128998220954 -0.23550126889619272
C 1.6612373080990936 -0.9987967582098513 0.4574140366498664
O -0.5786887074489081 -2.862180794741343 2.872569970938202
C -0.19703323985128257 -1.9118832670808956 2.3997333404308816
