12
## STRUCTURE-ID: 645666ce215c8b72423eaddb ; CHARGE = 0; SPIN = 1
O -1.0524789888157164 -0.7873916851669425 -0.5093535455780981
C -0.4418353156877897 -0.052028459898321736 0.44796562598930806
H -0.7017427169165972 1.002319490236236 0.32588467665711507
H -0.618326115826474 -0.3683295383536375 1.478862858967219
H -4.5981834280244005 0.5994014932172262 2.7087514497206695
H -1.242918979079663 -1.6964576948859713 -0.2371481751692947
O 1.043409090285103 -0.10135014003659855 0.27500032429151533
C 1.4819362557022158 0.49336105673792996 -0.9776746580053831
H 2.553680245237579 0.3322158268541893 -1.0638142709933598
H 1.2756949253545669 1.5603219872215393 -0.9229573613572407
H 0.948230797112704 0.057076798601831874 -1.8219318110143452
H 1.3525342306584756 -1.0391391345274736 0.29641488649187014
