13
## STRUCTURE-ID: 64566dfc94b9ec1de4750ef0 ; CHARGE = 0; SPIN = 1
Rh -0.7366621348781297 0.09102183290994538 0.29505500362521386
I -1.7048976166755878 2.3678189610710416 -1.2784290080579805
I -0.17182016121485555 1.4141992965174799 2.5354437893477746
O -3.289822758394767 -0.4419557964083644 1.8015108926949275
C -2.314325950887645 -0.33390141993827316 1.2253905488143
O -1.689254143146962 -1.1975013626204278 -2.238814535365215
C -1.2961024573189706 -0.7326739457999835 -1.27776522311318
H 2.748419837160147 -1.8478801260385749 0.4174447187018298
I 1.1785913192942172 -1.6947657038688342 0.8007884841836459
C 1.6858691293617278 0.4104512610199582 -0.45348613134769183
H 1.0737985209365755 1.2983580136588209 -0.6509201677782207
H 2.4955116927435306 0.7016267488926365 0.20589608421564135
H 2.0206947230206826 -0.0347977593954556 -1.3821144559210456
