12
## STRUCTURE-ID: 645668c9df109549db76345b ; CHARGE = 0; SPIN = 1
O -0.006010219738305042 0.286650218364522 -0.08865944608799003
C -1.288226160633949 -0.02516649829061787 -0.589532110882211
H -2.0003514061260304 0.22853385746941896 0.192190141325564
H -1.3673054767753303 -1.091726443921504 -0.8269636163512587
H -1.50652848551299 0.5581492008673323 -1.490467290704656
H 0.3033563434833996 -0.15536566175253486 1.7599240619128351
O 0.4462165308522118 -0.26395919535432494 2.7120410622354547
C 1.0247514852824557 0.009869526538737726 -1.0121347076042122
H 1.0456755517159089 -1.0550543720817058 -1.2684570231405121
H 1.9595899502075391 0.2882795870608941 -0.5314612685328897
H 0.8935067269972197 0.5949185045834657 -1.9287060710688877
H 0.4953251602479025 0.6248712765163201 3.072226268898736
