18
## STRUCTURE-ID: 6456714e40866f04a23ae5e3 ; CHARGE = -1; SPIN = 1
I -3.5760026797913813 -1.2889375201036815 -0.9937180639535047
C -1.8739579635406605 0.3088784526398743 0.02970992502049422
H -2.6113512706887985 1.0837893206683886 -0.025728337858263287
H -1.2235995364708032 0.13979274725718563 -0.8071520370606914
H -1.8237560542322253 -0.31613292953769306 0.8996531831136534
O 0.8944634644300535 0.6910102814517988 -1.37748285025872
C 0.5543203474512038 -2.441269261898763 -1.1274124905753522
H 1.2369652134080062 -3.186692895593442 -1.5137888546682592
H 0.6299927878437034 -1.5089253664646485 -1.6775243139778115
H -0.46495843390313035 -2.806636712094063 -1.1032391834992827
H 1.3556661538454517 1.2195525147921873 -2.03397515958357
Rh 1.1329158627047957 1.0772211155704945 0.549384392969205
I 3.6519084235999606 1.7841867073241773 0.10916205868549851
I 1.1463696015280527 -1.9951121373128875 0.9023664348444657
O -1.251940556283619 2.486869409732777 1.481510789434003
C -0.6720915906416781 1.6427199143108417 0.9126149432302867
O 1.5189483080299577 1.6897962430878553 3.4438634352969095
C 1.376107922711116 1.4198901161696134 2.3317561288409263
