13
## STRUCTURE-ID: 64568be819eb230e7d4d3030 ; CHARGE = -1; SPIN = 1
I -1.6994083269262577 0.3047628933864656 0.11204116651548783
C -2.9003832788907133 -1.1278055971593977 1.2694705278155753
H -3.714108378247316 -1.4582126789329608 0.6371984082167145
H -3.261422481472202 -0.6152349509237902 2.151624395719672
H -2.2423138341489954 -1.9491894065074518 1.5309396452273183
O 1.5303751864492137 2.313624906825496 -0.6209295133486559
H 1.3452906678676368 3.0760706169521232 -1.206695455514418
Rh 0.8015584055634808 -0.2865464530058985 -0.04528097495939958
I 0.767725424354441 -2.601334887931865 1.1732926359413878
O 3.7385026554720437 0.06354953378195695 -0.6725845603644677
C 2.560274474209111 -0.006733481146905186 -0.49756148257968325
O 1.4868498836936794 1.134113994733752 -2.526740061248167
C 1.5870596020759318 1.152935509928579 -1.3047747314213867
