12
## STRUCTURE-ID: 64566588d08f48457d763458 ; CHARGE = 0; SPIN = 1
O -0.011631882537889231 0.10415778931692993 -0.27681193762164463
C -1.3758673885663002 0.46212305411734067 -0.23307465885562748
H -1.413767252154912 1.5335428018678798 -0.050796287995474226
H -1.8937774151121418 -0.06729092429989329 0.5742549993126391
H -1.8688839736447274 0.23319247871609045 -1.1838464061962541
H 1.2092490760031571 0.8946001540410242 0.9845575237218223
O 1.9069747748230943 1.293013896994021 1.5257673237770752
C 0.18526235241901243 -1.2730279540752742 -0.5158904760024319
H -0.27593611675619306 -1.8769902479962661 0.27313382126582914
H -0.23887435418248948 -1.564963596616059 -1.482606074309761
H 1.2597422065024844 -1.4402762914604021 -0.5220066400784767
H 2.517509973206904 1.7019188393946074 0.907318812982301
