21
## STRUCTURE-ID: 6456779a687c36654467f9ce ; CHARGE = -1; SPIN = 1
H -2.3718071898058133 2.4326048985770483 4.350913456385655
I -2.7046786191199637 1.3356258188877788 3.2374392658512106
O -1.5538289052521024 -1.3289282094095378 0.7607871398513657
C 1.0525153319643659 -1.4676584328212565 -3.3953572306029636
H 0.9133064280043083 -2.5284810646623783 -3.5564726907048225
H 0.2222737832673598 -0.9227914343666612 -3.8261606668271373
H 1.9778993041304602 -1.144957769048392 -3.8528596018241847
H -1.3580940862556132 -2.2616727386586026 0.7873394942611364
O 0.49496640758464705 -2.689930535709868 1.5219158452006976
C 1.5019129395339725 -0.47608197292614596 -0.009277470175762517
H 1.094288943312304 -1.269110921307841 -2.3280063251237695
H 2.3608281878031137 -1.0870849867900878 0.24697183141777893
H 1.7957191645351853 0.5407282979048724 -0.26209100256841855
H 1.225593338517415 -2.8956596382165904 2.1020195531526533
Rh -0.715724309541604 1.911190172334868 1.0482806159033409
I 1.133740980233847 2.331158173511203 2.861563973724843
I 0.14981606469972228 -0.4824450090977017 1.4831974142061162
O -1.4822715803907687 0.49988616238608485 -1.470365202442879
C -1.2896245044412853 1.09750222438163 -0.5058666261337742
O -1.3307821404132247 4.730833968910189 0.20633915001088934
C -1.1160495383663165 3.67527299612139 0.5996890764380205
