4
## STRUCTURE-ID: 645663458f564e1c2f230d78 ; CHARGE = 0; SPIN = 1
H -3.363756048105147 0.9591984334784824 -0.47131886276120266
I -2.821562814416143 0.2851017500761013 0.8408600955039172
H 3.206281308705215 -0.43209599212645583 -0.9388040552051311
I 2.979037553816073 -0.8122041914281282 0.5692628224624166
