13
## STRUCTURE-ID: 64568bed1a9d425c8b19eb54 ; CHARGE = -1; SPIN = 1
I -1.7585983326829413 -0.5000942086697082 0.6133131234906724
C -2.5468345046702643 0.9269572201057354 -0.823933059467312
H -3.300951781417814 0.41836981837785 -1.4127043768271732
H -1.7093651010717976 1.2403310471840976 -1.440376510795443
H -2.9647819850366615 1.7604132458988804 -0.2723339146350667
O 2.4979156388320933 -1.9256804493165078 -0.1370616043169087
H 3.027127537239603 -2.2647337015598072 0.5916077123562556
Rh 0.8626805438442052 -0.9822310777731277 0.47856010223330364
I 0.48070044152863745 -2.678975236001406 2.511489827956373
O 2.243022283725193 1.3344211688914704 1.4993788995277038
C 1.566791382185605 0.848213389634517 0.6206406491195581
O 0.5835123672865961 1.1886361364846163 -1.6152155248567361
C 1.018781510237543 0.6343726467433943 -0.6133653237852429
