33
## STRUCTURE-ID: 6456c4930d0b826a18630f0d ; CHARGE = -3; SPIN = 1
Rh -2.677836665346465 -0.5030018051342176 -0.22903203706204975
I -3.5617798212479643 0.8055017897775613 -2.357056214901525
I -3.5283508238280437 1.399743862700211 1.4870458163125113
O -4.254590365377917 -2.564788765689054 -1.2414171393817028
C -4.275284703039384 -1.649865523938635 -0.45393266951527345
O -1.4734761964048493 -2.8230739121264885 -1.4614752736271035
C -1.586537882234126 -1.6060958594571624 -1.3465471835443719
I -1.975826757335807 -2.114594305577635 1.7858271320667305
C -5.509494790760489 -1.3263210418045064 0.36512216368294736
H -6.247396055149637 -2.1016741054971524 0.16781442233370275
H -5.279691590481124 -1.2956916811792214 1.4298588745154093
H -5.905926205125708 -0.35515689421327007 0.06625112963843886
O -0.572279752159521 1.3142311562724882 -0.34497391323221677
C 5.023646081821464 3.494302198480709 -0.06820733355061274
H 5.061246084277532 4.477848085396546 0.3932133923415632
H 5.280222383793858 3.525063444751084 -1.1228737621175064
H 5.614408134663742 2.7619413541497733 0.47897577118041285
H -0.7298074822042269 1.9222811833957802 0.40630288642385026
Rh 1.8634821969009416 0.6184549017754446 -1.1425979655092555
I 1.8351110717819663 1.2192916067531558 -3.667583828843255
I 2.8830966350337994 2.8470339903609188 0.05402098794233844
O -0.49892909244254674 -0.8494662202194302 -1.9701579149400172
C 0.4252554200116326 -0.7958667032691279 -0.9374125319321883
O 3.547842012031739 -1.6683346035548317 -0.8289347335008956
C 2.9980917759823593 -0.7326096528807498 -0.3682169384662581
O 0.8259131199126712 -2.069409344267355 -0.47368538128487064
H 0.1729250779504758 -2.719291203436185 -0.809143374711219
Rh 2.524137029445501 0.05998728870818285 1.3766895645294093
I 5.070649209275784 -0.040124091627204955 1.8154529176384464
O 0.35583445557027693 0.08371588914230449 1.3548973144317176
C 0.2052293265516151 0.2071764778215719 0.10246005236441166
O 2.0882164714408393 0.22686705416504682 4.3314227329101
C 2.3019016966916865 0.25192543022144237 3.207893037808155
