12
## STRUCTURE-ID: 64566a8eded8286fd84d303b ; CHARGE = 0; SPIN = 1
O -0.9313357214587589 0.100497588998355 -2.5599342565821352
C -0.7977828030773488 -0.013896916760751702 1.1977807338530866
H -0.4246879988718752 -0.44632714652566596 2.1323347818813514
H -1.7730102702018349 -0.4347096393921608 0.9642165758222534
H -0.883661338256596 1.0719881100862536 1.3161941969633042
H -1.171591452557702 -0.7793834907516498 -2.8607022097486428
O 0.054447685794440745 -0.33744492835276857 0.11981097204573968
C 1.3745745203956115 0.12578201514078527 0.3079548635879921
H 1.3953469971654375 1.215759519083574 0.4154888406805562
H 1.9375803775319713 -0.164417633853731 -0.5759832468065208
H 1.8234263835470308 -0.32948928593505294 1.1972986390798328
H -0.6033063800103645 -0.008358191737167177 -1.6544598907768346
