12
## STRUCTURE-ID: 6456673ec146b5758d40f1f8 ; CHARGE = 0; SPIN = 1
O -1.7051128916720208 0.8139993117325381 0.4168061678767536
C -1.5849928574216683 -0.3380526627923367 1.2182393000517868
H -2.5741029923808534 -0.5465324804859157 1.6246889715447352
H -0.8880279094337582 -0.17838066202555974 2.047790488945047
H -1.2524943652390732 -1.2014702572434426 0.6332438314132288
H -0.8383311369180833 0.9950190764441496 0.013201129656994194
O 0.9992358222349877 0.9565198456697503 -0.5745645056624197
C 1.4539540627729777 -0.2271627907600232 -1.1986311772497036
H 2.313307808455598 -0.03184813341564359 -1.8449164980309183
H 0.6311749273497183 -0.5958929939673251 -1.8086242291094352
H 1.72103410561757 -0.9882103925989663 -0.4592037308949154
H 1.7243554266346353 1.3420121394427709 -0.06802974854118249
