12
## STRUCTURE-ID: 64566b3f1dd6cc3476662c6e ; CHARGE = 0; SPIN = 1
O -0.7985482243966477 0.31341487496209497 0.7545132450524589
C -1.1973442377039785 -0.14731386235828564 1.7912469569423555
H -1.7839641368562626 0.44648105427646373 2.499673103100056
H -0.9989522184017786 -1.1838305758070138 2.0893986397733433
H -5.152871267507956 -2.16278846623969 0.6297472661727064
H 0.06066440071686308 -0.032950026195609064 -0.5913067885154047
O 0.6739571614921497 -0.010407299295167484 -1.401125299342557
C 1.9806135051616371 0.47312666813504756 -0.9951441370570693
H 1.9190488572780093 1.4614043538483674 -0.5441807711320825
H 2.6207597566338228 0.49454000009790355 -1.8736463764843363
H 2.3832085826548477 -0.23731652803675646 -0.2777653470373754
H 0.2934278209293893 0.5856398066125991 -2.0814104914721163
