12
## STRUCTURE-ID: 645665a350588f236162319b ; CHARGE = 0; SPIN = 1
O -0.19947308119164237 0.09492517723455593 0.2083385732122884
C -1.633132643541431 0.05422465761362893 0.018224511948247046
H -2.0945563736955437 0.19787345504388099 0.9930420374210923
H -1.9536715209902127 -0.8909745171475225 -0.41955245223414717
H -1.9020677615684904 0.8835497259733919 -0.6334132683848267
H 0.08874997268016156 -0.6168683975759562 0.8255318696046299
O 1.8598734652179034 -0.38834294515092704 -0.7523454106754209
C 0.5976796649562873 -0.033141200155870666 -1.0652774810114116
H 0.14944579497769261 -0.8344132142714549 -1.6632310596184994
H 0.48620095374241523 0.9437903375560556 -1.548088451968739
H 2.390941119502567 0.34683151325897604 -0.41353440185070917
H 2.2100104099102915 0.24254540762124252 4.450305533557498
