12
## STRUCTURE-ID: 64566af07e3d68701839082e ; CHARGE = 0; SPIN = 1
O -1.701759439981567 -0.029022118542454293 -0.7789126120040887
C -1.9816712645048082 0.15611762506146956 0.5883664313309608
H -1.3918835031784793 0.9777243433651666 1.0095992946964714
H -1.7878434612049148 -0.7543007641411282 1.1643219498998016
H -3.039201525331058 0.4061901824897602 0.6665238802373584
H -0.771308371736961 -0.30686843727916735 -0.8613601216210199
O 1.0733687465915671 -0.7296159585030016 -0.7975812805638972
C 1.8747764129612126 0.12252182100434074 -0.003421689197182727
H 1.3703766773942627 0.22367584186836276 0.9557769899047722
H 1.976515412293582 1.111125170653486 -0.4598141478545069
H 2.8663825043678233 -0.3056597707876147 0.16149827349853102
H 1.5122478123293435 -0.871887935189216 -1.644996968327202
