18
## STRUCTURE-ID: 645671ca18305e37b7610ac4 ; CHARGE = -1; SPIN = 1
I -3.2280674420297397 -0.5990207270693585 2.674867679920611
C -0.8426451938055264 1.444613222680634 0.10347711347233522
H -0.7822481405479684 2.5125497256085296 0.3166399502233394
H -1.8136536759435775 1.22102203852265 -0.35884370483839967
H -0.039851110555366755 1.1853066387641338 -0.5879867442877539
O 1.9214676878276442 1.0153390833035245 1.0942714193321739
C 0.3718440365453575 -2.31283638487944 -3.639938787618132
H 0.9567714212608707 -2.9870492648837157 -4.250607791751186
H -0.6188406213472076 -2.1687068517164727 -4.049330941950611
H 0.31609783575671474 -2.655866604734888 -2.614439818756571
H 2.875473279100331 0.9587280037968993 1.313027031362298
Rh -0.7934295451813167 0.2233709767563235 1.8025891070213342
I -0.3254851067540672 -1.9383053224670084 0.4237974922733628
I 1.3596238439797799 -0.4105429492473219 -3.6387876598435147
O 1.575025590551892 -0.14251925898552137 2.975960132069136
C 1.1522068015645281 0.398279759320327 1.96468324598367
O -1.0889911845749796 2.570185833260605 3.5991589244304
C -0.9952984758473742 1.685452081970242 2.871463352957478
