12
## STRUCTURE-ID: 645668aa0539b943232abdd0 ; CHARGE = 0; SPIN = 1
O -0.6937385735637116 0.19523451755294058 -0.6503241548861195
C -1.5750317792120463 -0.32569455159977134 0.2873597868113671
H -1.2166241391877808 -1.319802780707214 0.5751776166204328
H -2.549062915257384 -0.47714516049026 -0.17983447464145447
H -1.6707571673360817 0.32179209208189236 1.1635951720392173
H -1.6525078218327436 1.4624391856469026 -1.6217361842638527
O 0.8000133069000499 -0.6305965690077735 -0.3211049717769196
C 1.6986255938221437 0.22893302857338077 0.3631562571304844
H 1.8113081255123942 1.1862919612510872 -0.1449995552140004
H 2.661244311289679 -0.2851001849504389 0.4166572946294385
H 1.3082320436110064 0.38647921831155974 1.3668699295661335
H 1.0782990152544791 -0.7428307566622956 -1.254816716014741
