12
## STRUCTURE-ID: 6456678e424683356476345e ; CHARGE = 0; SPIN = 1
O -1.0342058992359413 -0.08187097949984963 -1.08243906025759
C -1.9097767105281256 0.022335146285502372 0.022553236731062742
H -2.128618937728098 1.0673933387748984 0.2591092235243841
H -1.4023359296537865 -0.43547884763986233 0.8697340996783255
H -2.845170414674647 -0.5120921509228852 -0.1609321224699786
H -1.4680696610479314 0.28568566124060363 -1.861921767798474
O 1.729100276897308 0.5047811755127544 -0.599313982479978
C 1.99809810506627 -0.16673955347751557 0.6085291491770806
H 1.8143258051354123 -1.2421721327368027 0.5193832513649616
H 1.393838961823396 0.23198651280851004 1.4307691993216745
H 3.0514488551529637 -0.005287053471440823 0.8353504580891624
H 0.8013655487931919 0.33145888312608973 -0.8408216848806358
