12
## STRUCTURE-ID: 64566897d9b40a3473399e48 ; CHARGE = 0; SPIN = 1
O -1.1913219794748724 0.9038792153888072 0.3333996783344532
C -1.4379211333326438 -0.20505702579688392 1.175246099948382
H -2.045758154305901 0.07901493051435857 2.037706721924112
H -0.46856736803176474 -0.5541540174666594 1.5264423387585941
H -1.9339193201929314 -1.0139646048197914 0.631416655257019
H -2.035418317424441 1.266271082559383 0.0381347536093817
O 0.8219401744851659 0.39873163492400066 -1.637187833581145
C 1.835356427438298 -0.2501641486273637 -0.9065010972272324
H 2.243553908289728 0.3980459120857716 -0.12445888151869942
H 2.6287651931268297 -0.49731617701068054 -1.611030733788545
H 1.4683543563375787 -1.174804877862389 -0.44824145800248427
H 0.11493621308496811 0.6495180761114308 -1.0149262437138398
