18
## STRUCTURE-ID: 64568a4a3c02bf6401248ad4 ; CHARGE = -1; SPIN = 1
I 0.23536920955220478 3.5071960635698383 1.4248402133121079
C -2.467395421227684 -0.06061971867220187 -0.2693481131389304
H -3.0673252699407745 0.8379868159399928 -0.10006052197955759
H -2.7096096943001218 -0.7804617037723013 0.5174909253296648
H -2.753113570163142 -0.48550375855247957 -1.2339454588530996
O -0.12718724667430928 -1.1854863829697122 1.1480835080969203
C 3.190055523811242 -1.3343321145543314 -0.04179662065674048
H 3.237448489793918 -1.549497136106365 -1.1036874831121113
H 2.4810933797886427 -1.9873775524461321 0.4557380414184119
H 4.167069666386213 -1.378227772686325 0.42364607992154496
H -0.5235020907159106 -2.027514266371894 0.9023128424606346
Rh -0.40829366436757464 0.32835831513234653 -0.19356210320031383
I 0.10613710418463215 -1.3260275105153703 -2.2682153755031296
I 2.4298983741501714 0.6766088786858223 0.20130570110700896
O -1.466527365674716 1.2039213353019966 2.3590682400888165
C -0.8285607249041242 1.3738137782480144 1.3949092198431918
O -0.8452757862454892 2.4953874121014556 -2.205239211494226
C -0.6502809134570234 1.691775317670308 -1.4115398836423643
