19
## STRUCTURE-ID: 64567ab128c49e3d6f750ee4 ; CHARGE = 0; SPIN = 1
H -2.3244265576079606 1.4900074757033424 2.3355244236719894
I -1.5082217517063992 0.17478287560051264 2.717076687003287
C -1.9898849295461318 -2.1849007495921775 -0.3045733084407422
H -1.8469854535993278 -2.850135376519638 -1.158071481443413
H -2.8485797550010314 -2.5304008733267205 0.2720322256765435
H -2.1815432766773104 -1.1655667188780805 -0.6806020102496737
O 1.9798637559306962 1.188328239983904 1.1033619342589356
C 0.9806641763227516 2.4914282945549178 -2.1613319767309314
H 0.808009594613072 1.8237199182786195 -2.9965585189085
H 1.8664829297218661 2.1957629020613525 -1.6136649734964246
H 1.0338900003961753 3.524372489502901 -2.4795528218430722
H 2.7760306297870914 1.4780761630447838 1.5927432102166243
Rh -0.07217831377808943 -0.43210040775778474 0.466139896655033
I 1.3830240978225454 -1.26327773167971 -1.5640446429182044
I -0.6853612935668126 2.3117130076937125 -0.828927865300135
O 2.11879217959807 -0.8076035965129625 2.1527491193779844
C 1.5920343767719136 -0.04175388993724719 1.3908561465092226
O -0.3167721448559157 -3.145615531248256 1.2026567328391589
C -0.7648382646252104 -2.2568364909715073 0.5541872231223034
