13
## STRUCTURE-ID: 64568c11e28a5b27895c0afa ; CHARGE = -1; SPIN = 1
I -1.1086069338936582 -1.086452336333344 -2.3716368162478565
C -1.50381472750658 0.6221434061887511 0.440618880355551
H -2.1938271367865716 -0.2068991919894724 0.6049354176660956
H -1.9893196633785775 1.3586830716612937 -0.19942776380523541
H -1.2604703340639576 1.0798383968618905 1.4039473242333953
O 1.1001372215314702 -2.895344637214594 1.9885905708697118
Rh 0.3194778992517824 -0.11597818827025287 -0.38620390329540843
I 2.8158618412379264 -0.8936360765936222 -1.3883066533526112
I -0.03278338339604252 -2.6098393178693895 0.5406624124239847
O 1.1334750268007732 0.07564098451826948 1.752193183381586
C 1.569375414911194 0.857330119537826 1.0299499864955735
O 0.6384562266042149 2.352276180805867 -2.0524834127782876
C 0.5120385486880483 1.4622375886968104 -1.3628392259464763
