15
## STRUCTURE-ID: 6456b6f2370d2060322c50ba ; CHARGE = -1; SPIN = 1
C -1.3147905625836211 -0.35866670959541663 1.260007561761115
O -1.3325077650210784 -0.29001943457185725 2.4790638144355803
I 0.2741713099077037 -2.2616357512628467 -0.3151175783240054
C -1.6178125807658732 -1.6557424699119805 0.5184216446537643
H -1.9665285257910592 -2.4302718689254594 1.2002524054393489
H -2.306370809738543 -1.492754041637018 -0.30963329431011755
O 0.7026627695760913 0.32560363324839353 -2.232938735004857
H 0.8235183265767725 0.6804007888807382 -3.1396731187800433
Rh 1.1001370874500933 0.27132152639316964 0.47729497336441223
I 1.0883287754316442 2.3830594844444297 2.0488594636905826
I 3.6316395989827286 -0.4595278386721513 0.8334933092031137
O 1.8966514773082028 2.07834604865323 -1.4906496908733562
C 1.2882044860534458 1.0598873367062946 -1.3010477145524024
O -1.4417673072261574 1.4533721846279664 -0.3669534362786429
C -0.8255362801603366 0.6966271116224338 0.3386203955754813
