18
## STRUCTURE-ID: 6456719f888bcf15e132dfdb ; CHARGE = -1; SPIN = 1
I -1.5534278271272268 0.7591718917755831 0.7701848281765572
C -3.1724944763161953 0.9113318155077572 -0.6518336477287262
H -4.084919678670876 1.0841408786973918 -0.09634154376303403
H -3.213488311693917 -0.021140754666157918 -1.2022663201353372
H -2.9482213769042644 1.7348060149650673 -1.3193161275515863
O 1.9665920877904268 0.5435178992846434 -0.7174843455481362
C 1.9912037940885727 0.6263251037557883 2.511631738270625
H 2.03142944427599 0.5502427450820491 1.4294887180048044
H 2.3884924845663957 1.5762374713588578 2.842305251681733
H 0.9781567036452039 0.4834450554782996 2.8669215688913305
H 2.0461917868460735 1.3528231292706265 -1.2318800779836292
Rh 0.4334589268912359 -0.6672824838701156 -1.3388388348735873
I -0.23839753397403096 1.0642752416858212 -3.19949064345398
I 3.2064712971552565 -0.9215575273718886 3.3344211188490256
O 1.568425934377596 -2.761693265994254 0.4702088197642432
C 1.1232191275069672 -1.9492274046436209 -0.2141260093622821
O -1.6639131447751905 -2.551157918846471 -2.3223660238097614
C -0.8587792376819926 -1.8142578914693672 -1.9312184694282772
