18
## STRUCTURE-ID: 64566f1ca659b316f8159870 ; CHARGE = -1; SPIN = 1
I -1.7951253384165216 -1.472750817362191 1.3339716274232865
C -2.4669018179425204 0.509212098529576 -0.7767108986572658
H -1.991788632284573 0.7156524728913343 -1.7199393042832205
H -2.6305026220743972 1.3425395094251238 -0.11711601900155968
H -3.2313680206965696 -0.24369661171842255 -0.7971061598471351
O -0.11226815889387663 1.5914107413425713 -2.5411479070856924
C 1.0328140880540666 -0.7705006344431083 -1.701514957161511
H 0.8921962661518498 -0.44608607161660674 -2.722022744546601
H 0.4111018375293412 -1.6303361824989522 -1.4704625770243067
H 2.0757326658517417 -0.9897400732012029 -1.4993078047177721
H -0.35531927437876454 2.516464035513545 -2.505122461883701
Rh 0.6088347769070522 -0.36091252553406916 1.9125932338511893
I -0.4131331121110979 2.175958425323118 2.570317896485703
I 0.43491219440379386 0.8194359957119991 -0.4372005937964971
O 3.419398832594756 -0.6353692091028591 0.861129721877701
C 2.3569516098393253 -0.5640441277626691 1.3248974117563304
O 0.954687006638844 -1.496974313648489 4.670899786335643
C 0.8097776988275487 -1.0602627118487225 3.6138417502754177
