13
## STRUCTURE-ID: 64568cb7ba8c7b7e8040f1f9 ; CHARGE = -1; SPIN = 1
I -0.7162215973960931 -0.6038765998463017 3.3685948692786187
C -0.7267141063184649 -0.3751070139155947 0.4357781682902892
H -0.9973474250308051 0.4728478570724243 -1.8814091885082174
H -0.7431702355548797 0.6704987553234597 0.7515150968198872
H -1.6702272828846725 -0.8971811690389528 0.37778623296617486
O 1.4877453484932668 -0.10512518079778621 -3.191899330812757
Rh 0.323501912814304 -0.27431857590693626 -2.0249984340212532
I 1.7521993310664077 1.822204566142239 -1.0808363622464419
I -0.8182607389045414 -2.5171955112702604 -2.6028367110101915
O 1.4117810081828595 -1.5979075140044496 0.3338919175688466
C 0.4287002705801039 -0.9846000359542235 0.16580304027473458
O 0.48020220000150693 2.4944699054823203 3.015689186285691
C -0.2121886850489815 1.895290516714085 2.33292151511459
