12
## STRUCTURE-ID: 6456b7825d5a4329672b66b3 ; CHARGE = -1; SPIN = 1
C -2.3092379666880536 0.3501999523085001 0.21997749687510723
O -3.218671209971056 0.8026157848744911 0.7529219922044235
Rh 0.8067455036318875 -0.016065004307678706 0.6716156718641013
I 2.5951039546018713 1.7672184990822515 -0.14230233709855195
I 2.6970324346837153 -1.4367921532427066 1.7965285542704261
O -0.832946030331182 2.4201349440136077 0.46966049674266636
C -0.4394329680892875 1.3336707935073655 0.37898099844701644
I -1.0886412740515867 -1.5651572263580416 1.7402116379361763
C 0.4773746629674865 -0.7986819317455461 -1.2372834621047406
H 0.8522677920401494 -0.12719973288501432 -2.0114092205445204
H -0.5841206727332584 -0.9915622437493085 -1.3972730137600364
H 1.0445257739393063 -1.7383816814979092 -1.2416288148320613
