14
## STRUCTURE-ID: 64567b45724f3313276b0e21 ; CHARGE = 0; SPIN = 1
H -2.890991457463716 -1.1410406892618916 2.615614013561287
I -3.5560397313223806 0.16027926761816777 2.0488228551371432
C -0.6999543026766183 0.6596790338217071 -0.752217857639768
H -0.5995143858364009 1.2574143033804028 -1.6568333947094118
H -0.8605909242420231 1.2983480842380895 0.12207296603421867
H -1.509097114513043 -0.06778136354820388 -0.8512923635051386
O 1.5443895061625714 0.5955816666302357 1.349764918287443
Rh 1.0626500852291523 -0.41201216861335344 -0.31352015700838776
I 0.03746286738709759 -2.3696523787039485 0.9963994618260216
I 0.6812693782251411 0.7375431397934835 3.11060625607261
O 2.8295440766853335 1.8620101442822292 -1.092856659060036
C 2.123136307609557 0.9907687754934554 -0.9521336850682752
O 0.904291347999675 -2.13550375871127 -2.758129136443484
C 0.9334443467558262 -1.4356340564190253 -1.8662972174843349
