15
## STRUCTURE-ID: 6456887aabfe9843065fdab4 ; CHARGE = -1; SPIN = 1
Rh -1.724326623673189 0.3100484054365162 0.08431254766878661
I -0.7220546674244606 2.1700657651974185 -1.5261885815911727
I -2.0328065469150465 1.9473090998125024 2.1575819329516954
O -3.3893471697400916 -1.5739643586217982 1.7007421284943998
C -2.7292416414263765 -0.8729302631147322 1.0714198970427677
O -1.73696566211453 -1.3860216764157494 -2.3709187105306033
C -1.7485971760004593 -0.7525987089331952 -1.4088199148653657
H 0.8587910774324883 -2.0708244696620346 0.4426396994386452
I 1.0882064902766029 -0.4425155471827071 0.9764845839762977
O 1.7375579360921742 1.5597818892984943 1.2088560451552426
C 2.102838023834555 -0.23328106041248292 -0.8862028374399388
H 1.4383954619993526 -0.571287033283709 -1.6724131097202062
H 3.000645862847327 -0.8357869334033615 -0.8418231447461159
H 2.3335905405391117 0.817390391724431 -0.9962284417328842
H 1.5233140942723697 1.9346144995600525 2.0605579058974426
