12
## STRUCTURE-ID: 6456699769469451b132492b ; CHARGE = 0; SPIN = 1
O -0.30999358419975315 -0.3920670374066198 0.20982316299096487
C -1.5608793267763745 -0.10807336157988275 -0.4695711463793207
H -1.9231872797086875 0.891537335002922 -0.23326938564526903
H -2.2795819568086313 -0.863233183776827 -0.1598031637542467
H -1.3684090082781504 -0.19450972099433228 -1.53812422679072
H -0.4087364374038014 -0.25216034184220126 1.1754559180374267
O 1.0770430735864494 -0.006219307313444459 -1.6008406851904473
C 0.8485497854769024 0.4066929913375511 -0.341642580514969
H 2.162055622834008 -0.3247054771298415 4.596677068803497
H 1.6637684954522929 0.2358391647962839 0.36847602462431817
H 0.5508893885582913 1.4594803153865845 -0.36799252693114853
H 1.5484812272674473 -0.8525813764801902 -1.6391884592501
