12
## STRUCTURE-ID: 6456678f1f2eff356b32492e ; CHARGE = 0; SPIN = 1
O -1.0228432096821396 0.24434034765838764 -1.0010021418866306
C -1.961806350452513 -0.06269883387269817 0.010302142897198814
H -1.4732175542904244 0.13340311809230623 0.9628840802739038
H -2.2580598087447865 -1.1144687643454452 -0.02830187150376354
H -2.850054952699271 0.5690071962118212 -0.06886547770189386
H -1.430665368078462 0.09563178836003557 -1.8627430753786784
O 1.6333929981740045 -0.6687475560474742 -0.480936447491251
C 2.0613209675170565 0.14410817765204795 0.5857846022708165
H 1.4398707936230952 -0.003195206904324943 1.4757922931023306
H 2.046212282031527 1.204034498618364 0.3132949011495501
H 3.0846865128610315 -0.14800827060352129 0.8189418028286661
H 0.7311636897408811 -0.39340649481949425 -0.7251508085602554
