15
## STRUCTURE-ID: 6456b6ee82270d69121fea79 ; CHARGE = -1; SPIN = 3
C -2.2222029528308127 0.3015087089889137 0.5131415527148712
O -2.776171007578973 0.4023716404453096 -0.48398698412871966
I 1.7978547101148337 -1.3780431326601883 2.364542831863012
O -0.47501527579148745 0.3009433121730215 -2.1820339671344757
C 0.25648452805104677 2.214535617470795 2.506919382194803
H 0.08188003068737122 3.2314538293975628 2.7962800434503543
H 0.6888547787657942 1.4823287372852578 3.1614171188120426
H -0.8000723372055174 0.3510512206255312 -3.104326515119131
Rh 0.4846987218351418 -1.1047090349454771 0.05363908401995503
I -1.5930677988939899 -2.6146676130817963 0.7772910364168026
I 0.22162095700242043 1.8008445550325403 0.4854463579127668
O -0.4074542662564708 -1.8951435767535338 -2.557861247123547
C -0.24016227024538023 -0.9665511144313705 -1.786539340939888
O 2.945903654738894 -1.1022192140994305 -1.6248584877527135
C 2.0368485276071353 -1.0237039354471198 -0.9190708651861466
