12
## STRUCTURE-ID: 645668594552ec16a728a813 ; CHARGE = 0; SPIN = 1
O -1.5414991573025487 -0.023353856717710075 0.6023379973916874
C -0.8949468163373185 0.37958052791564434 1.6318966675160544
H -0.8818650171536404 1.4660646307492724 1.8301690969211863
H 0.43590068014852407 0.17003823780597713 1.4153599769196095
H -1.0087569387045174 -0.19851079956777223 2.5661675462543103
H -0.5099362432309378 -0.7502090696882786 -0.2946843506047532
O 0.4523150136367517 -0.9334736231497761 -0.6033754492246157
C 0.7192963417640515 -0.09307920526346627 -1.7215174937642745
H 1.7932662533808252 -0.11314030144869228 -1.9009434799477982
H 0.388775985856053 0.9296116738949218 -1.5422773621001598
H 0.19485717924367899 -0.49242408547649336 -2.5896876245308036
H 0.8525927186990807 -0.34110412905361365 0.6065544751695625
