12
## STRUCTURE-ID: 64566bc0b3041a31624f734b ; CHARGE = 0; SPIN = 1
O -0.15561778912867416 0.19796976433703095 -0.12751527145536892
C -1.2313388444878082 -0.27800263259764185 0.6523688694152522
H -1.2460205546766963 0.31666158177865655 1.5626876540866481
H -1.093896526596411 -1.334910068799013 0.9057721721063019
H -2.180890070176137 -0.15931739400752098 0.11963215343898714
H 1.4609339236228953 0.6835423629187194 0.8067317447867599
O 2.2385511876706485 1.040602724633407 1.2607960951400332
C -0.022268287514953185 -0.4880303620632679 -1.353614711346923
H 0.16425158632855882 -1.5547492237463738 -1.1876959800422744
H 0.826085315779638 -0.0450306888001123 -1.8699479557300895
H -0.925042125514302 -0.3744072450304822 -1.9632838596500983
H 2.165252184693239 1.9956711813766006 1.1940690892507704
