12
## STRUCTURE-ID: 64566aefc6a90a4b143dae53 ; CHARGE = 0; SPIN = 1
O -1.5903202610447422 1.031420637111614 -0.5418201020036569
C -1.169141966569305 0.2679845692890188 0.5562205334646837
H -1.6197778157744591 0.6915992138462854 1.454165415590317
H 1.5105208414695308 -1.977648737468664 -1.739122906492983
H -1.4927836889564923 -0.7781577412633173 0.44434843811910835
H -0.9511614728588241 0.8358277254660638 -1.2526539110901678
O 0.9320184631619619 0.1323046753695821 -0.6108440096231228
C 0.37065183255493545 0.24815863965009718 0.6066867673366181
H 1.056332407838561 1.2566237781564629 0.3381653856606996
H 0.7473810162289424 -0.45479741586468336 1.368683642349695
H 0.6187533746618469 1.4757846294729389 1.3117013656625256
H 1.587527269288052 -2.729099973765369 -1.9355306189737207
