13
## STRUCTURE-ID: 6456888abec0582ba16f2c9d ; CHARGE = 0; SPIN = 1
I -1.30727774493173 1.3621193704708212 -2.2384000316461163
C -0.9457708518964942 -0.7777859790755646 0.9702342251035799
H -0.8905588239091645 -0.5144524178898118 2.026536733589695
H -1.048038347560681 -1.85644373687834 0.8599578744082091
H -1.853063455676189 -0.308696399323353 0.5652046850281782
H -0.8251163158723991 3.3770366049483007 0.6197392067229986
Rh 0.4177371581110983 0.27111479962682694 -0.4406909453013164
I 0.3885152176391643 2.531559814656564 1.202456782956966
I 2.7447371145740016 1.0413535648803904 -1.712492953933715
O 0.30085754476615567 -1.7658314657148972 -2.6159507403439064
C 0.31274493408812337 -1.0001040848415133 -1.7761906693797642
O 1.6291673928322215 -1.5217887030879385 1.6351566772301465
C 1.0760661778358929 -0.8380813677714868 0.9044391555650559
