12
## STRUCTURE-ID: 6456649f5c728f0f3340f1f0 ; CHARGE = 0; SPIN = 1
O -0.7811511454952496 0.19095315364505125 -0.47409907912484145
C -1.5298928240091991 -0.47834559012285954 0.4832327063622006
H -1.6725092208886938 0.12620377051085518 1.3830685247985246
H -1.0036564764571727 -1.4048807824141776 0.7361877520394896
H -2.4921060743855707 -0.7714958385369023 0.058549790914470726
H -1.9377971298971841 1.4745362190089646 -1.2069572519320455
O 0.7841147282045393 -0.5556364542750669 -0.39479635259253415
C 1.7468549296865878 0.3655024040850954 0.09330500640452834
H 1.5212928853127607 0.5595322335057471 1.1402827402848756
H 1.735776116345994 1.3005305393117297 -0.46580966468524815
H 2.7248724683096577 -0.1141553493040673 0.006072056145502032
H 0.9042017432735405 -0.6927443054143658 -1.3590362286149305
