18
## STRUCTURE-ID: 64566f48aa0eae57af37418a ; CHARGE = -1; SPIN = 1
I -3.151133682833761 1.2168917214552708 0.15745361501705607
C -4.47993731426244 -0.5183364864565718 0.30376398059555987
H -4.253257735725788 -1.1568930909001092 -0.5417291471072796
H -5.493036432985273 -0.13246249523563638 0.27891882350647584
H -4.236427838796599 -1.024065622084955 1.2330502262031569
O 3.9244570727986035 -1.5455202482248875 1.0672072541138171
C 3.018915184446241 0.6730590229806379 -0.18292616574726894
H 3.9988729776156524 0.22793248861932508 -0.25761690966605094
H 3.0491291668412455 1.5438046127965117 0.46395538526897245
H 2.6404185693911746 0.9431752757753696 -1.1645998808735418
H 3.908641527587884 -2.3699658181517926 1.5526041853866637
Rh -0.5788335150340351 0.3365307821200445 0.07191713435813823
I -1.139014355837224 -1.981234394772058 1.1633213475592432
I 1.7551993196528093 -0.7734684889257167 0.6590533973749536
O 0.8065908954113029 2.97069312206961 -0.18134792178900397
C 0.23655477383457055 1.9595346267759124 -0.10526137162312435
O 0.44734400659036805 -0.045357573530225605 -2.6012595178831064
C -0.4544826186948043 -0.32431743431074284 -1.9165044346947293
