18
## STRUCTURE-ID: 645689401914de3eed351d6a ; CHARGE = -1; SPIN = 1
I -1.6123453038726334 -1.078913630141021 -3.066435989089309
C -1.7892552660088696 0.8439238195120073 -0.30797203052369765
H -2.4189097732431706 1.4991626203384234 -0.9247519421278758
H -1.5478865185323487 1.3787668064905358 0.6159555205864783
H -2.3778649008673147 -0.04196048471472434 -0.057420649086906056
O 1.1430912567542573 -3.1775726336979897 1.49216861728222
C 0.10111228550378619 -0.720547679294457 2.0268695788560662
H -0.9809420691549245 -0.7437451726127342 2.057568340534124
H 0.4894405704315295 0.2894982365104255 2.079989153088344
H 0.5396868613083744 -1.3598851237768437 2.7832521414182216
H 1.4917975717421 -3.9365490919000434 1.0153987939013476
Rh -0.10095529603580243 0.3865583333900024 -1.4490893793580402
I 2.231843875136615 -0.07948083271923118 -2.865753702112465
I 0.744483381603173 -1.5546308855635824 0.18286245702736992
O 1.8525990284838354 1.5183537489526273 0.57202417893591
C 1.1298719814933345 1.4912215015284915 -0.40659966970471834
O 0.3886109997354125 3.0806636061024055 -2.249477392498906
C 0.7156213155227354 2.205136861595659 -1.49858802712822
