18
## STRUCTURE-ID: 645689dfdd17fe0a3f32dfca ; CHARGE = -1; SPIN = 1
I -2.209538974344636 0.7457771101295454 -0.5958390117117286
C -1.4084021100597224 -2.194143420847573 2.0969635475429205
H -1.7859106844636683 -1.2380662303627623 2.4528778158408437
H -1.10658604768945 -2.805229218835316 2.946845027076404
H -2.190233266006974 -2.7241472808273564 1.550907151967617
O 2.1922366448044364 2.3411166811619877 -2.6781359080620026
C 0.7218827143525911 2.603404175754416 -0.37453058040729825
H 1.619292429605229 3.168750395674845 -0.5881928950540604
H 0.7881008941349379 2.1028326612529793 0.5853233938184929
H -0.16824881416045878 3.2190081104932897 -0.44017052964760217
H 2.331014342194822 2.1629249017410346 -3.6106599248929574
Rh -0.28034795341110724 -1.0294695351783192 -0.7038038363403633
I -0.643090500728606 -2.0019183524910624 -3.163250023242357
I 0.6340787472784282 1.12406989668226 -1.8992241688085998
O 1.042125202831492 0.13350334106160275 1.6781347567864664
C 0.4048427320904387 -0.6975192598662542 1.074889908040006
O 0.25160136944131956 -2.9123937268126747 0.44657604114453914
C -0.19281672586905896 -1.9985002487306387 1.2212892359496872
