18
## STRUCTURE-ID: 64567258c099543f2264e480 ; CHARGE = -1; SPIN = 1
I -3.0323546201213647 -1.1459712998197658 -2.8458360628736177
C -2.9973349488895944 -0.40314705176562027 -0.8419426033119518
H -3.9882518667084286 -0.04643853416653302 -0.5959660198014555
H -2.271260755414007 0.3997661678311817 -0.7971504371077102
H -2.700303078983373 -1.2121174200085507 -0.18587933876164975
O 1.9952935951894242 1.2349680498404214 -0.5449691879351202
C 1.426947659978599 1.3137731451801657 2.6494347088392254
H 1.9433546767850565 1.5944543723459301 1.7375489210459987
H 2.0096870318273634 0.6013699128321814 3.2208437961770016
H 1.1540335958572794 2.1803479357619775 3.23660732565919
H 2.7775193877400106 1.2816004658638072 -1.099965255544196
Rh 1.0356508415047994 -0.6500332649102748 -0.5531180492702844
I -0.38496753809652895 0.33101058124868943 2.041778943834035
I 2.9124638167296664 -1.816313523747072 0.8826655923100483
O -0.44649132651087403 -3.1995017610445236 -0.9940639589549679
C 0.1196348706741287 -2.20586120380064 -0.8122139961229247
O 0.09972934248201218 1.280853160983761 -2.6367331780895973
C 0.3466493159558201 0.4612402673748803 -1.861041200091994
