36
## STRUCTURE-ID: 6456c7a1a39bcc1c7c4d303e ; CHARGE = -3; SPIN = 1
Rh -1.3836458238320466 -1.2473798757514138 0.5342702640736057
I -0.996186483444585 -3.220237678064956 -1.221477527753448
I -1.8993717065894835 -2.887072674854719 2.5023349248787117
O -1.1669562696107096 1.3730370269479042 1.9105759546565582
C -1.7822189408781703 0.3170528345498562 1.704321568905842
O -0.6311754907080797 0.509956920227929 -1.7458965365124453
C -0.9022592524625287 -0.1171209294486956 -0.8023134926865286
H -2.6582835144776316 1.7714255044802236 -0.49403416626129976
I -4.111764397884594 -1.3680825981144942 -0.20047987477094767
O -2.9769618942922005 0.1793285789691227 2.323282546224733
C -4.79245000207958 -3.485749590181473 0.045852897371227996
H -4.158076149016644 -4.110264299562966 -0.5780925186663584
H -5.827767237947013 -3.5045577970865835 -0.27720527363711744
H -4.68275618700213 -3.7445179933286803 1.0959823948524805
H -3.19269956102259 0.9094992376080359 2.9373584128618146
O 2.689900890284076 4.225326424199831 -1.7609643730299038
C -0.02910533134767515 3.1713035442463124 0.11722419559234953
H 0.5180951944090578 4.018900636256165 -0.2780770077650705
H -0.6487354315185048 3.4641390729759314 0.9595886810525404
H -0.6613813652261075 2.7627597572633658 -0.6658792641055206
H 3.5876476562162853 4.299154614083489 -1.3860331010951066
Rh 1.1604219192177556 -0.9158369352823273 1.2032188150540362
I 1.0509729126304603 -0.2631721120047042 3.8187608822454964
I 1.2726481137542947 1.7072777353023236 0.6630680724250193
O 1.864456344703804 -0.598761968630087 -1.6129090050110793
C 1.7394439396683068 -1.3812212481022756 -0.6767763543703965
O 1.544375636980497 -3.7461768466983645 2.0207195361896764
C 1.3324280375952735 -2.682158491929885 1.6942903237409446
O 2.2523011972774793 -2.6062035506444734 -0.7373735180855242
H 2.7729487815168383 -2.7961709523041085 -1.5506718747875627
Rh 3.225892270876146 1.4881698188214096 -0.974520223723516
I 3.864813056269542 -0.02711994688764749 1.1441940780696351
O 1.2587758425363826 2.7561258985667973 -2.585118286928335
C 2.306033426079413 2.9088676135851093 -1.9627094140492423
O 5.429336490219268 1.3729004131382063 -2.9916858828913373
C 4.6313033291055365 1.4665798576557343 -2.1728258520639847
