12
## STRUCTURE-ID: 64568e0fca793f0c7b4609e0 ; CHARGE = 1; SPIN = 1
C -1.292504595001195 0.6546039991513497 0.4419317441071556
H -1.4195337121092957 1.7080732379346337 0.1880731902527209
H -1.668101017245052 0.4435433746447837 1.4470963263398737
H -1.8739036740911057 0.030467849634596898 -0.26558853557571
H 0.922347925403616 -3.556287819583626 -1.0974846148863542
Rh 0.5556224493086344 -0.3027151066888635 -0.15334037202126014
I 1.0433173313675415 -2.2323006172582693 -1.9667862005787669
I 0.5445636811283023 -1.9929901548843465 1.838338522612922
O 0.6994472173219909 1.6146829379638552 2.1205162883041777
C 0.5024693889493436 0.9100039130142922 1.2563224891815805
O 1.1259260549800127 1.737531860807151 -2.301883844431444
C 0.8603489499872073 0.985386525264438 -1.5071949933048896
