12
## STRUCTURE-ID: 645667f3b2cafb4a8b56ede8 ; CHARGE = 0; SPIN = 1
O -1.2725470004797623 0.3491257104369356 -0.7597193609721618
C -1.812337922104199 -0.33242819699401494 0.3551832081803058
H -2.7758894247859542 -0.787604458465741 0.1135841166636286
H -1.9314342920664533 0.3378414065119905 1.2111269159222005
H -1.1059528733398143 -1.1190383472750647 0.6141038107700643
H -1.8969870885647775 1.027583541259653 -1.0438471381492223
O 1.4869762109659448 1.0551869511404504 -0.4601829782113107
C 2.064150968008523 -0.12387594484457583 0.04838128690949957
H 3.1218969660007727 0.0816920578791892 0.20843884176447186
H 1.9658285379598026 -0.9550542441801273 -0.6572875742398341
H 1.6115753503054964 -0.41105528595639784 1.0036095543162686
H 0.5447205681004302 0.8776268104877076 -0.6333906829539202
