18
## STRUCTURE-ID: 64568b906c825e382f5eddf4 ; CHARGE = -1; SPIN = 1
I -3.1460185036271113 0.12736156657545314 -1.9037373134229174
C -1.246426505222064 1.7956429087759092 0.6907669767956999
H -2.336382787065103 1.7539092919316082 0.7765051459323867
H -0.8258096016277257 1.5418536142653982 1.6690113230919186
H -0.9695649291979983 2.8339799252952016 0.4804240836604013
O 1.6436665345693162 -0.04397531608039731 0.8510998141855314
C 0.5903194467232976 -3.046674189980856 0.9782528910373349
H 1.316603230215811 -2.6483012578666605 1.6763058722343942
H 0.9994086745698525 -3.1181978180392735 -0.025081054505239724
H 0.1906798032869406 -3.9984460459738207 1.3098842139375122
H 2.551509373350633 0.1618037427017015 1.1557002537459058
Rh -0.5878633346559826 0.4399240529041036 -0.798895181842964
I -1.0769292247193476 -1.6499405198759816 0.903155103093679
I 0.661371981483173 -1.2423895345510014 -2.57904883173552
O -0.42692676447098404 2.6796342919792124 -2.7296628574158337
C -0.4701789028671821 1.8238780637760725 -1.9668225490058435
O 1.9182536502617238 1.7607687192746608 -0.4160045051320246
C 1.214287858992731 0.829168504888707 -0.07185338465439874
