12
## STRUCTURE-ID: 645667aaa9604d4a5c1aaa18 ; CHARGE = 0; SPIN = 1
O -1.0076855107752254 0.8636769793646919 -0.7594721003298882
C -1.8672539145338278 -0.08463707620630168 -0.15868001304842025
H -1.9275257990111265 -0.9994633201013464 -0.7548637189034023
H -2.870702580417576 0.32353143422385033 -0.0163636099415673
H -1.442106108633779 -0.32115075445821084 0.8148242439782116
H -1.3776517483723272 1.1250208608004222 -1.6112923080072692
O 1.7601304880600086 0.12861116962452954 -0.633786629955212
C 1.9259016839874705 -0.28476730021539615 0.7017890200274599
H 2.9616760894606866 -0.6040808836904249 0.8109169005438105
H 1.269007822845181 -1.1271305281937092 0.9448857291388651
H 1.7310910666719521 0.5337625633960668 1.4020247447458334
H 0.8451185107185774 0.44662685545583075 -0.739982258248429
