20
## STRUCTURE-ID: 645679b83607c16f3e1fea7b ; CHARGE = 0; SPIN = 1
H -3.433294234763343 -0.6161170678606258 0.7581598160321732
I -1.722948046008096 1.4611429878837368 -0.9999018327178759
O -3.340056074695568 -1.0027458625328338 -0.14529187924473216
C -3.3842249883062636 -0.007058253246965056 -1.172064144369094
H -3.298151715655741 -0.5072974656191471 -2.1348695495337373
H -4.326061021302536 0.5301947313921815 -1.0865651051829617
H -2.498964857937882 -1.5233446860390292 -0.15479093458799603
O 0.815603144937929 2.090224617470429 0.22059158306876986
C 0.7566344007533325 -1.678652879216635 -1.6946811009712621
H 0.04292767945988628 -0.8630392304381544 -1.7104756659865958
H 0.4834459362636855 -2.4397029360587856 -0.9726810422930611
H 0.9127749011427849 -2.093724495063064 -2.6827429321341523
H 1.2004139783446062 2.930587244660169 -0.034529071198583776
Rh 1.9082091103405334 0.843389467598483 1.5023044508620382
I 2.667204012465995 -0.8208168763669332 -1.0416231617770917
I -0.15891844079667303 -0.679095822090428 1.8247289947516
O 3.433751806871046 -0.6852657259719983 3.5547923587057095
C 2.8212508453891116 -0.1410417864360182 2.7346492816182395
O 3.9388951004491286 3.0382219049095682 1.6475067188101402
C 3.181508463048035 2.1641421330259276 1.5874832161486196
