19
## STRUCTURE-ID: 64567aa9e66fdf2c01333bee ; CHARGE = 0; SPIN = 1
H -2.972975434526998 0.7576716404745124 -1.6089142453827898
I -3.6572449735430155 2.178727512798483 -1.8222926855141597
C -2.105766982954144 3.266642273636056 -0.7766278380845367
H -2.3762985296449095 4.31927434421017 -0.8199431907182168
H -2.1011205117027996 2.8803219831042837 0.23866301799613138
H -1.1836961556746937 3.05445808935289 -1.3103655007060588
O 1.7508781737636723 -2.6175642806681343 -1.8253301238137274
C 1.3267005103866227 1.554659905932344 1.146731413365466
H 1.8339656521576326 2.470452186044486 0.8685255115412305
H 1.1352202434362162 1.5166374525269524 2.2122864073615425
H 0.4176526133949808 1.4058337107952512 0.5736814060361684
H 1.3233805877210232 -2.0443386750534067 -2.4709523514359515
Rh 0.8913038081678222 -2.6192583124642117 0.036542872716865
I -0.9423975542837595 -0.9722058637371132 -0.7290741224298465
I 2.683777618380835 -0.11347946998978896 0.6605695694617846
O 2.3525887788251665 -5.126994608783098 0.7813346801844064
C 1.8539142997016307 -4.137511713008113 0.44859518083989797
O -0.35371615422691083 -2.9930015706814403 2.716595284000439
C 0.12383401062162246 -2.7803246044901346 1.6799747145813482
