13
## STRUCTURE-ID: 645688f745eb84417b4f733a ; CHARGE = -1; SPIN = 1
I -2.2831914460415446 -1.3705756105119802 0.42456479102945643
C -2.2141879517745213 -2.808658814571759 -1.0010943473388147
H -2.134973108459307 -2.4840562084221216 -2.0211555057078368
H -1.8610984273594449 -3.782376279330067 -0.7178581751022239
O 1.9780697246481234 2.6634851626262313 -0.686610975398594
H 2.755266779549588 3.1613351606499833 -0.35894197292266244
Rh -0.07232433559775275 -0.1520545518876817 1.189130902204202
I -1.4409002649566602 1.4804092548852497 2.6747822490507733
I 1.570153968984911 -2.099205553292723 0.6827726260119753
O 2.049815764158745 1.5795885840999553 1.2692531574345545
C 1.5403169092496676 1.77114918021994 0.17564703445758942
O -0.22524701024827476 1.062337239168333 -1.3510159627763951
C 0.3382993978464898 0.9786224363666295 -0.2794738209420274
