12
## STRUCTURE-ID: 645669a0c229f93fa55a8520 ; CHARGE = 0; SPIN = 1
O -1.1385065060431268 -0.13368544794674225 -1.4540352023419392
C -1.2219919439663682 -0.1581170527941362 0.5370739650520949
H -2.1351425034926645 -0.6786402838333425 0.28146903563380393
H -1.3642512587793394 0.828500550231352 0.940264913205125
H -0.5424541059238056 -0.7847133905616411 1.0890399837299631
H -1.7108363426206754 0.6024702795462441 -1.6990261904861743
O 0.5927849517494662 0.7048148785939072 -0.09522421621773212
C 1.6883956675084115 -0.012929954659363066 0.3079085970721679
H 2.6047376029820684 0.5114192893114078 -0.0016751852065426081
H 1.7184568326111067 -1.023998969542455 -0.13136443012444904
H 1.7249078059842804 -0.11176099645896012 1.4056008821424717
H -0.21610020000933877 0.2566410981137261 -1.1800321524587953
