12
## STRUCTURE-ID: 64566a12bb38fd705528a81b ; CHARGE = 0; SPIN = 1
O -0.3326788775418335 1.6420057895033087 -2.1664501149735766
C -1.0225286000548623 -0.813817346318059 0.5350572424634299
H -1.434751379621421 -0.10415242587807445 1.260650317934401
H -0.8002138888348315 -1.7573253964842246 1.0447302924714497
H -1.746728579196247 -0.9879551372696413 -0.2571708678145817
H -0.12475563594579585 1.1441306053502536 -2.960725256243806
O 0.13557324793055436 -0.29125348175526394 -0.07998652978120123
C 1.170518691133728 -0.0216740632012759 0.8410410864114932
H 1.4752002190088112 -0.9355825709080882 1.3621221558692846
H 0.8531494014630971 0.7221120721031701 1.5801241803215895
H 2.0075373589812537 0.3682895058252049 0.26673166401446513
H -0.18032195732244374 1.0352224490326847 -1.426124170672946
