12
## STRUCTURE-ID: 645667793f447314aa7cab88 ; CHARGE = 0; SPIN = 1
O -1.4953111114345696 0.8398123598450509 0.7500193818262831
C -2.055235211405925 -0.018254660277755304 -0.2155439948527073
H -3.0925229289743 0.28643045243856113 -0.3500323161633908
H -2.031143631339119 -1.062131058507799 0.11370696825766788
H -1.5353515808431728 0.06549781840585828 -1.1760595210666747
H -0.5726268507809451 0.5643222844160675 0.8999174506385025
O 1.2327851408810246 -0.017875794119966988 0.9174447109533386
C 1.8227249683801616 -0.2360299423835465 -0.34892389774982174
H 2.7732968534975617 -0.7670942173014822 -0.2572146639288859
H 1.981467637793647 0.7065424834202496 -0.880592769789336
H 1.128689632149058 -0.8531004845382619 -0.9169214259220263
H 1.843227082076583 0.49188075860302216 1.4642000777970416
