12
## STRUCTURE-ID: 64568e29dc536a7ed8068a0a ; CHARGE = 1; SPIN = 1
C -1.3112169367201187 1.7762329618850694 0.1803474390588245
H -1.2832197693281175 2.8173731780158255 0.520486544763569
H -1.916211709151857 1.1633295475960679 0.856116543056652
H -1.8200861205601497 1.7275704457287577 -0.7932303614743206
H 2.4676354536697893 -3.291867678597547 -1.6193458326670689
Rh 0.6598930643385442 -0.6302125224048966 -0.26229073498580063
I 2.962234717893533 -1.810340778208158 -1.3552054014014967
I -1.3615579305965055 -1.722283600574211 -1.4404103403611153
O 1.147375664233432 1.6375456320243968 -0.007019617144960867
C 0.024792465771049692 1.2789358359782739 0.040318200170551904
O 0.1320669644691222 -1.6897151747090486 2.455456005069271
C 0.29829413598127247 -1.256567846734502 1.4247775559158882
