12
## STRUCTURE-ID: 64566b02fb60936f17408606 ; CHARGE = 0; SPIN = 1
O -1.6068339862354104 0.13277288005372176 -0.8372302511274098
C -1.3851984949653198 -0.10141976209496252 0.48613431728718187
H -0.207222577277053 -0.05597334284100014 0.5882701969328286
H -1.6478525051448587 -1.1154611985017415 0.8117873486391114
H -1.8368310516283983 0.6639528863889792 1.1192427701052696
H -0.7234425593367523 -0.2697873928470932 -1.2608212278002933
O 0.6625828848278875 -0.6723189270994646 -1.294560876565945
C 1.2375619140606327 0.2816106559330703 0.4929431220029995
H 1.0856654301991446 0.4753408421523172 1.553453990591822
H 1.3664850379962339 1.1916919922711864 -0.06776119750515922
H 2.0083554795794276 -0.45548253227544017 0.3453164474304579
H 1.0467304279244793 -0.07492610113955889 -1.9367746399908647
