18
## STRUCTURE-ID: 645689b08441c94b3e12b090 ; CHARGE = -1; SPIN = 3
I 0.0882462527173516 1.7171103445287428 2.465020651325255
C -1.9802994617511767 0.8692404091268349 0.07401625829170888
H -2.4545344481343436 0.5661313830669482 -0.8606117467591234
H -2.3630350477263464 1.8590159649455433 0.3396853920581631
H -2.2770675524939694 0.16353523088949076 0.854888332830547
O -0.9635625502628008 -0.7019134112362917 -2.145290209938759
C 1.704466325665147 -1.845810360979769 2.4510398146912404
H 1.9882238950362094 -2.8546860732839794 2.7243848985569685
H 1.168476578316976 -1.3468873012454243 3.2511724409212217
H 2.5636338192740453 -1.2619147953867171 2.1372138852051212
H -0.8363361414197379 -1.2962806130211908 -2.911875634899724
Rh 0.14361398460511898 0.8848573974764052 -0.05845006663496322
I 2.8774779510783914 1.081696941198594 -0.15160526875590974
I 0.3571591261191029 -1.9964109848567344 0.7479040095295146
O 1.092462346064664 -0.03952997963290476 -2.6684805770590123
C 0.11893265951043602 0.06680080143734295 -1.9407242185739648
O -0.9460140015506515 2.1790439962007557 -2.6342963726635964
C -0.2818437350483899 1.9560010507725616 -1.6739915881249434
