12
## STRUCTURE-ID: 645668aa6baba8165b6c2b48 ; CHARGE = 0; SPIN = 1
O -1.0930633891310797 -0.11774959012203554 -0.581823669020973
C -1.3858081321722262 -0.038811976370397246 0.826769593304711
H -2.1670999230435912 -0.7785883349702375 1.0053585482893064
H -1.712424396288743 0.9587079405290442 1.1199360430751701
H -0.4928961482243947 -0.3178303267221652 1.3874036062759936
H -1.8878262592688018 0.17180869729591866 -1.1138353261336826
O -0.07969661127140447 0.8787611233410834 -0.9941236668704684
C 1.171617825968968 0.30138546273063127 -1.2153843870723635
H 1.6168860615002076 -0.11297071593757475 -0.30779631905670374
H 1.758058902532712 1.1630650667612294 -1.5387895484519496
H 1.144070827745085 -0.44374746068433585 -2.0127424767837323
H 3.1281812416532944 -1.6640298858511584 3.4250276024446995
