17
## STRUCTURE-ID: 64568bd4a2abcc32c932bada ; CHARGE = 0; SPIN = 1
C -2.0075838754349324 -0.4667928763190439 -0.23860102497094293
H -2.4419957593669492 0.20036804425376165 -0.9857561464104616
H -2.3263465073057725 -1.4948698868421213 -0.40300724990949777
H -2.2597700111578862 -0.14653390681291206 0.7768623913179739
O 1.6606230757822475 -0.03377877347520515 -2.990428987915873
C 1.021427389385752 1.156957878856848 3.2409345554257696
H 1.8280050890201411 0.43352123390067315 3.2051032033801867
H 0.09726492749201966 0.6880041192006087 3.5583915182435235
H 1.273820248633592 2.0095326055900324 3.8596823826502424
H 1.9892870219962822 0.8757525471133908 -3.137177555550115
Rh 0.048989929606315076 -0.22243620381586024 -0.3765491359447873
I 0.7161603828414288 1.899116436769053 1.2206303507112861
I 0.5849687098088107 -2.076678519508645 1.3193263460245894
O -0.3353350078017693 -2.422688791230312 -2.381928028058251
C -0.07016277263999615 -1.3427600967455322 -1.965038136203242
O -0.20851233938373456 0.9928009716071707 -2.2210243556911067
C 0.4291594985245918 -0.04951478254180744 -2.4814201270990908
