8
## STRUCTURE-ID: 645663cfc46f8c5753248ada ; CHARGE = 0; SPIN = 1
H -2.7175451971948847 -0.27143751549786377 0.6038678303883784
I -1.7094250065425476 -0.04799202207295402 -0.6355415606712363
O 0.5543752112844605 0.17791817898227016 -1.3801760684268376
C 0.5353300117567759 -0.0481140061610131 0.6910743702499992
H -0.03919076241497467 -0.5275445853672609 1.4662017142050954
H 0.6983332136185182 1.003802105545266 0.8353857747585876
H 1.4157504383249633 -0.6114134291030452 0.43598847808314944
H 1.2623720911674496 0.3247812736743062 -2.016800538587526
