12
## STRUCTURE-ID: 64566adcc0fbe74dfa390820 ; CHARGE = 0; SPIN = 1
O -2.3918801718190235 0.29967130967439065 -1.0248844974047309
C -1.4890191247665272 -0.7482543040648613 -1.2793062186247683
H -0.5217695324032597 -0.5895800412018833 -0.7348370111698049
H -1.2782623903073238 -0.8594703833379408 -2.346293797600078
H -1.9496857195167903 -1.6603542291147166 -0.9037038828036261
H -2.04442983157487 1.117009242382356 -1.4019149982329295
O 1.831022705382889 -0.10458602689338913 0.8153249935750368
C 1.9911705281578018 0.9781014123840386 1.6807216694956812
H 1.831131831752418 1.911578705588235 1.1347262910479983
H 1.9514745675663527 -0.9185362604754839 1.3340698120925438
H 1.3193022762579132 0.9500043091418654 2.5483096999078287
H 0.7509448612704314 -0.3755837340826053 0.17778793971683962
