13
## STRUCTURE-ID: 64566e2cde52f16411230d70 ; CHARGE = 0; SPIN = 1
I -1.5391696610089551 -1.8697354613435062 0.0839043286254748
C -2.132683471996989 0.6462727711525783 0.22261466086389362
H -2.791210154838115 0.5480289483432083 -0.63035779041712
H -1.590171289771345 1.5991358423322344 0.19490446597992345
H -2.6414861469889512 0.5007359598167685 1.1648903960132633
H 2.324583124465592 -2.755716937480309 -1.8989342460766339
Rh 0.2631669817047138 0.028528451492749362 -0.029060036339679234
I 2.782624500712829 -2.2608238425857765 -0.47515197205669024
I 0.07750789050177896 0.32713656210444253 -2.66147544325636
O 2.260172983555484 2.2381972864159163 -0.41536212652030313
C 1.5003049376578454 1.410640847990078 -0.2274516570140159
O 0.8769024558705327 -0.2764342468123998 2.8850455586809756
C 0.6094578501355795 -0.13596618142598832 1.7864338615172703
