13
## STRUCTURE-ID: 64568c7f11da2d5a1661a6e3 ; CHARGE = -1; SPIN = 1
I -1.1619733764896734 2.213609136022074 1.4720508229971152
C -1.3800181937671658 -1.081549534252882 -0.5811461238860791
H -1.5490583966008915 -2.096770150901135 -0.22286032579106851
H -1.4389213455477143 -1.058061297575639 -1.6685166958081727
H -2.1952952274943964 -0.464746036570666 -0.17734149907208394
O 2.0992045302174884 0.9715245669375061 1.1280262932367404
Rh 0.19688496698473942 0.16067244592403143 0.38585297817439257
I 0.12670820079759346 -1.373788224005223 2.552138197310902
I 2.5878872097833523 2.8386046421985096 1.3617485326396788
O 0.6944260834896131 2.2362709932513916 -1.6915440614329762
C 0.41992853033787625 1.3860290061238312 -0.9821636658345829
O 0.9944776908704345 -2.340027949737317 -1.0505103045346982
C 0.6057493274187268 -1.391767597414486 -0.5257341479991369
