16
## STRUCTURE-ID: 64568e245e3be55b613288b3 ; CHARGE = -1; SPIN = 1
H -2.6488826816826876 1.8371912515467665 2.091954688174116
I -1.8563964689245775 0.3369549659938495 2.097776765236176
O -0.6412659756047709 -1.4557617728555292 1.8093704632181882
C -0.8447336345254693 0.8788420065329903 0.3033937876882566
H -0.538466201726616 -1.9995554069920045 -1.0861437389586421
H -0.7214385962744491 1.9573141115454722 0.2932810615968192
H -1.4932642427541807 0.602829027122972 -0.5385043610105288
H -0.9593402227309955 -2.2774998437126994 2.184461926496626
O 0.6941817718747832 1.1445826270083677 -2.08867857430961
H 1.0384877748793064 1.4889377727377795 -2.93865415707907
Rh 0.3956941706189817 -0.898397814425275 -0.2204073099660624
I 2.472521842153356 -2.5580692630119284 0.15314979755634506
O 1.2983220862308789 1.2309066708757541 1.6901551015115956
C 0.9101980686754042 0.5293175359294007 0.8356397666566178
O 1.7984121918304357 -0.6827570875847703 -2.704428228263757
C 1.0959701179605728 -0.13483478071116126 -1.882366988547095
