12
## STRUCTURE-ID: 64568e0ab6c3f92ca91a561a ; CHARGE = 1; SPIN = 1
C -1.2833208837256065 0.918223922540116 -0.697672776240495
H -1.6204410881055273 1.9377552018302764 -0.4631531616461598
H -1.6408181409674185 0.23397104121181458 0.13478174325451966
H -1.767140004350536 0.590492690565845 -1.630625142973607
H 0.9094817945734825 -3.62970276967601 -0.7459085112758699
Rh 0.31677813325992227 -0.4878743445726102 0.5913584838078704
I -0.22822205686958538 -2.569650547734985 -1.004628742943004
I 2.542861458735955 -1.4911910812694804 1.4928045104817207
O 0.8906136702573231 1.4973149944177484 2.7572111275632207
C 0.6615038672121183 0.7786242043568629 1.9184620087112092
O 1.0558670851020682 1.3180478989158477 -1.48057329067368
C 0.16283616487780928 0.9039887894145758 -0.8720562480657263
