12
## STRUCTURE-ID: 6456688bd8d2b66b46610ab8 ; CHARGE = 0; SPIN = 1
O -0.7829762862537386 -0.20205073458495237 -1.690689738480361
C -1.8388225176126878 0.2899652040766633 -0.9000427591284581
H -2.225486174603583 -0.47932148635190885 -0.22383312353789991
H -2.632885772404701 0.5937575111844251 -1.5813160553140222
H -1.5265014527786809 1.159122389524721 -0.3110609132914278
H -0.07343867993892521 -0.502328786167875 -1.0937808110648901
O 1.2271038539647832 -0.8832657693430427 0.22765950040731475
C 1.4184152821021165 0.105635925186439 1.2199331462285739
H 2.013672829972531 -0.2774068692963236 2.05233842452033
H 0.4305016609871973 0.37585932367903724 1.5884442664793792
H 1.9017301028969125 0.9952508159442178 0.8063905895546407
H 2.088687153668788 -1.1752175238514013 -0.09404252637318426
