21
## STRUCTURE-ID: 645676ae3d001a4fd8068a2a ; CHARGE = -1; SPIN = 1
H -1.5102754348617766 0.6868801063003458 1.4620485033998276
I -1.401749484870844 -0.6515107599829647 0.4587991753407401
O -0.9893855462284378 1.0060909366171724 -0.8000993599189924
C -0.8989780772091271 -1.5856370756021616 -1.419716504248944
H -1.5620853783003898 -1.2180879686431967 -2.192475337145251
H -0.9947977611804055 -2.6576466155726366 -1.3016826476723298
H 0.12253638268341557 -1.3260726597410029 -1.6725444761396275
H -1.6003065810157173 1.7188462719566224 -0.6071800766273786
O 1.09699824737753 3.2079280533393857 0.13952731340429783
C -0.5811838522132434 -2.2997304106065375 3.4859797293843218
H 0.16457296389255233 -1.6085695316223103 3.113736894209758
H -0.7503363536487244 -3.0940473827389336 2.7732614664771593
H -0.33648412649347637 -2.6730212969729004 4.471101249598361
H 1.2774965657912118 2.9619515790049213 1.052931521986619
Rh 1.4529350013747033 1.7495076984079898 -1.2215215321358637
I -2.4238719860752145 -1.2205350958660637 3.637531358928283
I 2.0488623446194234 0.061318580457546845 0.6776537101363372
O 1.9756621078871017 -0.19855041223855813 -3.4162109874546394
C 1.7735140535737666 0.5201801591056717 -2.5215580241793614
O 1.6164981134450715 3.6321227055483036 -3.539356769693923
C 1.520378801452544 2.988583118849292 -2.5802252076493883
