13
## STRUCTURE-ID: 645673f185cf1d398c333bd4 ; CHARGE = -1; SPIN = 1
I -0.8236037517066348 2.1877911063002484 -1.7301687279768065
C -1.8826404740813916 -0.646348874205297 0.13560392934087268
H -1.9370229795959804 -0.11547068699896694 1.09111252057174
H -1.9575349785683236 -1.723088417050641 0.28535297509807084
H -2.6758798020568113 -0.3108915941034698 -0.5373843876958674
O 0.5843441558634264 1.0701286784065172 1.0908427628160975
Rh -0.06781112032571691 -0.07153124560079753 -0.7102502811261281
I -0.445559689431572 -1.4085283264688595 -2.905463571341951
I 2.784799949989725 2.508398191961818 2.24240023675117
O 2.377015703692809 0.9953418501309786 -0.21738970719641057
C 1.743383768476481 1.3206325055493051 0.7659096641486378
O 1.5017904583188568 -2.29315169334047 0.4718915804130947
C 0.7987187594250343 -1.5132814945802813 0.017543006197549817
