13
## STRUCTURE-ID: 64568c71f8612a0cbd3eadca ; CHARGE = -1; SPIN = 1
I -0.03708762043865298 -0.6273363718456645 3.0283501976036873
C -0.7685073804483105 -1.2272687374076885 1.1107863038503025
H 0.3260606532665146 2.1656028985062243 -1.8807082948879401
H -1.6735801793864724 -0.6515369557923537 0.9214471490841701
H -0.9781954674423037 -2.2965531432774493 1.1619447459940293
O 0.8187582582669433 -0.36273484634126024 -2.5665179438220664
Rh 0.34817479278431024 0.8134343481165947 -0.8724676625715645
I 2.782730520649818 1.1819540630137124 0.12942731008093938
I -1.0756488560952984 -0.6258215038761515 -2.6052580416353943
O 1.113221830215939 -1.8608049530880753 -0.16446010889951207
C 0.3511395873574778 -0.9660865413064196 0.11338045813297777
O -0.8332462299842986 2.596257855873938 1.1876761714715272
C -0.3738199087456667 1.8608938874245338 0.43639971559879936
