12
## STRUCTURE-ID: 645664cf7aad6808201dbea0 ; CHARGE = 0; SPIN = 1
O -0.7639769404622965 0.7274207490325887 -1.5659482458228027
C -1.1891246037066403 -0.6830270660947132 -0.22493308273133483
H -2.162150637692714 -0.512955168693108 -0.665374180386065
H -1.1061209430336933 -0.3491542358772719 0.7949145938542614
H -0.8095226050396944 -1.6697006961919136 -0.42081748097667243
H -1.0383149767603457 1.5529835627255424 -1.1488902654309132
O 0.8980613799522826 -0.3519983153937967 -0.2750759235353063
C 1.3823318597982404 0.11044444458437691 0.9200048679565244
H 1.0643947969705123 -0.5302817731662886 1.7597198595389565
H 1.0697158173708554 1.1459311767732054 1.1409365817271833
H 2.482602258795286 0.09487617029021514 0.9023867911845815
H 0.17210459380821375 0.46546115201115196 -1.2169235153784081
