36
## STRUCTURE-ID: 6456ee38f41c652896071034 ; CHARGE = -3; SPIN = 1
Rh -2.364206403501736 -1.2342471576563383 -0.4762719594532195
I -2.4226121660308992 0.1853462754635844 -2.761907994507482
I -2.6649999300624194 -3.5605664442738862 -1.6764474837353356
O -1.1190715820463015 -2.7695048543927054 1.5514853601004726
C -2.1648012940877743 -2.2283997383632106 1.2140305730000436
O -1.030332629877187 0.7053378247373592 1.3191555135418018
C -1.7180607729878885 0.10224446637735062 0.5993235422958175
H -5.180903300983393 -2.423923178064973 -0.14653406423451346
I -4.955368642643991 -0.7223043703646614 0.060624100266696755
O -3.231088812961275 -2.2572790518895207 2.0426695942790847
C -4.337640401964033 1.4528568295415678 0.4502184555069114
H -5.2610409654885695 2.0105639790921632 0.5345362982746537
H -3.7334628356517876 1.81716766680473 -0.37275401132762814
H -3.777669847485319 1.4791385095380576 1.3792516699232888
H -3.0694749868471143 -2.7745741396880064 2.8591977670369815
O 3.1662527265714466 1.9816180960482663 -3.2383062960913187
C 0.4189482181638507 2.63957367233291 -0.7341879801553909
H 0.7713649687921834 3.390985861842547 -1.4295617624584356
H -0.3783625708828434 3.0303706083858915 -0.11069802019474612
H 0.06373062005918587 1.7737136214356362 -1.2912829405129835
H 3.944051341228626 2.519055333401049 -3.0079507172656563
Rh 1.355365593730765 -0.0743102663119897 1.977334483175675
I 1.0390591773696667 1.3356897146040563 4.168620315261842
I 2.019797973569885 1.9556343329333166 0.47494620233747287
O 0.3858374279236847 -1.272700552566905 -0.5351733225675238
C 1.3298667274589333 -1.0784669992023428 0.2460710849987446
O 1.3314123544462872 -2.8316244504512342 3.093435240540886
C 1.2673134381473734 -1.7351308853254586 2.7163135467446193
O 2.54218305234832 -1.617449232325233 -0.13313603356198675
H 2.4643702909957694 -2.118268219193711 -0.968313902116159
Rh 3.949493900264314 0.7238326676502032 -0.7024080854512056
I 4.598008593843869 0.6996725341035896 1.8923390813761352
O 2.0744327071175217 0.14486773366249392 -2.6770488734478475
C 2.995789703689619 0.9073856351040566 -2.3941429855415732
O 6.2712938813253105 -0.28977773190077655 -2.2906815025259095
C 5.420524446455614 0.13347190891216731 -1.6327448935119313
