18
## STRUCTURE-ID: 645673a91533ac1b6167100b ; CHARGE = -1; SPIN = 1
I -1.4451421416795736 1.0230227013552615 -2.2492311742207485
C -2.431931967707994 1.9505580845801593 1.5954489260985705
H -2.733387290071522 1.7314107690170866 2.6126880464448674
H -2.750078333796349 1.1702461715073442 0.9134879300080466
H -2.7968967695946376 2.9179838965540066 1.2727503564282698
O 1.6754381420994693 -2.3383743312071967 -0.9033723242044651
C 0.6692530551841159 0.7805228923114594 -2.1813841769592153
H 0.9061990767697713 0.26371064732278343 -1.223445262156493
H 0.968635716318778 0.1681628383617786 -3.0216060330807064
H 1.1252721471433114 1.7616777657245908 -2.222991091830271
H 2.07255394334307 -3.217173408587941 -1.0604137076489109
Rh 0.7732549417927449 -0.3359659241312768 0.8362600375971162
I -0.2628491889187918 2.0151422638679812 1.5444870139849562
I 3.2213234747980937 0.6202688435281168 0.961128427145595
O -1.6180962482722085 -2.1070184716934226 0.7099217778852105
C -0.7508935586038635 -1.3306952915841668 0.7598643597607195
O 1.851190811565048 -2.977226340677827 1.2239761045029047
C 1.5261541896305315 -2.096253106248718 0.43243079024448466
