16
## STRUCTURE-ID: 64568d381981163b7c1d80aa ; CHARGE = -1; SPIN = 1
H -1.5214277120836355 1.018389503893415 0.6012975851071662
O -0.9749176083487247 -1.3874140616452837 1.02325317200581
H -1.58229056750245 -1.23715959054547 1.7523175926824683
O 1.0030078239879547 2.439266920392933 -0.11675985330207737
C -0.5508908406257624 -2.5538641375443243 -2.114564113908693
H -1.2342184597915553 -3.117882890644977 -2.736561108619387
H -0.6632010900227904 -2.7951490250275146 -1.062661300374752
H 0.4803033337740171 -2.6654570825635204 -2.4298904258962613
H 0.9545244311822306 3.3268879878054416 -0.530748632978829
Rh -0.17871064763211159 0.3162562656900983 0.31353923583267873
I 2.1932017463820097 -0.7723995123584793 -0.19538327284930024
I -1.0662683977418013 -0.4639002287466626 -2.306437924089618
O 0.616616223388675 3.5235432230483146 1.809454564860142
C 0.8182144639856891 2.4829654012660147 1.2208337691279905
O 1.0185083775763728 0.7847165991487092 2.945285638685402
C 0.6875489234718843 1.1012006278313122 1.8270250737173463
