12
## STRUCTURE-ID: 645664badfb05d78dc7cab80 ; CHARGE = 0; SPIN = 1
O -1.040923581048773 0.011212335916722762 -0.2752852932796854
C -1.4851348494344718 -0.033356592570267116 1.0685035286742965
H -1.0439471466919452 0.8195149886324143 1.5795596272878822
H -1.16590399244208 -0.9507522023706114 1.5669968446507732
H -2.5728591000017054 0.047999932063249935 1.1136859259190734
H -1.404435133711866 -0.7509824848621146 -0.7493765612321412
O 1.1508435480787544 -0.15437324411055212 -1.718533344876203
C 1.1649513718272948 0.018026516340489962 -0.46014076841858953
H 1.1655281204563168 -0.8704158033002878 0.15066393479857432
H 1.0427795629523355 0.9788565926986063 0.011256623879517045
H 3.0723565246547655 0.2191125249881882 -0.036446512362502216
H 1.116744675361381 0.6651574365741594 -2.2508840050410037
