12
## STRUCTURE-ID: 645664cd785a5a4bdb3288b8 ; CHARGE = 0; SPIN = 1
O -3.059155156537352 -0.5374229729460877 0.03036489357697015
C -1.6950809379187424 -0.21657527586316755 0.19869609497231214
H -1.34159390023567 0.46107428558670654 -0.5836169447512788
H -1.1443558318150453 -1.1525886766867341 0.13065946667920303
H -1.5042348117626696 0.23636333307779694 1.1753811983004376
H -3.577886341525066 0.27250189241804146 0.10369985315883824
O 1.734682689296967 0.6759424105720943 0.7199448534439975
C 2.052737587184486 0.1256088864210194 -0.5391721458827716
H 1.6515092950406445 -0.8868647936218955 -0.6475181386537456
H 3.133306995163883 0.10646713153966708 -0.7085399763673195
H 1.5910066965600478 0.7678972558575785 -1.286949047976684
H 2.1590637165485074 0.14759652364497433 1.4070498935000766
