13
## STRUCTURE-ID: 64566e3536810626d24b65f0 ; CHARGE = 0; SPIN = 1
I -1.56672356138222 0.9601096333493294 -1.5567898132683675
C -1.9066973481429403 -0.5290661861866025 0.5437601243685619
H -1.3181331165754004 -0.6005507658554667 1.4560690053156355
H -2.0860694147347574 -1.4771697919368423 0.05688570560269315
H -2.8154855809075228 0.026186271275617224 0.7201521643526438
H -0.09304318380030424 3.407717292447831 0.5953847434342433
Rh 0.5524996036951689 0.0710344277483906 -0.18650519714263475
I 0.4930162349961823 2.2538832504554174 1.5137755065633436
I 2.6220766265466646 1.3436565891347376 -1.9596747425868004
O 0.8297930784163619 -2.1493714262314887 -2.154153472093504
C 0.6984219458036339 -1.3467063054703234 -1.356853740139792
O 2.746939749699288 -1.2023059951756316 1.430239412296017
C 1.8434049663858474 -0.7574169935549669 0.8977103032979624
