8
## STRUCTURE-ID: 6456643e3254b8024c248aee ; CHARGE = 0; SPIN = 1
H -2.8336420233225423 -0.041191019035831625 0.004571289373343812
I -1.666115329813693 1.025119265033904 0.2649879503983513
O 0.46241439149789204 -1.3842057342726404 0.2755860685532947
C 0.08071994894268865 -0.603234396894215 -0.6612661089360209
H -0.6023891755511206 -1.0664945033511173 -1.372215218603205
H 2.642611656799336 2.9469824946296685 1.6755330378667772
H 0.7234654687364753 0.193056065920427 -1.0293455962861142
H 1.1929350627109618 -1.0700321720301973 0.8421485776335744
