12
## STRUCTURE-ID: 645664960b062663ef0876f0 ; CHARGE = 0; SPIN = 1
O -0.93430578715476 -0.5067924085238947 -1.4822305426313211
C -0.5835487580992285 -0.6845413777371184 -0.18164606363183375
H -2.857838529992073 3.731514900787813 0.48058548139033663
H -1.283840385850717 -0.27716498453609417 0.5482927552724788
H -0.43414447368239584 -1.7502426165623197 0.0016022331917958982
H -1.461215077057251 0.2883500854982225 -1.631295059313934
O 1.4925063624897597 -0.4948802260769144 1.3516969174761315
C 0.9915020982824294 -0.039660734467310436 0.12537702232191913
H 0.40223760956754334 0.897941985332928 0.335791448042791
H 1.4039228560333794 -0.5588742796836526 -0.7659596192056208
H 1.6867277360035342 0.8517243096831286 -0.1573476970777698
H 1.5779963494598501 -1.4573746537146137 1.375133124165038
