18
## STRUCTURE-ID: 64568bb33b2c723ee1750eea ; CHARGE = -1; SPIN = 1
I -0.7441273543731379 1.9686545152562809 2.5584101286456695
C -1.8433792731627334 -0.6995942125922594 0.6079569849241799
H -2.625403042920736 0.06544729007895558 0.6159221855982833
H -1.9725599886547873 -1.334403323055444 1.488412041526028
H -1.9789687601352646 -1.3256788031790017 -0.27769993362634887
O 0.6065825511286148 -1.2708533050223472 -0.722111599961105
C 0.569105563848544 0.8598827075499896 -3.230669640307787
H 0.9186802905665027 -0.08767475445348044 -2.8333789127435405
H 1.3685215102472905 1.5919783915462984 -3.252477705152315
H 0.09162286199770152 0.7449589362330497 -4.195804644186484
H 0.48554713822792367 -2.1284074381159024 -0.30543847328098306
Rh 0.028388520500253825 0.2443656073853064 0.4846699918318606
I -0.9216906920735158 1.5699699376022394 -1.8401051405580204
I 2.4349799083241184 1.5385854906939076 0.0898826761716667
O 1.8151960163105627 0.65763894499414 3.473739781123512
C 0.8030284507024258 0.3388700748572943 2.9356424050863703
O 0.5098372819047946 -1.9550793518672442 2.343271389802013
C 0.4546390175614243 -0.7786607079117674 2.059778465106989
