12
## STRUCTURE-ID: 6456685cd46d0c2f772a157e ; CHARGE = 0; SPIN = 1
O -1.4641402784685138 0.46418138978882845 0.40774711221291116
C -1.198410741041155 0.360625746168886 1.7898346202441966
H -0.5153586845278237 -0.4778768189071454 1.9151388244463883
H -2.111641038183211 0.16283741190756015 2.358473436192636
H -0.720957552299174 1.267045400806571 2.1740052134881025
H -2.0778717948891186 1.1942726557461425 0.261857210071811
O 2.0870085403699044 0.2863129605731634 -1.6321405449636877
C 1.258324117368643 -0.8230633524904871 -1.3489659942000283
H 0.9658065124680022 -1.3431954465611928 -2.266844510324847
H 0.3607212080815465 -0.5246254452417417 -0.8016680432456245
H 1.8464455046944321 -1.5010740791812966 -0.7327457274677712
H 1.570074206426456 0.9345595773906957 -2.124691596454073
