12
## STRUCTURE-ID: 64566db5a524d978bf071025 ; CHARGE = -1; SPIN = 1
Rh -1.3918792429069589 -0.37727487103847673 -0.0883394036778604
I -1.9177435871951138 1.710946473305643 -1.5782728426593875
I -2.0896422991221364 0.786855682586123 2.151508607615497
O -0.9300282451386704 -2.836880495340638 1.5375777617411692
C -1.0911728944058665 -1.8879366400931326 0.9062991125063747
O -0.6785161610617406 -1.7946101035384285 -2.615932030617413
C -0.9446453378648187 -1.250298825793429 -1.6375468840219338
I 3.3589156249849195 0.104476530740333 -0.18501881336661208
C 1.634565835759305 1.255994526116153 0.3185422040296316
H 1.7434982058834656 1.6122155418842248 1.3349642879833121
H 0.7513056591075369 0.5956440645737466 0.2349210134392322
H 1.5553424419600774 2.0808681165978737 -0.37870301297202197
