12
## STRUCTURE-ID: 645666e5dd765360153d7d83 ; CHARGE = 0; SPIN = 1
O -0.8380355691927022 -0.9571696600266852 -0.8433576240070145
C -0.5054885124875586 -0.5792451590978739 0.4161396759202721
H -4.141435083441872 2.880281223736594 -0.8094889089295005
H -1.0511823663469908 0.29595733902844085 0.7657860324767224
H -0.5924469469067011 -1.4237585747737773 1.0985240422831506
H -1.2434990038864642 -0.24522278520514346 -1.3538287488518794
O 1.4556264021841112 0.8260406518561135 -0.5585858576838496
C 1.2033998628946463 -0.17708863539904313 0.39207986024388813
H 1.3918955358724385 -1.2093763990285367 0.019977007958661926
H 0.9590612135935426 0.3180493664713996 1.3643105434232043
H 2.214813673144619 -0.29423389211085693 0.9443323133908029
H 1.1472907945729398 0.5657665245493614 -1.4358883362244554
