13
## STRUCTURE-ID: 645673ae9de73120194d3024 ; CHARGE = -1; SPIN = 1
I -1.8109288761520812 0.43113952739099304 0.7942056237519592
C -2.737486070966286 -0.39688453235587684 -1.0007297740231
H -2.0635643268906967 -0.21485641402100625 -1.8311551527566994
H -3.68245478246221 0.11345809970057426 -1.1397240441004055
H -2.876535356804512 -1.4580597819810277 -0.8347648506191201
O 1.3691554646467836 2.125171291322089 0.6190623177289232
Rh 1.2072069463086643 0.023104764306625402 0.35630164794977737
I 0.977998627570455 0.2555156048280315 -2.240845785821581
I 2.8228259468919545 3.140008046797226 -0.2262251604529838
O 2.3979228044612424 0.5457611060219534 3.0404130573307335
C 1.910261365652285 0.18385996371967103 2.061391905879601
O 1.2701416266106353 -2.948943635602877 0.15930436032712456
C 1.2154566311337587 -1.79927404012638 0.2427658548057873
