34
## STRUCTURE-ID: 6456d0faaa577213264dd52d ; CHARGE = -2; SPIN = 1
I -1.8030937734044479 -2.067472267793047 -1.681086460173083
C -3.4779151019907295 -3.3336432017106055 -2.383937537222213
H -4.364439925654343 -2.7112152299061534 -2.44976147692436
H -3.618288554918526 -4.149812092055559 -1.6817598321778253
H -3.1935546862626274 -3.708445725842434 -3.3606575907629845
H -5.98066960256133 -2.3754929955626674 0.35281198782121265
Rh -2.1347667595550868 -1.7652118727098511 0.98312454983499
I -5.165475823389713 -1.0103021420924527 0.24431346195550624
I -2.8895900172938527 -4.296981555502587 1.289678270129396
O -3.2102610989011318 -1.60145186376096 3.7616270982378235
C -2.710940475641208 -1.5460439759125022 2.731227918494017
O -1.8522480447665128 1.1502917219547022 0.38058537908767265
C -1.489199637337722 0.09643896181125945 0.8225416270148402
O 3.8085520951063554 3.51348003231092 -1.9066370471581324
C 0.22683827875020326 3.6726608036383572 -0.32718696265132025
H 0.6268624697807573 4.67920412338205 -0.30807755479506094
H -0.8189926830272195 3.656089671141278 -0.04192548528703411
H 0.35935668884738614 3.2188292246003196 -1.3052647080793245
H 4.401647981518076 3.9808143757375576 -1.2960600861908957
Rh 0.3945386166388171 0.01925376160277621 1.5960671184597224
I -0.5350543054843712 0.7596792996807245 4.012325912933664
I 1.3256802586496195 2.476411488538916 1.0720190574863062
O 0.3994965117781205 -0.4592784569372214 -1.2447796549220813
C 1.080104852301004 -0.4410745465449053 -0.21288120823899404
O 0.4322213623616279 -2.938859373212431 1.5100359516138424
C -0.03537147811010759 -1.8500694518829823 1.5667641527324254
O 2.401171845024493 -0.7338729925050357 -0.3398252413522566
H 2.630034570993217 -0.9231726388656105 -1.2725289167601954
Rh 3.672017700508781 1.5815012748976742 0.3455454590034965
I 3.3508803890123824 0.27913986003806757 2.705488375581239
O 2.646551054873735 1.6583171058383346 -2.1714745094657446
C 3.3940965961495984 2.302517045396532 -1.440336111642746
O 6.6373396702105305 1.3922290561633925 -0.041214098728538484
C 5.492471025794301 1.4755425760642593 0.09123816214646911
