8
## STRUCTURE-ID: 645663b5728ba835925eb029 ; CHARGE = 0; SPIN = 1
H -1.8472654214466482 0.29552414344269123 -0.3495084043849887
I 1.076179866588455 -0.5317330032847319 1.249885648053928
O 0.4034393263865072 -0.6112980412374329 -0.744872125607383
C -0.40802676377531577 0.3140599249980975 -1.2606550815340478
H -1.6205687765385302 -0.0909860756100436 -1.1896920781169038
H -0.37262502049119506 0.21512608933127222 -2.361431084995441
H -0.2673222481386238 1.3545464160717655 -0.9506227546096997
H 3.0361890374153644 -0.9452394537116316 5.606895881194566
