18
## STRUCTURE-ID: 64568aa66a8698775f0876f0 ; CHARGE = -1; SPIN = 1
I -2.150627170824624 1.2912870373519356 -0.8469633928629559
C -1.721885652202868 -1.2763652166260362 1.3384005284567058
H -1.3721341067577306 -2.040513407061305 2.0302210971288335
H -2.387400500822722 -1.76657777331071 0.6009452923406313
H -2.3331225613151583 -0.5502429956161682 1.8734957584514775
O 0.7468062291871905 -0.9046337085006935 2.206692594193384
C 1.3601261478856157 2.514385350737555 -2.2368179741081584
H 1.112644497660367 1.831452167822347 -3.0420233204290255
H 2.1300066315127304 3.214251712376446 -2.5337575751558736
H 0.4721891848274569 3.024025006681895 -1.8809169733238946
H 1.1429486504296662 -0.4291491315203255 2.9626386650840644
Rh -0.4530731508083692 -0.6819390507053867 -0.32195843065856306
I -0.049921824989319234 -1.2126463503566414 -2.9340024839693664
I 2.14076597487492 1.341342949067604 -0.6001212486420474
O -0.37667745516157924 1.0016604290689382 1.9630606777396664
C -0.1546696637198368 -0.1233796342567528 1.570737828990763
O 1.2766190304112166 -3.0860909842683117 -0.0387050854841299
C 0.6174057398130459 -2.146866400884382 -0.1109259577514889
