12
## STRUCTURE-ID: 6456696669ab87464d5a852b ; CHARGE = 0; SPIN = 1
O 0.19951183906722061 -0.17936880181811504 0.11987245151704114
C -0.7682245278124655 -1.061268047911938 0.6465081596822047
H -1.7282214471966166 -0.9423021435985941 0.13217815878203115
H -0.8831090985239861 -0.8093823418397132 1.6981016340447215
H -0.43928061855780887 -2.101591235241337 0.5515435545318965
H 0.15254446992509843 1.6839336461547412 0.6074435849576386
O 0.2660008886091868 2.6034647142247085 0.8899183325098078
C 0.4704572775275054 -0.4150609972792848 -1.2451571488912174
H 1.2222298812565007 0.31101377232690275 -1.5456690455435802
H 0.8560345750902937 -1.4290807146318745 -1.3955452739659564
H -0.43156390365382785 -0.2829753332515047 -1.8525023289074687
H 1.0836206642689001 2.6226174828660067 1.3933079212828818
