13
## STRUCTURE-ID: 645673921e80067b6b333bda ; CHARGE = -1; SPIN = 1
I -1.2936181172175947 1.2491699974423194 2.3706132270252263
C -1.4609200595540113 -0.6548697224948159 -0.5098624240262322
H -1.7572450355647133 0.01919035575022397 -1.315093488880423
H -2.294607601426172 -0.7584208135287348 0.18487059535584843
H -1.236516130112013 -1.6330642120348202 -0.9398473869056395
O 0.9407052677984734 2.495306854315178 -2.2713604989985603
Rh 0.24372802821137257 0.16190102834347184 0.5056255937183501
I 2.6704494212137413 0.9596816724544965 1.6874808468681157
I -0.021821208390179366 2.5278903025345962 -0.6730614910638395
O 2.017166081218314 -0.4070229656627994 -1.8302830092661337
C 1.317940922542232 -0.26785515488461614 -0.9445463594917811
O 0.49836700257391897 -2.295485822072361 2.2079931403222997
C 0.37637142870665496 -1.3964215201621277 1.5274712553427428
