8
## STRUCTURE-ID: 6456645051a5d938ae1fea75 ; CHARGE = 0; SPIN = 1
H -1.588273738780721 0.0785850426030436 -0.7307960532301274
I -3.1750144825935904 0.13446504053379868 -0.6929537099461263
O 0.23172412781174861 -0.06830020039378269 -0.6890113746374621
C 0.8530227623838554 0.11445913484330762 0.5698912691091338
H 1.910959100759752 0.3570168639318486 0.4522141039189536
H 0.7485864072011763 -0.7756399623327499 1.1956159131877242
H 0.3498940699007647 0.9505676616814888 1.052001250295282
H 0.6691017533170196 -0.7911535808669505 -1.1569613986973921
