13
## STRUCTURE-ID: 64568c2e259fc97d005c71b3 ; CHARGE = -1; SPIN = 1
I -0.6625065820156791 -1.4780424444956035 -1.8786105349066036
C -2.8806286617712495 -0.19124702852639364 1.1491548131438416
H -3.32785930775269 -0.8085318106030421 1.922224952929137
H -2.9785582050395054 -0.6428578030992923 0.16629884037126977
H -3.256524879167761 0.8259900910894431 1.1741086106298022
O -0.12878955719856938 1.119318473089427 0.4124808925796059
Rh 1.7243773270445433 -0.7023305255310627 -1.5107481301191568
I 4.066629407625801 -1.5600505457452734 -2.024815844326947
I -0.7765818943882457 -0.09863436551532616 1.6243005487236815
O 2.0368230900559747 -0.08634402736695812 1.2675578117617194
C 1.8360939563186307 0.3370866474750074 0.14889366309664656
O 2.2435054453795438 2.1818348841973254 -1.4895758503957748
C 2.1040198609092315 1.103808455031747 -0.9612697734872655
