12
## STRUCTURE-ID: 645669546d3621208a111df9 ; CHARGE = 0; SPIN = 1
O -0.2232229710821898 0.5041774834536922 -0.20802109295282573
C -1.0508969387839622 0.661192646181314 0.932107792591017
H -1.991041345115428 1.1407449259545552 0.6557314204542107
H -0.5124136883086639 1.2966075577325848 1.6319651450805688
H -1.27886804131199 -0.2982222598713214 1.4028658400579939
H -4.422369465667246 -2.150018279870182 -0.8908586271731777
O 2.0487641501628127 -0.6437438335350696 -0.9018621650169398
C 1.5553436012629929 -0.47064239383587986 0.1872171517241676
H 1.0182110854081168 -1.2718532703380183 0.7168392444624191
H -0.6981771649090234 -0.006424214620555884 -0.879491418062869
H 1.845665601154525 0.3767225165207286 0.8252133341422491
H 3.70900517719006 0.8614591222281534 -3.471706625306811
