12
## STRUCTURE-ID: 645665e4b1015c4dec6cdb40 ; CHARGE = 0; SPIN = 1
O -2.025038833478968 -0.5229454530663717 -1.2660170187479771
C -0.4390887467666346 0.47616801264378794 0.8624547693885958
H -0.32881804671909004 1.5364103844680654 0.6355229293327338
H -1.5306615579352234 -0.16673256090871974 -0.47732916083511373
H -0.9553865530502282 0.29707293750933667 1.7989174569693263
H -2.929339526957928 -0.6564450282241879 -0.9758759973255997
O 0.6615822016625335 -0.28963291237346356 0.7505008351525345
C 1.3314647023152442 -0.14396105789513383 -0.5089737709820306
H 2.2019313251636556 -0.7955117168722488 -0.4938800408364877
H 1.629064407471566 0.8908376394144991 -0.6845395696261521
H 0.6272585543132712 -0.4565645647432961 -1.2808216152872762
H 1.7570320739817868 -0.16869567995230172 1.6400411827974724
