12
## STRUCTURE-ID: 64566ac9ddd7bc12b82c50d1 ; CHARGE = 0; SPIN = 1
O -2.322942416842596 0.1727458928367256 -0.881583805588776
C -0.10114361103418316 -0.33938302178984786 1.4697055106380739
H -0.910112579274454 -0.20589540506190848 0.7479350042682484
H -0.3765863306653847 -1.1706533951824654 2.112993160161535
H -2.079354392125215 0.5049368373096231 -1.7491963812300109
H -3.2551413026444194 0.36981585128378125 -0.7564351433495075
O 2.0986720271032797 0.02765761414025726 0.5832652138710727
C 1.1235479566250726 -0.673786270904708 0.7068185241368484
H 2.3948069472692466 1.1232213241419975 -1.8633149138831682
H 1.0890696436496334 -1.6605826043154555 0.2054221461688069
H 2.3097797483223785 1.279560396797554 -2.6209072484259432
H 0.029404309616639056 0.5723627807444233 2.0452979332328454
