18
## STRUCTURE-ID: 64568917312f2733df6a603b ; CHARGE = -1; SPIN = 3
I 0.9888876172836968 4.2584835621098485 2.1810556329567836
C -2.222433168441481 -0.6391358482907322 -0.857216368972022
H -3.068952828147962 -0.26755302421150867 -1.4244683961905333
H -2.1564800664010138 -0.11505804042755807 0.09471933020506779
H -2.330366715096466 -1.7001782150039808 -0.6492924282200575
O 0.09984545833611409 -0.9453612433556915 -1.0124442976808872
C 1.1646047334268894 -1.8126442976103696 1.880028908809414
H 0.9707256097111182 -2.4862687225907694 2.7054837584845726
H 2.222814331994501 -1.6026616941638208 1.7734441497025328
H 0.7436251755708655 -2.173096263137227 0.9493885261042571
H 0.9229448650655026 -0.8363189447627675 -1.5227170043977025
Rh 1.1353640726281444 2.044511799519212 0.6844332848865675
I 3.3184599917112547 0.8849251379503017 -0.2981234814199923
I 0.169717545997795 0.07097291974094186 2.3413462020789177
O -0.8699952335339791 0.16253782159202745 -2.687004195597384
C -0.9566978401717466 -0.41385481593391726 -1.6250631245392124
O -0.12156906109237885 3.1463605825655634 -1.721513088705373
C -0.010494488840745192 2.4243392860103437 -0.8120574075050372
