18
## STRUCTURE-ID: 64567148062fff3819068a1e ; CHARGE = -1; SPIN = 1
I -3.3526081094320945 2.0817087452584566 -0.7117358723748304
C -1.7021976892575625 -1.1148679989474077 0.276301258370513
H -2.1712068286391104 -0.19475184193121584 -0.12507243356831105
H -1.3692393619449623 -1.7311245194922205 -0.5531639653467014
H -2.4728993709724496 -1.6297114683057705 0.8506481793615801
O 1.6507948354828796 1.2274254205670325 0.7491762898935441
C 0.4520544922137762 1.9608739890294686 -1.9854176249612783
H 0.8478685179709324 2.4258133576847034 -2.878813630403538
H 0.9097873499600424 2.346205120554437 -1.0802882162067418
H -0.628949771094992 2.0309033009515325 -1.9359845628301675
H 1.936483486414377 1.6049928201440802 1.5861037345082634
Rh 1.296454977073544 -0.6936306722703738 0.6275693466954517
I 2.677105176584269 -1.1208587517883368 2.8338599038110837
I 0.9652360088451712 -0.12404904973732149 -2.0382807781347423
O -0.7752984016886847 -0.18503864145807683 2.286905162469445
C -0.6506314118692997 -0.6793514687642502 1.2119930148918514
O 1.2105991246956245 -3.6743261556208773 0.423832640281353
C 1.1766469756585272 -2.530212185873881 0.46236755354302556
