12
## STRUCTURE-ID: 645665899c36eb37184ed2b0 ; CHARGE = 0; SPIN = 1
O -0.8180533492798246 0.4282838639130735 -0.06601547785108623
C -1.3499332734839709 -0.16729313275036922 1.0476521950432773
H -0.9884057781188507 0.31090835686930857 1.9732444927770123
H -1.120948596035191 -1.2446220361410811 1.1031041999884315
H -2.444914684846001 -0.060716084560488125 1.0333921581744738
H -0.2962980018082411 -0.35469009080869207 -1.1387521479579619
O 0.5635273271891563 -0.6491692543458346 -1.6401109474767197
C 1.2879360683309353 0.37287923707320214 -0.09108854316100261
H 1.1552660734223308 1.4318199603736772 -0.22253711167514234
H 2.1960004392675265 -0.026759951348673178 -0.5221895009639729
H 1.1256166545746058 0.011911887194799362 0.9101652326186989
H 0.6902071207875276 -0.05255275546891905 -2.3868645495160146
