12
## STRUCTURE-ID: 645668ae0dda0c52a9242a38 ; CHARGE = 0; SPIN = 1
O -1.5552515515788374 -0.4419332591255353 -1.0309187816727738
C -2.0304459762984117 -0.06797616849323902 0.24142492010314287
H -1.3800631794086327 -0.4425479837820628 1.0377839252275725
H -3.0192759573731087 -0.5103247661445435 0.35494623358855343
H -2.11468714294274 1.020017823294233 0.33159994337651716
H -0.6489694588936524 -0.10336518514232242 -1.1204427156676424
O 1.1144562244305642 0.5804910877517943 -0.6592914640780821
C 1.8902121089820458 -0.20766579979298597 0.21952665979987004
H 1.4370768183504203 -1.1972397302459448 0.23742938466767796
H 1.8851732346362766 0.20462709380049857 1.2326693070823682
H 2.9219559343434183 -0.29728006666790685 -0.13053629868296623
H 1.4998189457526572 1.463196954548008 -0.7141911137442378
