12
## STRUCTURE-ID: 64566a3df812b05bdd248ae6 ; CHARGE = 0; SPIN = 1
O -1.4213086641940673 0.305243434423436 -1.0928570070119117
C -1.3754681478145847 -0.5225460773516859 -0.012082917915005022
H -0.28337682368804734 -0.3685335441302654 0.41639321856059575
H -1.421680350615158 -1.589553738537504 -0.2625100261673547
H -2.1085691876730808 -0.24631869264487746 0.7474493408691391
H -0.4055731199627411 0.29804166449232267 -1.3927273149968042
O 1.0227493896588684 0.17250599378443357 -1.2224296845480813
C 1.023639496208653 0.1631875467302955 0.883636946549025
H 1.010951228551474 1.239554918016168 0.8610754279247894
H 1.9698319445110035 -0.2845318339349566 0.6315914523700095
H 0.650053075349552 -0.22849994194235776 1.8282898753176704
H 1.3387511596681323 1.0614502710949958 -1.3858293109520774
