12
## STRUCTURE-ID: 64566716ed39f0111c1a5623 ; CHARGE = 0; SPIN = 1
O -0.45676800987139565 -0.543006786942681 -1.733630667603872
C -0.6694029144792397 -0.03236746422501315 0.8700139760716173
H -0.35162593486132976 -0.3579691929862856 1.8582348874812646
H -1.5412353078361385 -0.7064761197833903 0.7281225376326855
H -1.0432003066385633 0.9871209619025714 0.9276123467348644
H -1.0845402204719319 0.04204735792057131 -2.1678384610233574
O 1.3011453272878086 0.7717432307089678 -0.7452218011445709
C 1.0924443905720314 0.200822788159001 0.4059390746282855
H -0.5665368891298471 -0.3943978138809346 -0.35055657917430033
H 1.3992412462809418 0.8144958766750751 1.2627273865456794
H 1.4809984067547315 -0.8277134448159084 0.505838873318495
H 0.4394802123929437 0.04570060726802491 -1.5612415734667984
