19
## STRUCTURE-ID: 64568e9760f2437c2e4efcaa ; CHARGE = 0; SPIN = 1
H -4.453917710461496 -0.7854812133147574 0.001570265288733859
I -3.7144861570636443 0.030152577176474137 1.1448595946178362
C -1.0195037523646688 -2.505665200662878 0.9444757174728697
H -1.6282382911279685 -2.3427984884401925 1.8371406135661326
H -1.6907991925152313 -2.6805759527166546 0.10000223853335112
H -0.3953894949977152 -3.3862740157262823 1.1007724406910666
O 2.561122257493412 1.8071764461925972 -2.8054810842211455
C 2.214894643366191 1.6276466172411812 -0.14054190015950588
H 3.1777476452837794 1.7072398663714057 -0.6224169437431135
H 2.2310253718772315 0.8887888569069513 0.6508199108674128
H 1.892599258201746 2.5963167226840307 0.22114032345423398
H 2.4171435810529482 1.7050779533499831 -3.744833467461152
Rh -1.0937789727072158 0.27707290057719675 0.0027673049942464477
I -1.8436368747834837 -0.6434870902687945 -2.2925623439328366
I 0.9028126324239657 0.9824158971344369 -1.6563391055615824
O -0.05576533431658847 2.0222943984631865 2.201186431379545
C -0.43116448200155433 1.3075053158103878 1.3896809528001786
O 1.0514984760311563 -1.2696298325151525 0.9316165760886006
C -0.12216360339081546 -1.3377757582631087 0.7361424753251811
