12
## STRUCTURE-ID: 6456695871d1911cfe2cdf8b ; CHARGE = 0; SPIN = 1
O 0.0024003578243907563 -1.1546520973471255 0.13317109809155112
C -1.2051211339612289 -0.6691162069719236 0.7178157191304398
H -1.7902639374401905 -0.10594189996077966 -0.012884125993325954
H -0.9959701075610253 -0.038055136569681826 1.5826935384846732
H -1.7629336437051493 -1.5478008750685073 1.0284221876601494
H -2.788014587895817 2.6395970019009867 -3.1819926326912626
O 1.624532407356799 0.4260589938966408 0.672746733538998
C 0.8009155151534243 -0.23631811045212225 -0.4321790027076292
H 1.49411938456898 -0.7435536690171037 -1.1078490911344876
H 0.27762644616053805 0.5966136065375452 -0.9151429719619885
H 2.248150764762056 1.101744579632953 0.31791589012860294
H 2.09455853473725 -0.26857618658093513 1.1972826574543751
