12
## STRUCTURE-ID: 645667169b64a75577242a3b ; CHARGE = 0; SPIN = 1
O -0.47723297928396846 -0.3259192347168316 -0.4908686634730135
C -1.4130824895045222 -0.6093041850427047 0.505668801585386
H -1.2255371650561946 -0.05350166406627992 1.4265901951418174
H -1.4994051915907924 -1.6819511199805888 0.6911408855497203
H -2.334705940661991 -0.24057136346854932 0.05143601182498829
H -2.598663521821003 2.8581561847174304 -2.954539234195306
O 0.8828599734356644 -0.7844984824184253 -0.10337384780851615
C 1.703769599419045 0.30484392492809087 0.36495858393592073
H 1.7224086470381803 1.1332363700652088 -0.34363014868202685
H 2.701410204261592 -0.11437379722727668 0.5025476671465434
H 1.3096847367065463 0.6433879442157846 1.3227306998545392
H 1.2284941270574614 -1.1295045770058387 -0.9726609508800788
