12
## STRUCTURE-ID: 64566a1d1b1dbf08f6630f10 ; CHARGE = 0; SPIN = 1
O -1.8674498695598412 1.1070726650497105 -1.1120914193385072
C -0.5410206449409813 -0.5877029064721514 0.7343855789839446
H -1.050895105687493 -0.5422861246867505 1.690184993815942
H -1.470929331863424 0.5031839634631443 -0.42565688452044187
H -0.5931655275480042 -1.5736486246289616 0.272975574350272
H -2.7106951134842956 1.396158719847711 -0.7584854388936862
O 0.6698539244728141 -0.0037389813108881387 0.7917451386165062
C 1.3460836041987991 0.03240232036366776 -0.47230577990860056
H 2.3074920749927936 0.5156049041116129 -0.31524103441135953
H 0.7235665704267026 0.6195168736062538 -1.148481530258853
H 1.4819663217529695 -0.9701888614225742 -0.8803431134613624
H 1.7051930972399048 -0.49637394792080364 1.6233139150262303
