13
## STRUCTURE-ID: 6456888bbe40f3709c2fdd83 ; CHARGE = 0; SPIN = 1
I -1.6372138578983888 1.314955117500904 -2.017182283424924
C -1.2970565241637262 -0.5221279136121174 0.8733632213508287
H -0.8911162385074609 -0.7444329164416944 1.8604290080464534
H -1.6366387864952145 -1.4403879770667616 0.38904135911609666
H -2.133671684034336 0.17202490677768104 0.9646185912022573
H -0.7516819211610648 3.5236811735555515 1.0073599471677805
Rh 0.17188057514804228 0.37248252791812014 -0.3420194945409233
I 0.3828803401211273 2.5013360149952493 1.4494138948389454
I 2.5903871744448974 0.8326029882020961 -1.9011613000941932
O 1.2413622562436561 -1.9042186347692749 -2.1004790892298475
C 1.2549552013345098 -0.9784823851591296 -1.3568713941267236
O 1.5259167198684644 -2.013771983493726 0.9164879019433197
C 1.1799967450994906 -1.1136609184069113 0.2569996377509413
