12
## STRUCTURE-ID: 64566a3c1804443c53071026 ; CHARGE = 0; SPIN = 1
O -1.3040447080608686 -0.373492207246788 -1.209576505651378
C -1.4620457693726367 0.16124541097769587 0.033156318332807924
H -1.7715721799511006 1.213616143722539 0.0322009154470285
H -0.36446235916577957 0.17875733160929214 0.4754600465453806
H -2.1019763946141614 -0.45527563915067026 0.6663224889890612
H -0.32474660718127274 -0.04662101975743399 -1.4438941228404674
O 1.0270889477859266 0.38428676041230325 -1.1683639439276927
C 1.034564440956651 -0.12030354774188211 0.876976836526062
H 1.289257826301904 -1.1287208590989826 0.5985143396192306
H 0.5794410087124459 -0.07360094893366449 1.864935757350935
H 1.8388109061389164 0.5904856203880585 0.7923836558573901
H 1.5596848884499876 -0.3303770451804712 -1.518115786248363
