12
## STRUCTURE-ID: 64566a4d37444e1a072b66b8 ; CHARGE = 0; SPIN = 1
O -2.98255094109023 0.6706327462855151 -0.539089050858806
C -1.6499350571124243 0.22243231621759826 -0.4167617708231817
H -1.0145662190312053 1.054609049821802 -0.7127024747336049
H -1.4472716045157532 -0.6294025906819987 -1.071596854647584
H -1.411751303352757 -0.056851976169721714 0.6131790058146588
H -3.5758588885379146 -0.046111687506896655 -0.28494783017953834
O 1.6862805605234577 -1.033912668775727 -0.211471024905265
C 1.998841275779344 -0.018902714537525372 0.7167396451733652
H 1.6937062285581914 0.9661427526867961 0.3503086559370243
H 3.0677865793320596 -0.0032105571163279297 0.9495889873213612
H 1.4438318286876377 -0.2441355222539784 1.6257727991506676
H 2.1914875407596073 -0.8812891479695321 -1.0190200872490993
