18
## STRUCTURE-ID: 645670d621fea14f3d4975b3 ; CHARGE = -1; SPIN = 1
I -2.463879704913649 1.6247644267400105 -2.1647371228324315
C -2.9634217876227464 0.32386745441255144 -0.5428374687216178
H -3.0988553992818146 0.9345907670504955 0.3419454575565894
H -2.1242460467098963 -0.3521483838742718 -0.41172379054695607
H -3.8657909864072706 -0.2097971549659853 -0.8117544535156511
O 0.08661448691429581 -1.3341290157187498 -0.29980712103415846
C -0.09933017444881047 1.6303516284189261 -1.4614131079505221
H -0.22828418741456183 2.3505649803098443 -0.6764096355829929
H -0.12442872163986769 0.5818953490283342 -1.217974537814612
H 0.33600897973496935 1.9474769736786453 -2.3884053822288385
H 0.25769576904384506 -2.1263600844422177 -0.8132297623541743
Rh 1.4579074873454057 -0.8362827822588311 1.2390160400141104
I -0.40966320502476317 0.7072418737335648 2.33650894324015
I 2.47540714775288 1.3862010648533796 -0.5212508640553214
O 2.679633070824777 -3.4311506255714357 0.39329658031337045
C 2.28785754409749 -2.406116613534802 0.7723294077248075
O 3.240350435652521 -0.2978782500674812 3.5716352109184246
C 2.5564252920971864 -0.49309160779197214 2.65481160686982
