13
## STRUCTURE-ID: 64568c0abd441d32fb4975a4 ; CHARGE = -1; SPIN = 1
I 1.5920716412038918 -0.7477452273477238 -2.2532108995045594
C -1.821618177260011 -0.22511911667340406 -0.007692772594260686
H -1.7496466351571154 0.231145123938989 -0.9969368955804689
H -2.062489498961863 0.5577008948471217 0.7162202369281717
H -2.6173118707705 -0.9709950667348018 -0.008457140566703065
O 0.2921190755674087 2.694958586847243 -2.6700708756861213
Rh 1.0971429719259862 0.2410101398340907 0.14270239619876468
I 0.7583809851825899 1.4263071727344068 2.4588960034000835
I 0.3878348112951121 2.5747234760386344 -0.8116730407699545
O -0.44879598390881975 -2.0156774874826358 0.8244605148638482
C -0.5549754551306014 -0.9143949006173787 0.3931929427517904
O 2.9563678516707497 -1.7799937137605675 1.3204286651729589
C 2.1709202843431776 -1.0719198816240014 0.8921408653864635
