12
## STRUCTURE-ID: 64566a66ae72ec70703ae5e0 ; CHARGE = 0; SPIN = 1
O -1.068180178920071 -0.6139398582759494 -1.3774486193689517
C -1.2241109012896507 -0.11661946077733248 0.546531730834704
H -2.0741174405652383 -0.7753079145636024 0.42939265221893713
H -1.472166681770315 0.9234903726265408 0.6597666343055865
H -0.5150222058822566 -0.4984329396714359 1.261142102229435
H -1.6919736561898644 -0.024861572427262862 -1.8171486858590251
O 0.5348255031670252 0.7074997983582475 -0.26849079019887184
C 1.672213653662805 0.21638572242817758 0.3177263229515836
H 1.8016486604468767 -0.8659716555625375 0.1515011004505518
H 1.6789553459162614 0.4025559995238319 1.4046130866540518
H 2.5515420310884096 0.7253803091474985 -0.10425369021102264
H -0.19361412966397576 -0.08017880080618779 -1.2033318440069745
