12
## STRUCTURE-ID: 64566701b6ec6760bd6cd4b8 ; CHARGE = 0; SPIN = 1
O -1.5772294788769923 0.3442712136513898 -0.9450821882994199
C -2.036285428291003 -0.23758222489502556 0.25183575498481947
H -1.565243294424934 0.22286495805362458 1.127079684723164
H -1.8482291723092579 -1.3159542823798054 0.2711466453483243
H -3.110973030361739 -0.0649458655557567 0.29893532024237196
H -0.6199564751296283 0.17453237115203166 -1.0151997863066367
O 1.2414648425121784 -0.12743839690397923 -0.8908659566418121
C 1.8289993265059947 0.13820707386821468 0.3674249060717849
H 1.842376725009688 1.2106792911170394 0.5809993173017751
H 2.846681927993376 -0.25595179023869036 0.42121640037086516
H 1.2162748289478122 -0.3656173821676212 1.1126996029147376
H 1.7821192284245162 0.27693503429858507 -1.580189700709983
