12
## STRUCTURE-ID: 64566a3547eb55033567f9d1 ; CHARGE = 0; SPIN = 1
O -1.1228956298617225 -0.04354685453478892 -0.5330971835009973
C -2.261819078052373 0.03318647617005988 -0.1631490612466783
H -3.0168460805797004 0.6125290944302426 -0.7110138996331782
H 0.8212567917308439 -0.43537671780974746 1.0071688730159234
H -2.613579989468694 -0.47291699135176224 0.7457400001436846
H -0.24713448718692993 0.6275064783837664 -2.181449108792453
O 0.16502037261649916 0.9440784780952933 -2.996841455416865
C 1.6008808743500638 -0.4792797800672329 1.756150620997561
H 2.369942718711178 0.2439036331287842 1.5183860846099635
H 2.031744876686459 -1.4717470532217691 1.7713772675559571
H 1.1828188326269542 -0.2527378327300865 2.7282336308180817
H 1.0906107984274336 0.6944010695072409 -2.941505768551006
