9
## STRUCTURE-ID: 64567354e1745d51692cdf7d ; CHARGE = -1; SPIN = 2
I -2.2037386803491863 1.3625695124474555 0.5640304187918291
O -0.04153427145978644 0.21139982891123157 -1.9891451090573427
H -0.8066385700718396 -0.22523281248036914 -2.372617731209956
Rh 0.25491584165537345 0.1941069300956604 0.02387643643875651
I 1.8920526106700952 2.2571293270898756 -0.28166775303849867
O 1.084281747410269 0.199792612863109 2.9009256366495686
C 0.7544995594633989 0.1711684637277394 1.8045405446631526
O -0.6512323816092932 -2.600033133615905 -0.49726027474688295
C -0.28260585570902996 -1.5709007290387997 -0.15268216849063032
