20
## STRUCTURE-ID: 6456b726298166387e6a6030 ; CHARGE = -1; SPIN = 1
C -2.0165887862896197 -0.8635434828224207 0.47991609024079035
O -2.159685095305345 -0.7403957572981188 1.6073814294288793
I 1.1301098661628597 -0.8044029700324781 2.7387900427035388
C -1.3023885424362331 -2.8038082344069837 -2.0674339532178365
H -1.8061624447388258 -3.7444064785708573 -2.2551406302364216
H -2.0034606823472845 -1.9897599915574313 -1.9135720581340439
H -0.5950053205316507 -2.567615419635427 -2.854235363937441
O 1.8666465559507859 2.113202200211891 0.4011905479675888
C -1.1225436208773698 2.2541743672304495 1.7040315097435308
H -0.07089185662169854 2.361486607482868 1.939036021305187
H -1.5510301782334674 1.427372527286421 2.261710149928538
H -1.6658537520483554 3.1730149367708345 1.8805422651374917
H 2.590517350744179 2.76791267769356 0.449776281331677
Rh 1.0506949256948532 -0.6147807244274237 0.10747263328805982
I -1.2679232728189522 1.788887135933055 -0.37563872426114175
I -0.18855307100590493 -3.0050369419549114 -0.221535556090133
O 1.7787298869906072 -0.004717589722819761 -2.715741200032063
C 1.3972618875688891 -0.3042928234165773 -1.6571680923265177
O 3.579534712573008 0.7101131038456753 0.23223681743900942
C 2.3565914375695445 0.8465968573906899 0.25838178972127396
