18
## STRUCTURE-ID: 645670487a056858244975b8 ; CHARGE = -1; SPIN = 1
I -2.975782819457094 -0.556038109858379 -1.4841541378530212
C -3.7514184229457785 -0.8251084497771152 0.5126873574205423
H -4.793548431988863 -1.1029160566968395 0.4271763792028207
H -3.633623712759831 0.11217078384922896 1.0437381350856016
H -3.173702123144281 -1.6076413883075964 0.9904999075798945
O 0.717752109556661 1.1173508844734532 -1.6184085598340943
C 3.2723906146298223 1.821215874315232 0.23484044815372587
H 2.968769018162466 2.508928729938106 1.014408239785503
H 2.527439195327727 1.7764254818434617 -0.5563991353454331
H 4.247061312059454 2.0709722165681357 -0.16196187090772532
H 0.16034653775654872 1.8973093784959838 -1.5272722115775499
Rh 0.21377031417858378 -0.3647642227297136 -0.25958225003304203
I -0.6247002336030564 1.447792701519069 1.4443382228797728
I 3.3900671688999164 -0.13939839614496827 1.1006424605987424
O 1.263362203424942 -2.33380908134833 -2.2494885594409277
C 0.8555199191785917 -1.5739240460948039 -1.4843873362866764
O -0.4743254864807386 -2.5513809523221864 1.6513140673542719
C -0.18937716279505654 -1.6971853477227625 0.9220088432175073
