18
## STRUCTURE-ID: 6456891c55e136752967f9b4 ; CHARGE = -1; SPIN = 1
I 2.137040903237687 -1.042721947169631 -2.5476455281782253
C -1.8175047192237037 0.33381721966720135 0.5122811592912863
H -2.226730119383143 -0.6272175289373825 0.8009034431290504
H -2.576534606827652 0.9857469092447926 0.10726306206161854
H -1.3045685376676202 0.7962293220416522 1.3476357352517896
O -1.5903556148309566 1.752385821811403 -1.800003139514704
C 0.9302460024578378 1.6345813724226197 -0.5147740237979207
H 0.28829407642669025 2.5056057908023632 -0.46962615849289274
H 1.6877355739963809 1.7398510529226643 -1.2852843361754303
H 1.3750332253412179 1.4078442807273372 0.4527978698488357
H -1.4953670484142876 1.85059622608392 -2.7462103631648738
Rh 1.2604854090216733 -1.736204737240486 -0.07791246464458822
I 3.1502943047923844 -3.408078803277537 0.5359786138742775
I -0.3802963305646949 0.03099683884342594 -1.0049866352860235
O 0.946217487153034 -0.06915199540723344 2.2945122401072022
C 0.6396720559709574 -1.0435594989115689 1.6318143750712286
O -0.9683459216767412 -2.949029527361489 1.4664413631950535
C -0.05531613980906239 -2.1616907962620378 1.2968147874243232
