12
## STRUCTURE-ID: 6456684c0f4f4f00be6aac63 ; CHARGE = 0; SPIN = 1
O -1.8854247942706386 -0.767116856868424 0.22269143668415647
C -1.2789094507728669 0.1260420096652302 0.9584617930060142
H -0.13490021822454487 0.1562925354719785 0.5467674363179698
H -1.160176230312968 -0.14166877186824647 2.0185434592526534
H -1.6283236206876297 1.1600364342951992 0.8265661211213019
H -0.9182651323442848 -1.2685289853645614 -0.7153072879678158
O 1.2046445136153972 1.127280563319236 -1.1085558098798518
C 1.24629176273872 0.11759612933492032 -0.19668297285350936
H -0.024211929228132718 -1.0612792963516269 -0.8115600105542886
H 1.606593075271882 0.5101697447575119 0.7529070771715429
H 1.8298176125914167 -0.7544075596625605 -0.47778165959558927
H 1.1428644116236573 0.7955840532713436 -2.0160495827025824
