13
## STRUCTURE-ID: 64568cf05dc2b746c1670ffd ; CHARGE = -1; SPIN = 1
I -0.6954670484380067 0.03229222557954991 -2.9532014907074275
C -1.1155853901354837 0.823099812892182 0.2966596736947399
H -1.1054722001176902 0.9888982842046665 1.3726909028184777
H -1.056109933037295 1.7773328248815043 -0.2242805527676677
H -2.0969052237519827 0.37728715239964716 0.04029051189371029
O 1.3590911698574164 1.3472154741679025 -0.7011022789519704
H 2.1420066606634096 1.8490721768002665 -0.4022411917126253
Rh -0.15498142122914554 -0.9183848954928344 -0.56756007138554
I 0.9120461965223811 -3.141861231270723 -1.5332187511227309
O 1.3607726415539072 0.5223815896748741 1.3733122159266846
C 0.8649268658910249 0.5590087182722537 0.263339532436057
O -0.2405277809061221 -2.4125393330103577 2.0037102469748356
C -0.17379453687241578 -1.8038027990989371 1.0316012529034606
