18
## STRUCTURE-ID: 64566ec225a1fd05605a8531 ; CHARGE = -1; SPIN = 1
I -2.3508961624107996 -1.0188309062474261 -1.1046640133995511
C -3.078359066771533 0.002311729010750635 0.66155400842484
H -3.9206583772695978 0.6121557419088983 0.3574891574232819
H -2.2632575272742934 0.610055106020273 1.0383271544264188
H -3.3691170427921477 -0.7541921015144427 1.3800338960028369
O -0.3233727880577662 1.8682620476898826 0.3751039292429651
C 2.169106276219238 2.3373085778087366 -1.2869518097626096
H 2.3301883984419014 2.6466503744938246 -2.3057232644867134
H 3.2002924614820603 -0.05817569700531509 1.089949178764517
H 3.057515427590091 2.105207165385968 -0.7243665496522148
H -0.4804087613878026 2.7956061803917813 0.1612986962158653
Rh 0.560688858954244 -1.4667306141754508 -0.31593583612756315
I 1.318291455688485 -1.7799795994096763 -2.7982725527500576
I 0.7394605807703973 0.9634248426686529 -1.1440616689277041
O 0.2798970472653774 -0.4322080718872512 2.470208602586891
C 0.3959113740566052 -0.8934814426280424 1.429203379601356
O 0.9706955480490231 -4.302364020359879 0.5349851459855285
C 0.7640222974465334 -3.235019312151286 0.18182254643192136
