18
## STRUCTURE-ID: 64567088177d3a6b8d2abdca ; CHARGE = -1; SPIN = 1
I -1.5733632881453343 2.150928050828753 0.12380051854604819
C -3.451670927895478 1.1973366406290238 0.7207146139857573
H -3.3631249075626273 0.9234478431691433 1.7653045598443677
H -3.5847051459093704 0.3123604587678643 0.11016173637260836
H -4.249494038237601 1.9112209585801259 0.5639645608405163
O 3.110773233131836 1.214304541944513 -0.4656653814756959
C 0.48512793279007416 -3.0167349472826483 -1.72876282311717
H -0.15852322809946637 -3.284219768605117 -0.8968728468332865
H 1.5135554791870254 -3.29558171370327 -1.5304502646437899
H 0.12795990678890024 -3.44231680102138 -2.658346805832031
H 3.610666797142309 1.9521946360774962 -0.8669015125876928
Rh 0.6465468809669815 0.23851656577318409 0.595353390457497
I -0.9631003554710688 -1.6320022118328377 1.6381107723942894
I 0.4202424751145178 -0.8458161043405399 -1.9351192916626416
O 1.5312573335982342 2.7777906156445265 -0.3601240433407399
C 1.8448174226247673 1.6059953241271516 -0.13453118984391899
O 2.3798953148250463 0.7462738576602488 2.9771960357582596
C 1.6731391151512611 0.48630205358379336 2.082167971137596
