12
## STRUCTURE-ID: 645665b196f8866bb6242a3b ; CHARGE = 0; SPIN = 1
O 0.6896716261961837 -0.5033656734846591 -2.8733548246477234
C 1.862580575242947 -0.07499635499655999 -2.3772929334820976
H 2.377021062837674 0.6829990358028045 -2.976438193761999
H 2.4948441837406885 -0.9461526579106809 -2.1796006081063024
H 0.16005331090308247 0.2106606600513444 -3.2598107806731287
H -15.319626504436545 0.6773548149571205 14.905752266776268
O 1.5954088553628987 0.6193323953518985 -1.0524204688551861
C 1.0455327265623224 -0.27030605758776055 -0.048555559932397595
H 0.6809835088607965 0.34449335371114254 0.7709934833850814
H 1.789544406990344 -0.9836357376445273 0.30302014432719204
H 0.2121883003256938 -0.8019801888339562 -0.5053410945841248
H 2.411797947413914 1.0455964105838091 -0.7069514304455929
