31
## STRUCTURE-ID: 6456fbdc560f920cfa5c0b00 ; CHARGE = -3; SPIN = 5
I -3.4527690841938994 0.5561850426788124 -3.2055088428777903
O -4.99376908441594 2.4828769374513375 0.8581561679447306
H -5.852075988980545 2.9114313397477676 0.9006759892588385
Rh -1.8526531823154053 1.7804772005388239 -1.3979529053135484
I -2.4153920284881965 4.558633595510999 -2.8301326154660087
I -3.8640899652180907 3.3968724924972364 -0.6076444020024597
O -2.4638590161088896 1.9964617104996574 1.9163103015040734
C -1.7179991198153641 1.7101965409498332 0.9164094172490748
O -2.384514517149589 -0.5447737700757951 0.3204104204776849
C -1.647970282230014 0.46547235177458085 0.15380127721529868
O 2.363546661869078 -3.7636997427542687 -1.0306604962542378
C 2.403471462054311 -2.1727243406531898 2.836986618013779
H 2.240751211638071 -3.133307841015999 3.3224488995832835
H 2.56559912090547 -1.3739719287832362 3.5584040197269937
H 3.1996907282786045 -2.204697530349581 2.0993445240310176
H 2.213214374012941 -3.7675162782447242 -0.06425915652250029
Rh 0.1765068249462273 0.935669555099505 0.8402350768577818
I 1.1381099367174095 1.9665441841085962 3.088011802178789
I 0.47963223706231556 -1.6878078488390207 1.7606562751258714
O 2.4754936111260277 0.7266237780916043 0.08600750688218801
C 2.512960046823624 -0.34807439224612063 -0.548519812640113
O -0.6196569037647506 3.810070216152701 0.28178478689760056
C -0.8400298337380904 2.5864261897489316 0.1655204672023146
O 3.6885842524769847 -0.830672351634868 -0.9019296877840448
H 4.444371476863713 -0.24059942247803798 -0.6748362198784904
Rh 0.7902069668395821 -1.2387349430209946 -1.0348953934481568
I 0.404019600103547 1.2111801274007299 -2.6878959213017257
O 1.9794966255642341 -2.7380320857029834 -2.9490881142966807
C 1.8573004909216566 -2.7854160349338604 -1.7522680968947568
O -1.9373359369032535 -2.2987174679239457 -1.8772667801449363
C -0.8908406848815716 -1.9663752835943493 -1.5423051053234658
