12
## STRUCTURE-ID: 64566b768aff99260c4f734b ; CHARGE = 0; SPIN = 1
O -1.1938026105500263 -1.890780922738212 -1.7164757139098576
C -0.25843630886235786 0.079787925955265 1.38031952755406
H -0.8083124572778274 -0.8114450268592824 1.6740014816412887
H -0.9382172217430649 0.9384020996209419 1.337880127234725
H 0.5271488320930667 0.2838563599731889 2.115653980410018
H -1.955190471188185 -1.3185488442865203 -1.8416121870960764
O 0.29780898703527303 -0.18694192960038397 0.11101542506835467
C 1.07837199460041 0.8796122621286819 -0.3831222766048524
H 1.4796737862206104 0.5556216874951256 -1.3406944993782282
H 1.9021567963238253 1.1094551958061178 0.30118910396271487
H 0.4693437096506428 1.7800287906337242 -0.5233617529033606
H -0.6005450363023616 -1.4190475981286508 -1.11479321597879
