18
## STRUCTURE-ID: 645673fe764cc031973d7d74 ; CHARGE = -1; SPIN = 1
I -1.4673572884192292 -1.0620137604102209 -3.0150416776025355
C -2.2072671111927167 -0.6164037869901888 0.20026885485240045
H -2.4580658433057403 -1.6866158663370547 0.17643108047391604
H -3.0411621551701216 -0.10116240175197642 -0.29842388251948304
H -2.245632673290679 -0.3135799990484707 1.2555477107234367
O 0.0495379009463238 -2.4248762998936284 0.9003523594998457
C 1.7488958632795304 2.4385868200578185 1.4776795866680803
H 0.9993390111832213 3.1761447942024943 1.2074029387397445
H 2.4942546764238904 2.338964541225539 0.6957878423988672
H 2.2042999819532687 2.663661619704729 2.4357599175018083
H 0.4050496981541296 -3.3223259491573414 1.0663196789009846
Rh -0.351630636044991 -0.16715004336276632 -0.7251119737234244
I 0.7474081500258211 0.5128797629567999 1.684292068366299
I -1.1171865406273305 2.475904869548719 -1.1169963403196732
O 1.8618404447227603 0.5398384930179997 -2.6684724763399563
C 1.166028678893538 0.2679175178353952 -1.7964327629951984
O 0.9223152707208555 -2.705746164086863 -1.1255978084402296
C 0.28933257174747634 -2.014024147510971 -0.35376511618487916
