12
## STRUCTURE-ID: 645668883a3d6929c73ae5e8 ; CHARGE = 0; SPIN = 1
O -0.785903606621387 0.2072216551290423 -1.6896994464644965
C -1.8373517780960127 -0.29279130720585667 -0.8981812155701685
H -2.6323820792810246 -0.5969815250344053 -1.5781731247494675
H -2.2253682222259523 0.4718691302620126 -0.21747547507275472
H -1.5197757764311552 -1.16329495021305 -0.3140917873122742
H -0.07564498096195435 0.5074871524431003 -1.093674471508431
O 1.2263514980269958 0.8860880751469457 0.22772463385258648
C 1.4178394681936624 -0.10496149562694035 1.2178123354899015
H 0.4300943834173307 -0.3759049401209856 1.5863114695722074
H 2.0134911814880136 0.27627101614876515 2.050732377364291
H 1.9008156419697668 -0.9938481726648511 0.802281262488915
H 2.0878342705217308 1.1788453617362329 -0.09356655809031791
