12
## STRUCTURE-ID: 64566b55bbdd8c2e726a6036 ; CHARGE = 0; SPIN = 1
O -0.6773673482315985 -0.25747706144981497 -1.4292261806650064
C -1.2231469563229769 0.2709181307230224 0.534802391184728
H -1.497034703153355 -0.7567205810147715 0.7027482112444748
H -1.9130541170219613 0.8305348755498924 -0.07353164699479287
H -1.0168415174243048 0.7939085756926242 1.4671963989162116
H -1.1655295128224346 -1.0753347164164875 -1.527103087695699
O 1.5215299864535332 -0.8489249233354521 -0.5208218848241184
C 1.4189883292038348 0.2134826407871901 0.32552719003465225
H 0.25288296813220407 0.3948790069450908 0.41226527820841
H 1.8107547540932518 1.152457826538547 -0.08448687212114109
H 1.8292329884689897 -0.007320850689331678 1.3121717953314056
H 0.6595851286248237 -0.7104029233305066 -1.1195415926191226
