13
## STRUCTURE-ID: 64566c2ffae57213ed0b3f5d ; CHARGE = -1; SPIN = 1
O 2.186404645450412 2.31993882548432 -0.9932726219774799
C -2.6994791374425864 -0.9430730823577894 1.4704640947003271
H -3.761337743404257 -0.8510920931207162 1.2809591015064015
H -2.3242280813473757 -1.9178050886771247 1.1771557369030545
H -2.4563017288471194 -0.7308891939744203 2.5046030348333903
H 2.5998545167888607 3.0370578612600383 -0.470482298722165
Rh 0.7849486262670582 -0.28798868024353336 -0.5968370552249537
I 0.48510856619861376 -2.825182891123059 0.1212435514761117
I -1.6758297900374304 0.5475897419175569 0.2325800139835008
O 1.72383600688766 1.4786458552467825 1.0311353553400067
C 1.6495636938266613 1.3835247353888334 -0.20013025874429777
O 1.9278996083598796 -0.7212463883829316 -3.3198352801640416
C 1.5595608172997135 -0.48947960141803004 -2.2375833739098216
