12
## STRUCTURE-ID: 6456672a0bda7817f162319b ; CHARGE = 0; SPIN = 1
O -0.8174926196635794 0.4528607291448904 0.5436012702709255
C -0.9008647900980757 -0.04731477797822342 -0.8140181409174585
H -1.5335789039980225 0.6278515915876978 -1.3801810544951063
H -1.2754400858922779 -1.0667909291922817 -0.8457048238574807
H 0.1575775264039314 -0.0314594952073482 -1.2083043420512407
H -1.6635745139984321 0.28504296155191156 1.017244292656921
O 1.8937503258632113 -0.03886747195629274 -1.273060122232939
C 0.27417544768953317 -0.1455832446391623 1.279604872927482
H 0.43987929875981036 0.4495547297396758 2.172916797182836
H 1.1519404256671035 -0.10001576035985944 0.6152591707592379
H 0.07092674420179532 -1.1856910532707823 1.5252005682400014
H 2.202701145064999 0.8004127205797721 -1.632558488483186
