13
## STRUCTURE-ID: 645689dc867b5a390615986a ; CHARGE = -1; SPIN = 1
C -1.403559751615053 -0.5440407875843097 -1.0250448514397787
H -1.8588467102500361 -0.35021507866958834 -1.9957621120732367
H -2.1594617709430866 -0.45234710068696815 -0.24264314551416283
H -0.9968778538713366 -1.5553995540950432 -0.9867247067700432
O 0.2884778836258659 -1.7451552027255273 1.187554155801107
H -0.42649636566544163 -1.8340975286162144 1.8258953928923367
Rh 0.9096169719063333 0.08066597400305633 0.7241060661481711
I -0.6911084337492732 1.1102775413373478 2.5343374836918215
I 2.690483348130873 -1.0335109387451706 -0.8866199251579916
O -0.1922844894984494 1.4824585478752714 -1.4364090286990543
C -0.33663407814348095 0.4831290846530822 -0.7948238286167851
O 2.404478047830552 2.659896036106205 0.5594391927912891
C 1.7722132022425365 1.6983390071478623 0.5366953069463293
