36
## STRUCTURE-ID: 6456df29aa83506c44071020 ; CHARGE = -3; SPIN = 1
Rh -1.3910539351708433 -0.8762903163910963 -0.5528142614905456
I 0.6417524848526712 -2.1796322682609155 -5.453337065449169
I -0.9730333800839162 0.6428918478604523 -2.7344443451576104
O -3.7645327376501623 -2.5124730592984617 -1.2150362529028729
C -2.9262503190631675 -1.7493370166831768 -0.9603805002701278
O -0.6589854717343059 -2.8893119820619444 1.3198298732491394
C -1.4233523168447457 -1.94627013617633 1.098029629029235
H -2.8891127538701493 2.703998269911251 1.5565746961361933
I -2.150023316665217 1.287365809528335 0.7763020718208091
O -2.342419238547344 -1.6113476496291006 2.0267758762172963
C -3.997980567265339 1.5336909317817735 -0.35280723804094694
H -3.9826662731885185 0.7714813863804166 -1.1240253513940892
H -3.96521165648931 2.5222139751621118 -0.7984619248583679
H -4.820745615411892 1.403147072456183 0.34145512348612467
H -2.2882447639109893 -2.14682000259163 2.8458331194059086
O 0.3093074199946493 -0.2041031174975738 2.251500880233381
C 0.31664054206519654 3.4772376474254543 2.537645401859346
H -0.3264104134612422 2.6025898154290874 2.6253252012443604
H -0.0939860173150753 4.177453320338541 1.8164893869989023
H 0.5088698589047883 3.9496718913131583 3.4960590586584943
H 0.7375224470532853 -0.0006313033760606962 3.1029016920275154
Rh 1.6242740049111155 -0.4980453441340848 -3.5806265265142376
I 2.2238868679301556 1.4319057337486287 -5.347805021628529
I 2.314431933722015 2.8481701534434234 1.7599499522659394
O 0.5046390201669568 -2.576760558905073 -1.8005358482460647
C 1.483996941492747 -2.042869682058834 -2.3494978415396917
O 3.1601578562078756 0.6919336563783812 -1.3065543086705145
C 2.599173665220307 0.2401571134502287 -2.249831658993223
O 2.701928746096174 -2.7376847643869358 -2.1461847912949006
H 2.5488858127798215 -3.529318699082512 -1.5938652850648176
Rh 3.013182998562022 0.38522580927780997 1.2598810577049493
I 5.572624334350985 0.9824371526983945 1.4772688213509977
O 0.5571240575239705 -0.10654437255713589 0.05937326261611821
C 1.1279831434439316 -0.03074917185344701 1.1478536950155758
O 2.9622354105038395 -2.581909858302212 0.9261969484381741
C 3.085391230888629 -1.4314722833373368 1.1409624737572162
