12
## STRUCTURE-ID: 6456686435ec6171dd5ede0b ; CHARGE = 0; SPIN = 1
O -2.2146053886737387 1.0411917115714686 -1.3054293169972992
C 0.033536888671268424 -0.6102604095769015 1.334243220953602
H -0.10549232886947474 -1.6646334134198 1.0705468846688746
H -0.8309546961098022 -0.25578198327200563 1.890648086174745
H 0.9335962680090145 -0.5126278716611908 1.9509909865618678
H -2.244312350153158 1.9785038219532924 -1.0988574821840362
O 0.12979336992495552 0.19176900319680623 0.176871069892721
C 1.2293230010110945 -0.153239635552574 -0.6382166559077161
H 1.2159164686799706 0.5268036391840395 -1.4865790067148883
H 1.1449943867243588 -1.1858817377861286 -0.9939459819664127
H 2.170788076328073 -0.04032438228951633 -0.09015402075780059
H -1.4625836955425706 0.6844812576524915 -0.8101177837236572
