13
## STRUCTURE-ID: 645689f12d9b782bd87b924d ; CHARGE = -1; SPIN = 1
C -1.3632234904061584 0.3999463540762165 -0.000417835530909616
H -2.0241282534287537 -0.44436014963777004 0.18904679066991995
H -1.5682974500353888 0.8146955723916862 -0.9859855506106251
H -1.6155489188699341 1.1796391152990242 0.7447381057783714
O -0.13362095160993234 -2.009956078422284 -0.2911675808646309
H -0.048315416234121396 -2.67499200425914 -1.0015761337121323
Rh 0.6567517617371573 0.36095442975614905 0.7899069685752217
I -0.23727338681783805 -0.9648704559187651 2.8715799912268327
I 3.1346884364750123 0.44909270481988484 1.7211483940586787
O 0.3377211852175606 -0.5366037692941249 -1.9015771126098469
C 0.08777882462746656 -0.7643667352225503 -0.733615042769586
O 1.564866969586083 2.53074112309108 -1.0308984857101393
C 1.2086006897588522 1.66007989332061 -0.3711825085011597
