18
## STRUCTURE-ID: 64568cff946a2936fc493a64 ; CHARGE = -1; SPIN = 1
I -2.3577814057437103 -0.613191217873574 -0.3175593642637516
C -1.0232935456362868 2.9255741009605014 -0.2047742593676372
H -1.8878372484056012 2.179586111121533 -0.13648540309406423
H -0.7251347510249224 3.9753012129111394 0.04833457995156495
H -1.5707119493041664 3.290811847674145 -1.110895878849383
O 3.0028850820236297 -2.0452879903740393 0.5559071074682905
C 0.225597134474801 2.146033831441668 -0.6618696754907699
H -1.14736669379913 2.827939962726244 0.9145579875177864
H 0.03235071236011477 1.5210851697562633 -1.5320430496809405
H 1.0854689383260756 2.7825199026202143 -0.8516138858903471
H 3.412656125212456 -2.8138597228089344 0.9585241097807611
Rh 0.8086930606245893 -2.1554430307012082 0.1607136361283928
I 1.1360601395619194 -1.4480120617780616 -2.3732534703188684
I 0.9743787308365965 0.6719195026120981 0.9162426903558216
O 0.2526546773736705 -4.014953814280305 2.43313027786273
C 0.5409993799441024 -3.2329664096428337 1.5988547934525865
O -1.7344390844868853 -3.478425283931905 -0.25054736304807856
C -1.0251793023372553 -2.5186321104329368 -0.14722283251411805
