12
## STRUCTURE-ID: 64566656a97b5c78e9610ab0 ; CHARGE = 0; SPIN = 1
O -2.04998487777461 0.3127284472305763 -0.43852309428217606
C -1.3135635667796473 0.3375845482235952 0.6417626500847584
H -0.5000362013952399 1.06725817527543 0.7448017189408825
H -1.2988136626214546 -0.5357613921368959 1.3036874111570016
H -2.468186719882884 0.8902439466321328 0.520956351629973
H -1.3576799488001203 -0.5853874964896605 -1.883842121015868
O 1.7675400234797531 0.7782187152737873 0.061858359229727544
C 1.404998530213381 -0.5760107634934221 -0.022631469633760157
H 2.093644284385096 -1.150354311048866 -0.646908863810077
H 0.39292196617313563 -0.6942582605062054 -0.4457184617257784
H 1.42265335862987 -0.9751046087106896 0.9894234425916006
H 1.90650681437273 1.1308429997502214 -0.8248659231662928
