19
## STRUCTURE-ID: 64567ae3be23556154230d7c ; CHARGE = 0; SPIN = 1
H -3.75294823178093 2.090577017067048 -1.5365538306791866
I -2.3503571805956613 2.484243391455269 -2.137973932543227
C -0.3312569347858419 0.10053813674728578 2.787437843149678
H 0.3348898651025704 -0.26288459622610877 2.012470030165834
H -0.00012176403055512101 1.0803181944763052 3.108583100126132
H -1.3415363826869195 0.17133098775584102 2.404201382057853
O 1.50216084647999 -1.1395146173934214 0.010718980944467174
C -0.8882182667584863 -2.3912361804473954 0.1748242250605162
H -0.30564091896931106 -0.5778681525910793 3.6303198651004274
H -0.9522928780075623 -2.3728087358944068 1.2464843165024724
H -0.6611496013903775 -3.288194901921319 -0.37121842384606835
H 2.3120408327382576 -1.65846471047024 -0.013316919841010088
Rh 1.254484547442612 0.29869080952306976 -1.4395923029440068
I 1.8021911574103302 -1.4678342265850397 -3.2742737306698144
I -1.3372697665966502 -0.730940604554003 -0.8359425150925549
O 1.3642273843865775 2.2826521423110755 0.7949193164579287
C 1.2663531617347195 1.5514298305403984 -0.07271927973539183
O 1.0235897652522237 2.2769809224259854 -3.6843160161349164
C 1.0608543650550344 1.5529852937807183 -2.804052108079113
