21
## STRUCTURE-ID: 64567703e594f86528111e07 ; CHARGE = -1; SPIN = 1
H -3.2471388516914677 -0.059420046164314407 -0.30145425955527927
I -2.086918728326317 0.5003045459048842 0.7773813362197569
O -0.4631088024757272 0.9394734604249879 2.269856822737892
C -1.2571894666865153 -1.4516501175772194 0.6289854661593325
H -0.8282102661712422 -1.5511689065024745 -0.3609455392597864
H -2.051165384348931 -2.1654259031875354 0.80473252036088
H -0.48218741120342723 -1.532093789721413 1.37967068877741
H -0.857390444809289 1.1038122202617098 3.12655265029731
O -0.7430749879760782 -1.2228487149158622 -4.813271276401973
C -0.8073466235263901 -1.6131741301651557 -3.457783883865942
H -1.7252917964079941 -1.244910762486223 -2.9888701983426658
H 0.05649706652077632 -1.2449110623928434 -2.894755872127173
H -0.808879236753787 -2.7018519540786823 -3.4473703919595082
H -0.6329718469139447 -0.2658744787044224 -4.844610664846322
Rh 2.002455199141993 1.3974406522121434 1.873733442362468
I 2.5363703573842726 -1.1326650365002264 2.4601387449968817
I 1.4739269941534845 0.9019016785534305 -0.664251745961328
O 1.890658430298925 4.276800551147051 1.1059697111329603
C 1.9220631325448652 3.161050506879077 1.4136392819853436
O 3.3212333240233285 2.084316784409256 4.46388745144598
C 2.7876693432235 1.8208945026037962 3.468765715843724
