8
## STRUCTURE-ID: 645663766f3f4e7fcf0876e7 ; CHARGE = 0; SPIN = 1
H -2.298864393454902 -0.4811451663745783 0.1934657910542803
I -0.8748768482120014 0.10198811233025355 0.9109441822434944
O 1.1719139433076453 0.7324379264390668 1.3366354572453232
C 0.06864624546134455 -0.3238233488994472 -0.9500705896366265
H 0.29265311891844203 0.617322549662932 -1.4344107049498156
H -0.6063413479232548 -0.9313338178305155 -1.5368504200246464
H 0.9900339093253194 -0.8413522079854391 -0.7210880033708007
H 1.256835372577409 1.125905952657733 2.2013742874387945
