13
## STRUCTURE-ID: 645689b7cf123f26112c50b4 ; CHARGE = -1; SPIN = 1
C -1.7488027338576269 -0.004417416289325127 0.05931401928594733
H -1.982730069021427 1.0527315129946455 0.20327179981369814
H -2.4371903861096627 -0.41445628587772065 -0.6941534710079358
H -1.9456436283084442 -0.5139704388729012 1.004560568106043
O 1.7682154166248416 -0.41275184948659105 1.6790246151458386
H 1.9066172612538448 -1.3133820629052873 1.3224438282654327
Rh 0.18621551032434128 -0.3557674502088109 -0.6522291309597721
I -0.10267191198126273 -2.8857180499761963 -0.03580041253626125
I 2.500660498629351 -0.7199976624373015 -2.018931403895212
O 0.7252342517636805 1.5098861436393443 1.3978777058865381
C 0.9451702915230776 0.3927103806606955 1.0110027097231074
O 0.06163788856656784 2.343748195885766 -1.8948912803732374
C 0.1232876105927232 1.321384982873684 -1.3814895474541882
