13
## STRUCTURE-ID: 645673dbf654612007630f04 ; CHARGE = -1; SPIN = 1
I -1.5018720832857153 1.1272021082295895 -0.9299743695729766
C -2.3934734151850137 -0.5377955639766159 0.14007604903963192
H -2.4017368415235563 -0.2842953482504543 1.1933042156459601
H -1.7830357874412088 -1.4136994326389531 -0.05036288943136377
H -3.3967026407413137 -0.6708313286300425 -0.24632408801685282
O 1.6743315657428877 -0.5051576527158422 -1.862057153387397
Rh 1.4105841302872812 0.639497244869747 -0.11130766918117593
I 2.415186038253317 2.674209536628121 -1.4604742247954665
I 0.44117838679431637 -1.933970146037078 -2.3735276640485394
O 1.4025677217335835 -2.062666688428991 1.1586884440249434
C 1.3450005239026648 -0.9815458891043998 0.7625302261133953
O 1.4034651442632857 2.2965809245972486 2.367323161636893
C 1.384507257198793 1.6524722354571113 1.412105961973715
