13
## STRUCTURE-ID: 64568c78652dc85e037cab7d ; CHARGE = -1; SPIN = 1
I -0.01963491772257793 0.999649473122058 -2.860682638552791
C -1.3400763524392196 0.054469281021874504 0.17759105538742975
H -1.5918825595666344 -0.6976079792103097 0.951331963839832
H -1.8890783426777327 -0.18422817624504448 -0.7320194598215717
H -1.6856595765869717 1.0103486042015026 0.5727599655622787
O 1.1060027298995665 0.38891617230960457 1.9845214433267468
Rh 0.7281180745008973 -0.5832675501597041 0.24934655868131977
I 3.100584929754084 -1.6177326875517815 0.6094207190536498
I 0.06523679094445495 1.7443165914768186 2.9510707908755665
O 0.41530495755229274 2.161401999643208 -0.2028203685786358
C 0.2127610261812067 1.071126618190168 -0.6174095320912147
O 0.40025409382070587 -2.588621345307065 -1.9326186053331886
C 0.4980691463398821 -1.7587710014913787 -1.1504918923493859
