21
## STRUCTURE-ID: 645675825612f83f1e2a1581 ; CHARGE = -1; SPIN = 1
H -2.2462403667163926 0.10711214126344451 3.214858514800311
I -2.5298597273837053 1.8828193825531994 0.997899959787435
O -1.3583078065327834 -0.22630584188752903 3.409117352924484
C -1.4117863447501 -0.7692680390330416 -2.5527240326660845
H -1.8065016297519156 -0.4041734229333257 -1.6053091505612105
H -1.9470171274919492 -0.2781300333676247 -3.361853112373602
H -1.5962278396025908 -1.8409689548844657 -2.6049957149827927
H -1.4654847262000132 -1.0992618023437595 3.8115805300524097
O 2.5492465041276215 0.03670331716761692 -0.23999971609745632
C 0.07447655359131929 -0.5266136507701311 -2.649228734190739
H 0.4834879266825417 -0.8768957365580523 -3.5922578389259026
H -0.18685506959041218 -0.5987625681392915 0.44940347941054953
H 0.6141784331235616 -0.9731579345125937 -1.8170534083783396
H 3.4803543720792827 0.29800750658524455 -0.4025574905865065
Rh 0.3985128464547817 -0.02134723779092027 1.6968514928530798
I 1.3310483242733306 -2.2520324553566016 2.677174213049176
I 0.5581693273705842 1.5886106432142573 -2.560405937032945
O 2.774828509172512 1.029796144869969 1.762388783390754
C 2.1150109433794815 0.40456825985959083 0.9484618798301422
O 0.3363292388512679 2.791453809371342 1.1821501471140603
C -0.1673623410862241 1.7278464726927265 1.2364987825832197
