13
## STRUCTURE-ID: 6456898174f9862abb304570 ; CHARGE = -1; SPIN = 1
I 3.3562220902026167 1.2994244534028214 -1.57479554597862
O -0.05681198863796046 1.3704926990317057 1.1351406334487262
C -0.7523314496181062 -0.8253357204685364 -0.5144362954359567
H -0.3982956936781127 -1.7505548072671495 -0.03543169726265053
H -1.4589631806012193 -1.108361469647185 -1.2921458832554742
H -0.10033953079736345 2.039792965165158 1.81821491896566
Rh 1.3707328286899247 -0.028521834313119946 -0.5114542058710143
I -4.075054332732087 -1.3128850674435415 0.5928861198719279
I -1.7940036606266327 0.3152988342642645 0.9372510981807546
O 2.593139838500218 -1.1947238250402081 1.9521334708831424
C 2.2472737909357434 -0.8060070709558672 0.914183053508101
O -0.8962504168240691 1.3505398761581744 -1.9028645998612603
C -0.03531829481294954 0.6508409671135159 -1.518681067193345
