13
## STRUCTURE-ID: 64568d8287c13b7b38324914 ; CHARGE = -1; SPIN = 1
H -2.219697231257612 3.2163895624354795 -2.1516785268254517
I -1.9071269061805816 2.816603821151301 -0.6320319833186882
O -1.5415790061859393 -0.4744118282971746 1.4937408537271977
H -2.3876420318052434 -0.30130547431234683 1.0291953655678994
O 1.9917926613720869 -2.3885143379409306 -0.1745295778006052
H 1.4470402727509193 -3.167421619267943 -0.25288290182342216
Rh -0.24731236123459072 0.8164548591839955 -0.795286797684641
I 0.45991748225544843 1.0957513819234321 -3.3237524422789955
I 1.3844608046131175 -1.0392893225488617 -1.4763989558167239
O 0.9059506883796956 -1.082005474492424 2.475532671499752
C -0.48640051667544965 0.06171144649669624 0.9072081927505414
O 1.7628153802687916 0.6083440884616989 1.268283907546313
C 0.8377807636993632 -0.16230710279297492 1.6326001944568493
