10
## STRUCTURE-ID: 6456b71393764521402726ad ; CHARGE = -1; SPIN = 1
C -0.6801088465197076 -1.7796818791876021 0.03632363974098666
O -1.5031605629844929 -1.8548551481917994 -0.7644154322727347
O 0.770569757016722 0.17676362737842521 -3.1898523132734
Rh 0.3261164768599942 0.07169251819905502 0.48052810854962075
I 2.433013521707592 -0.8904299633995847 1.731044535610844
I 1.7648795263738297 -0.30155177184610343 -1.6800010011614352
O -1.1921858601273467 1.9406164387954739 -1.3000157440849962
C -0.6682109013865316 1.2385813411388935 -0.5626624206830919
O -0.831987212505016 0.846039059888349 3.1353574289044928
C -0.41892589843503564 0.5528257772248865 2.113693198669719
