12
## STRUCTURE-ID: 64566b5475d573579c333bee ; CHARGE = 0; SPIN = 1
O -0.9763471000755635 0.20546615177459848 -1.1811429010383712
C -1.9127106066623356 0.20142962631473052 -0.12041223279218592
H -2.9334251349908804 0.08681844672406161 -0.49186203849002635
H -1.840203882338235 1.1168238824678598 0.47327126649788054
H -1.6685328352475752 -0.6517035611119645 0.5099857536953993
H -1.211661446106354 0.9059554995487098 -1.8019112148325016
O 1.5669238213074987 0.6656382742192765 0.0031853007956880253
C 1.9689054547413987 -0.5236107002430255 0.639796464318666
H 1.2183148930291534 -0.8678152789185385 1.3590502084213627
H 2.893203302430926 -0.3031707044687125 1.1727334764518353
H 2.158427853966533 -1.3220962554023503 -0.08488961136109814
H 0.7371056799454399 0.48626461909535107 -0.47780447166665085
