31
## STRUCTURE-ID: 6456fef8a3ddb51e021f8bd8 ; CHARGE = -3; SPIN = 1
I -3.360456409418543 2.475042239666191 2.341009383447377
O -1.9283730479151653 -2.8116522924291267 1.8607638706914755
H -2.2092535017221033 -3.6787372950345403 2.1600998490294776
Rh -2.2945592900133462 0.3934932671711407 1.2495975555219747
I -3.542467901093964 0.1665909476666041 5.457908148804376
I -2.545462126819555 -1.2674237671335549 3.253868410643423
O -1.9239897742405017 -1.7131656760100422 -0.7477629260282257
C -1.5651893293897998 -1.0858982281632141 0.21090979593805723
O -2.9500419205884407 1.2410047279483534 -1.5166926569430883
C -2.6547897510797034 1.0119898882402134 -0.40762976927742345
O 0.9933494740089027 3.334184917474203 -2.2252967631707206
C -0.5707637627618828 -0.4479870205029184 -3.0810342606443695
H -0.30559613325413065 -0.2090216420181336 -4.104321344109531
H -1.0390379387385265 0.41193078950780726 -2.61069435766537
H -1.2555535549396166 -1.2903070376186525 -3.0527982583486946
H 1.825815343980648 3.580646519398913 -2.662187543798212
Rh 0.4849120729821622 -1.7925939428974833 0.4207305412548417
I 0.7293443729085393 -4.31697569001609 -0.3934235950250736
I 1.175219786780792 -0.9027452035901478 -1.9832827870312835
O 0.09504718282597155 0.6197733831728611 2.072463939240391
C 0.8454703076920815 -0.029450597453175343 1.3361373664081833
O 0.5062828598276199 -2.5154557000166915 3.3002973228212205
C 0.42022881619565244 -2.3051437044434926 2.1679426166850604
O 2.1486196484887525 0.3522965418057966 1.3183835252019198
H 2.3399699521832065 1.07269337955782 1.9586587504777904
Rh 2.6711506183538485 1.0574423354188087 -1.2224373122122798
I 4.097043207524316 -1.1857691162886552 -0.9227240071816006
O 0.10125588047021367 1.9169242712301955 -0.7922873829431617
C 1.1278023302275073 2.250144764618369 -1.3987326471209338
O 4.685109501372576 3.2510189977571464 -0.9369487799468704
C 3.8989130861524375 2.417149942981336 -1.0505166847185574
