18
## STRUCTURE-ID: 64568b0ae273fb7a116aac5d ; CHARGE = -1; SPIN = 1
I -2.0824879083745826 -0.3147818554927249 -2.45224934982628
C -1.910224407252783 1.7041043085312344 0.5451508053672536
H -2.8113405923688357 1.0781949099179065 0.5407057622930167
H -2.237295870845056 2.7031454563646498 0.23402558589591624
H -1.5736030094612101 1.8015897887637793 1.583761606346123
O 1.4234321062497692 -1.6425389787987876 -1.2516544320719063
C 1.0027017457575453 -2.182285198492597 2.0655006705084715
H 1.3088097354950872 -1.3290586017873551 2.6622648700306972
H 1.7558211032987783 -2.4287145842006903 1.3257193456706524
H 0.7497040416344231 -3.0368661136710133 2.6826456842892052
H 2.101565383506801 -2.044911957901217 -1.8322287489909446
Rh -0.3503252283286072 0.6107990164316381 -0.6044107208936492
I 1.6803062955387613 1.433614929626971 0.927053472784663
I -0.7985476814694475 -1.621539671972491 0.9795436898764401
O 1.6303585758120782 0.08951338911004822 -2.629169642666045
C 1.0774073815758476 -0.40433901696192287 -1.655292077546409
O -0.5183841621332232 3.321012773930856 -1.7878928387748982
C -0.4478975086353914 2.263061406601724 -1.3334736822922542
