12
## STRUCTURE-ID: 645668566227d62173071026 ; CHARGE = 0; SPIN = 1
O -0.9326547495527119 0.2397066601938721 0.0856401294968178
C -0.1789001914444667 0.6789201379920504 1.1509033724139326
H -2.237033279928655 -1.6724615385269013 0.6125228295101854
H -1.6612825396262878 -0.8002686005518628 0.3637731965933188
H -0.7939591934343804 0.9219676273440176 2.004327071845536
H -0.3291496919045308 -0.0019511519587945088 -0.6823195082682028
O 0.6086529816103594 -0.469379769821515 -1.9548331895663191
C 1.1319878375847747 0.808342058587734 1.1197633060351295
H 1.6682332384882674 1.1832910838568385 1.9694066406639807
H 1.701116344178157 0.5476446480740397 0.24413967583144497
H 0.4148821843557296 -0.020777602512292395 -2.7839183126690785
H 0.6081070596737398 -1.4150335526771887 -2.129405211886746
