12
## STRUCTURE-ID: 645669ba08b3b27f99092931 ; CHARGE = 0; SPIN = 1
O -1.1695754092234476 0.3259003542960617 -0.3921291475029664
C -2.2200258658103786 0.6292691912306075 0.1022691255709242
H -2.797184012439742 1.4993016395825118 -0.23837964637519285
H 0.7064033933951789 -0.7981073232226183 0.8396738240672598
H -2.664801309945266 0.05321208507769794 0.9248470245668017
H -0.1572855572739293 1.0245171313123964 -1.965126089382764
O 0.30274443889282227 1.317107212676359 -2.7634528398369205
C 1.544199043932135 -1.1023407642353538 1.4531392474284897
H 2.3993285105446356 -0.47826052460203655 1.2285717323837653
H 1.7879045489190888 -2.136135020115283 1.246214499940275
H 1.285775112221521 -0.9948686621163553 2.4985802878266052
H 0.9825171067873957 0.6604046801160092 -2.9342080186862836
