14
## STRUCTURE-ID: 645679656ca54c30a82b66bb ; CHARGE = 1; SPIN = 1
H -3.5873303984957405 -2.4035142403533105 -1.1470600088844451
I -4.392472204797316 -1.0364566133860693 -1.3555984352683623
C -2.870101874345269 0.1958430497458344 -0.423266506386651
H -3.3591270689876036 1.1320274604151919 -0.16774590310059917
H -2.539930805221701 -0.3355679764406247 0.46674283662077876
H -2.0853821155790775 0.36383631533594346 -1.1588608385860502
H -0.2608757960948898 -1.542690736062605 -0.6188860685521681
Rh 2.3248073634179547 0.33655203623614544 0.45724092360333696
I 0.6130116367643161 -1.6357328956534571 0.7299314485512581
I 0.9257084986852482 1.4468186310306996 -1.3946131497954548
O 4.133342985734663 2.671708195038202 0.03947061584556228
C 3.4577490544046645 1.7679101997533875 0.21904745439425996
O 4.192944533287246 -0.6496334792242286 2.577377262010405
C 3.4476561912274657 -0.31109994643489336 1.7762203695479475
