19
## STRUCTURE-ID: 64567a84cd4c4c79ef67f9bd ; CHARGE = 0; SPIN = 1
H -2.074103880325797 0.31183626189607594 -0.3196959972222835
I -1.4174585368071075 -0.5216275561743255 -1.4899432971954867
C -2.8262437483793965 -2.19020228711843 -0.6545643111345402
H -2.778013965433363 -2.9902727379432816 -1.3934134174466852
H -2.7669893106356476 -1.9770057422005964 1.5328579917560379
H -3.826529316860176 -1.7589515815120313 -0.6350755256545577
O 1.4237879847610682 3.692450717801945 0.8028599153435783
C -2.31386059950667 -2.6281472124997074 0.7366898838818355
H -1.447291964669253 -3.3361773792061755 0.5948509960735392
H -1.4064172828078256 -2.007639862884963 1.0609516391757476
H -2.934336684171361 -3.4891272301923912 1.085388213996217
H 1.9106603502231567 4.417781413995487 1.1956444189910846
Rh 2.4826214896025283 2.0722447170691125 -0.11984211857212113
I 0.5382297398973418 1.9562027903390768 -1.9937148816525285
I 1.0499728621609836 0.24023001490440496 1.2430416121434205
O 4.6613664198477505 4.035421374954945 0.5365332494393713
C 3.9142178356611304 3.1849748975247874 0.23111069922582492
O 4.291174932577373 0.14827125865124005 -1.4766170561479701
C 3.5192136748652567 0.8397381425948592 -0.9370620150004736
