21
## STRUCTURE-ID: 64567952fa672e23563288a4 ; CHARGE = -1; SPIN = 1
H -2.6357041431746753 1.3164450967333954 2.4344986589997695
I -1.8684917556045706 0.04231006214198557 1.7710270058800601
O -1.0134357335669886 -2.1062594083875665 0.032265786697325466
C -2.5764589824781154 0.5204501520786491 -0.16455910569128776
H -1.6603559785726165 0.4614673588598766 -0.8596449517830416
H -3.1910840065735373 -0.3464221763749276 -0.4610547293549869
H -0.7842224788316807 -0.8842061854620165 -2.5104503835405336
H -1.080174534081644 -3.0131993408644107 -0.2946123299588467
O 0.7912936180137461 -1.0071034515646784 0.8961231450694465
C 1.7125585870318525 1.7495632940515053 1.9855692098728854
H 1.0634134120483985 1.0874935586832644 2.5478124658669477
H 1.79169728545496 2.7245879807390474 2.4536770766412914
H 2.6890154945505405 1.3064407944731145 1.8322302072185503
H 1.4800913298639853 -1.5818272171107883 1.26586193843119
Rh -0.10988030481023454 0.1004320957882226 -1.511417824076981
I 0.8047024039782692 2.068295736308147 0.01887411778679393
I -0.7355011619450469 2.426244971895915 -3.1665613526072693
O 2.4734866090922765 -0.5141757319747895 -2.834252707851904
C 1.4760171685317678 -0.26247802787208585 -2.312896242026309
O 1.0710133931437895 -2.4676564301097863 -0.8251138020292289
C 0.3020197779294209 -1.6204031320320544 -0.29737618354399464
