12
## STRUCTURE-ID: 6456648dd3c30b21006aac6b ; CHARGE = 0; SPIN = 1
O -0.8989289256564118 0.48992235219212976 -1.4963878222545963
C -0.559385924755152 0.695168659981068 -0.1644210285476823
H -1.2875899927856094 0.2854381291048912 0.5381903559039494
H -2.8115294296822833 -3.7310027892957884 0.5208345234930968
H -0.49253905603291404 1.7756799382038724 -0.006242575794942737
H -1.4479984582902679 -0.2925137834813948 -1.6143907888079052
O 1.483052630660352 0.48028996788442396 1.3473589115083455
C 0.9194804582919835 0.11423431488092477 0.1209307642154403
H 1.4512639884005727 0.5772546699919504 -0.7497087685848532
H 0.5099235188312072 -0.9562120268758989 0.3548344253336892
H 1.5010471860477603 -0.8720512229062742 -0.25921027156074267
H 1.6332040049707768 1.4337917903200885 1.4082122750961972
