12
## STRUCTURE-ID: 64566b596bc31c76904ed2bb ; CHARGE = 0; SPIN = 1
O -3.0647045602241767 -0.2462355332197771 0.22390673546539064
C -2.0013104090373384 0.27382846279628964 0.9915807376801689
H -1.0594754827162167 0.2594627990747661 0.43415888599457386
H -1.9049007056863927 -0.3685466081638909 1.8650147474710104
H -2.2082754985344946 1.2953204177121145 1.3242845195069448
H -3.1835166537832467 0.3056363852662593 -0.558405279587851
O 3.1636733389122007 -0.2068474489315097 -1.271559095219734
C 1.9183303231376274 -0.10184675212520201 -0.617784222702427
H 1.24183952644053 -0.9097722920205799 -0.9137304204455714
H 1.4886861906992537 0.8514427666604876 -0.9216475028469027
H 2.03442320222007 -0.10830280957092521 0.4704740368432078
H 3.5752307285721896 -1.044139387478044 -1.0262931421587744
