10
## STRUCTURE-ID: 645688c99c73e44d1f2fdd80 ; CHARGE = -1; SPIN = 1
I -2.063907779669192 -1.364750095384984 -1.564403881183183
O 1.6740073203581187 0.15261151053907968 -0.4448820806868461
H 2.339579018150849 0.25144251332441797 -1.1604772473450184
Rh -0.6218970022950207 -0.7771868089972718 0.551204121119065
I 0.833542789860431 -0.13106728541140872 2.6745585476435934
I -1.4641571890666063 -2.8974201603565213 1.7277259769654614
O 0.2108517516058382 0.9915042112585308 -1.9030564159515582
C 0.4578751285310244 0.5339693247205237 -0.8129542134569434
O -0.7984911989384929 2.191390373607962 0.5385738850171689
C -0.56740283853696 1.0495064166996615 0.39371130787823966
