18
## STRUCTURE-ID: 645671aef22cfa7e937ffa91 ; CHARGE = -1; SPIN = 1
I -3.2751434384907427 -3.032240005514698 0.3102502388669472
C -3.1107148162319724 -0.9570235333417572 0.7630089348463568
H -3.9590418581617053 -0.699044093173611 1.386121804177647
H -3.114488407475211 -0.4156488190567712 -0.17895752668385317
H -2.16443065693739 -0.8412994471777989 1.2827550126991283
O 4.0982032686298515 1.5559622403506062 -0.007315423116524156
C -1.4734166433504177 -3.3043565045513623 -0.8093587918403765
H -0.6711985376300746 -2.9099344187060985 -0.18855715174496843
H -1.3715213312880092 -4.369475191581522 -0.9910663882476104
H -1.5911324296405083 -2.736296382970621 -1.7263193611717271
H 4.916083882168825 1.702259038108385 0.5056100611271991
Rh 1.2806781813025634 1.9198759044277574 -0.20981941737960902
I 0.9690389151510898 -0.39858793811936216 0.8689750397556114
I -1.1259152567818709 1.8964493032973073 -1.2582577455977944
O 3.231523029298864 2.611598492659231 1.7601848574736285
C 3.0046884937704497 2.064872300640541 0.6696735054627106
O 2.4640702005317108 4.441042353836181 -1.265620832186035
C 1.8927174051345217 3.4718467008736003 -0.9113068164407339
