33
## STRUCTURE-ID: 6456c291f8f9d229ca6b0e04 ; CHARGE = -3; SPIN = 1
Rh -3.1793682288175593 0.40673423682120946 -0.31232203929470503
I -4.3541652429750535 -1.9261699803137133 -0.0063852804175791485
I -0.7717293824530872 -0.315643095881499 1.5110886534984662
O -5.666301242888818 1.5454418100790923 -0.8227881248485176
C -4.865376198109558 0.8653209916753781 -1.3931671899894391
O -4.298940921533319 1.3636348243614076 2.265241188796485
C -3.9370578888381305 0.9929856482399975 1.2428568760454617
I -2.2937668246091465 2.9849499630742575 -0.7730227026199828
C -5.032040094193687 0.3323138274087254 -2.775802507675861
H -5.9608189069884014 -0.24105194703250152 -2.7733531404150216
H -5.146822099707505 1.1895112903952199 -3.4403173019624425
H -4.219666277966705 -0.30185186869480524 -3.123531478768844
O 2.621326358090303 -1.9101711147125855 2.9314542523813625
C 1.2022319578436709 -3.22509760205644 -0.23752197148810256
H 1.7957849979769107 -4.131223914687869 -0.25316654536572514
H 0.3933997763656397 -3.277606716967317 -0.9594355735852874
H 0.8117589295362176 -3.0230000218497004 0.7557614414342213
H 3.1797155390014975 -2.618040700013875 2.5651963206159705
Rh 0.45855547660098434 0.7489138001040037 -0.6404601568734758
I -1.3606001510494041 -0.4916705298544825 -2.203722451611488
I 2.507292542965289 -1.5644874426508573 -0.8107782964105329
O 1.1085472344987264 2.8349674996947662 1.2208525990505659
C 1.5595099142581617 1.9298089358014483 0.5078961422384047
O 1.667192529451705 2.751864746430073 -2.4716530510602905
C 1.1796487164360763 1.882075398028189 -1.8643295714766224
O 2.9441602727226877 1.8822525472602245 0.4076404055359985
H 3.3359777247161935 2.5912047151823487 0.9534004658535103
Rh 4.1581312548931075 -0.44530710891420366 0.9020204804380074
I 5.642356451603062 0.08116499830585161 -1.2111972071437256
O 2.301098702939246 0.27774651873810047 2.866933402981838
C 2.9188612095454434 -0.6701862130245709 2.3841928452096464
O 5.953875350588585 -0.21094596363178647 3.2751910416166523
C 5.347228520096896 -0.30843753131405605 2.2832284753110055
