13
## STRUCTURE-ID: 64566e3d6146652d1a4b6a60 ; CHARGE = 0; SPIN = 1
I -1.1809892852735921 0.5756987120804286 -2.0170919683081965
C -2.0000443009259756 0.11586945167423857 0.40551032322090985
H -2.1398584706435595 1.1311326428690698 0.7492251130365718
H -1.5999159770482467 -0.5607232669266904 1.1577470494301674
H -2.8921790407101717 -0.297427149777888 -0.04010422032039065
H -0.006086639470431777 -2.7765930412384154 -2.0551354470455165
Rh 0.5853644219582754 0.041124365382669094 -0.08086179958582482
I 0.39942635912313956 -2.6836347838186967 -0.5230556110236507
I 3.0322748852203776 0.30418762024126994 -1.817265091607623
O 1.0404391081238238 2.9680398812483872 0.2449483651197339
C 0.8311842868699263 1.8504982420521305 0.1776868757751217
O 2.3414852613946846 -0.40457090109604077 2.321025000669067
C 1.5888993913817506 -0.26360177269046586 1.4773714106396312
