12
## STRUCTURE-ID: 64568eb5e3ed3d47e12726b0 ; CHARGE = 0; SPIN = 1
C -1.260816065365394 -0.00838770814616914 0.35242735883778675
H -1.302369565789466 -0.6190010827164104 1.2571281244161219
H -1.7471695949688293 0.953349976840516 0.5090220945400926
H -1.7758591994035215 -0.5505503406511661 -0.4610345588573279
O 0.5684038586597384 -2.108196807559 2.3125169670558092
Rh 0.6528527936524858 -0.06789771594835492 -0.6600863251122473
I 1.7362111492857948 -1.1098056922827892 -2.7530233177558694
I 1.2926611427035437 -2.2468103506282815 0.6130545607359806
O 0.6328300307426656 1.2123176987805477 2.023224658470872
C 0.5291464549682503 0.7357652184206479 0.997704786787702
O 0.29789245694393557 2.3419330310583906 -2.4501005365916897
C 0.3762165385708005 1.46728377283207 -1.740833812527222
