12
## STRUCTURE-ID: 645664a8dbb4537dea0876fb ; CHARGE = 0; SPIN = 1
O -1.052511967236231 0.00313365212612928 -0.20108296571451098
C -1.324034919031485 -0.031049943568756903 1.219096631329629
H -0.9571476540058158 0.8630067839073572 1.7222141946927951
H -0.832006187709886 -0.9097314035385102 1.631819137446589
H -2.4012905603502395 -0.12837683765777314 1.3391449508083324
H -1.4987135832352843 0.7824367041358143 -0.6163870017427432
O 0.4822249842486457 0.36585075314534915 -1.876516592126295
C 0.4100656550993154 0.07264336673848723 -0.5640752627878216
H 5.089255533959047 -0.5856919507996121 0.039898388622619484
H 0.819715100386458 -0.8964875854630203 -0.2661262895883743
H 0.8701712390944844 0.8789232102132223 0.01610755416884831
H 0.3942723587809359 -0.4146567492387412 -2.4440927451090597
