18
## STRUCTURE-ID: 645670afd1500419cd4efcbb ; CHARGE = -1; SPIN = 1
I -3.3342442358296185 2.424367473470323 -1.0647981935894983
C -1.8366857544195938 1.0861118945805208 -1.7984732281575997
H -0.9261266128623936 1.2671102930434341 -1.2361697553796072
H -1.6850815958700498 1.2865223442664482 -2.8506177429072888
H -2.1864949663629307 0.07436649782742079 -1.6389944803853078
O 2.5993080086718847 1.4738832056477515 1.538314946736715
C 0.9020061059505091 -2.8592764933599937 -0.7334277913846395
H -0.17425622112937791 -2.883983844349825 -0.8499661697628581
H 1.1836140692563595 -3.0649863731914464 0.29318103272461293
H 1.391033549223467 -3.5385620358718914 -1.4195000878540933
H 3.2209897844149173 0.936062925231545 2.0390360326366674
Rh 0.7093683515745504 0.6701945928250941 1.4850273555004798
I 1.4807741163907242 -1.4112546067929024 2.9096532626289497
I 1.5744620176354807 -0.8498269536391765 -1.2117339010418213
O -0.056008689714291605 3.4396165480246648 0.6550188032222938
C 0.2054453860487268 2.3492981593615005 0.9241413914515835
O -2.073571981898941 -0.41093079532840815 1.4828398706132124
C -0.9945313310795402 0.011287168254847208 1.4764686549481985
