17
## STRUCTURE-ID: 64568e8c5e31572edc071028 ; CHARGE = 0; SPIN = 1
C -2.29953963182375 2.040940485290635 -0.09629558178740394
H -2.0213563150871092 3.021464421693547 0.297587617311987
H -2.6751388930143323 1.4063427795033179 0.7421369137396049
H -3.1080563813169317 2.157158701615743 -0.825406728702007
O -0.054010614600053505 -1.736093170679653 0.5235242638126347
C 3.1160246301193166 -1.6445449194022725 -0.11212625243401346
H 3.4276642264095787 -2.449136518462711 -0.7652011221055488
H 2.367347479803517 -1.9814916821147321 0.5938655722556534
H 3.964384739119679 -1.2002246823321994 0.39141824592216073
H -0.39719602581838526 -2.4245175860274295 -0.06290075499950577
Rh -1.1263957129278759 -0.14778346887324004 0.3466853240166155
I -2.8036133947256707 -1.34429036283717 -1.2111422841459019
I 2.1959568554834914 -0.12878216210806 -1.3256074735756
O 0.9082492986655063 0.6915205317858013 2.377873201747689
C 0.07755456352477731 0.5186180819170374 1.6233356417403177
O -0.4501138290338095 1.7681876954383977 -1.7034767119798995
C -1.1217609947779428 1.4526318555929436 -0.7942698708168134
