12
## STRUCTURE-ID: 6456677290f2db7fe5399e48 ; CHARGE = 0; SPIN = 1
O -1.2983267270592584 -0.3694098187122999 0.3623117975908891
C -1.011774418290641 0.0912951809940571 1.6664403215571313
H 0.053436851742863854 -0.063459692661077 1.827986742700157
H -1.5690600250136353 -0.47241998423717 2.4190994655919416
H -1.235994886064718 1.1567087120194164 1.769873068704846
H -2.2412720918008815 -0.2620014075523061 0.18975203181319472
O 0.8555490173370964 -1.0355798095983737 -1.4282664333973087
C 1.4610919524919141 0.23527888318563792 -1.4747055095444785
H 1.8213307783032837 0.543525279208246 -0.48763451375137845
H 0.7694999497224547 0.9943300293797914 -1.8534308659118919
H 2.310410449269008 0.15873000762089362 -2.1525512795434754
H 0.08510914936252052 -0.9769973796468258 -0.8388748258096131
