13
## STRUCTURE-ID: 64568b3e5c8bae7038630f0d ; CHARGE = -1; SPIN = 1
I -2.4303284397264004 -1.617294728205759 0.29554965059156446
O 0.6871330301107643 0.11069790549034236 -1.9293246774585637
C -1.3630029018160736 0.18268599683582712 -0.16940258766923275
H -1.8166807134518372 0.9407514963172829 0.49554138148186444
H -1.640687729008395 0.45944602288248837 -1.1860484969470757
H 0.9987965418718593 -0.49457653915931016 -2.63009645761678
Rh 0.5507631220481829 0.6924843693853533 0.7247758286229883
I 2.8245995018857313 1.3353169572821146 1.8773531161224486
I 0.2996837207734943 3.0254023659362574 -0.4435605727443946
O 0.41362814148938093 -1.7551980332292125 -0.7311039016728487
C 0.35671605643518267 -0.544429679308674 -0.8086001123297858
O 0.5611013362273729 -1.594880717866702 2.633870222429216
C 0.5582783331607278 -0.7404054163600065 1.8710466071905885
