18
## STRUCTURE-ID: 645688f516a6b02a4156ede3 ; CHARGE = -1; SPIN = 1
I -1.133308688383153 -2.6113334796966594 -1.8517418218068413
C -1.7608963496786816 -0.3993612012422983 1.167707541682055
H -2.476350031952849 -0.9531109100907807 0.5492038616680249
H -1.9120472633834054 0.661163297745692 0.9683238715405472
H -1.9894794798737165 -0.6126064700516457 2.211351295101923
O 0.1042259152707076 2.444105822374858 -2.9028539417115273
C 1.2654964079772668 1.9630290619988904 -0.48801627102473255
H 1.6055787956767573 2.703182150194901 -1.1971183990090082
H 2.098190202922256 1.4142391784957073 -0.06127736962776975
H 0.6676540713662908 2.426677689989066 0.28808685848489235
H -0.3757514339113925 2.282870737663766 -3.714708282336376
Rh 0.03107376372582009 -1.3827242316687578 0.26284587741349114
I 2.6238255963548607 -1.8436259735978198 -0.45192942118770574
I 0.05377274540850548 0.6040354121191938 -1.572572232061027
O 0.47566927209486265 0.6281460684812895 2.42543412730852
C 0.2209730374487267 -0.13595469122604975 1.5949254272888012
O 0.4056880943961151 -4.113315441511556 1.5643228999583654
C 0.09568534454102579 -3.0754170199778015 1.2080159783183864
