12
## STRUCTURE-ID: 64566b8fe6bf3621201688fe ; CHARGE = 0; SPIN = 1
O -2.83865488306321 -0.17459974859583957 0.024855773821261327
C -1.506762338289275 -0.405816961854098 -0.09749082049786029
H 0.05874030277865288 0.4770895146269435 2.217214833954992
H -1.2395054088973294 -1.360894346633787 0.33255882788081914
H 0.25165003677039177 0.7384056332676465 2.9253922167959567
H -3.0562463052641413 0.6844420497268489 -0.3652098924848682
O 2.796055059738767 -0.4750067691381607 -0.8453383820499846
C -0.6239894472320465 0.40054908924994204 -0.6599821873317245
H 3.4379879088186276 -0.4816036945933651 -0.13070568309843728
H -0.9100583805988565 1.3488541191871992 -1.0838066650298002
H 0.4144010687014495 0.13536914634249922 -0.712795426756316
H 3.216382386536982 -0.8867880315858542 -1.6046925952040048
