12
## STRUCTURE-ID: 645666f9306068394b3dae61 ; CHARGE = 0; SPIN = 1
O -1.4397638254041771 -0.5332881014196581 -0.9280184890022886
C -0.8491182786162654 -0.3193143763701003 0.1894513908890099
H -1.5388776998167322 -0.3564161842919681 1.040266503928591
H -0.5217281539936298 2.0773647476450603 0.3819486630690554
H -0.6840735951698074 1.2250211595222749 0.33875640455019834
H -0.8772374790707256 -0.623382289297319 -1.7230181488154623
O 1.1111396954001183 -0.17112813430060525 1.619808983053998
C 0.5827174495598949 -0.6910014894502123 0.4436933115197461
H 1.240120712600598 -0.3615583044118171 -0.3686782949710003
H 0.5912527875917366 -1.7982455403064992 0.44954390813099393
H 1.7082089409564292 2.098753796559481 -3.843128350236143
H 0.6773594459625168 -0.546805283878663 2.3993741178838333
