21
## STRUCTURE-ID: 64567934b81e5a036e630f13 ; CHARGE = -1; SPIN = 1
H -3.6572470907875108 2.2207192504240183 1.9770177509686397
I -3.067602564039998 0.6404621132454746 2.2602667149888256
O -2.2740135931067664 -1.3583550115621097 2.160479723351372
C -2.591965628651486 0.6085446748915206 0.18751760497541622
H -1.8113592789517097 -0.7014869717879797 0.011936282630867791
H -2.454872349418651 1.6468794733379155 -0.11804319623951756
H -3.45735003019472 0.20427443805109563 -0.33103125185084725
H -2.394516564837281 -1.8430975438567812 2.97486743989331
O -1.173703444368904 0.10130744297112079 -2.276580814062363
C 4.180361766996225 -0.34231552187036113 -0.8950338347003384
H 3.7696015136770553 0.18635003579725315 -1.7460444100574872
H 3.6977117909689214 -1.3045561868752131 -0.7780318743463818
H 5.2528812900377835 -0.44958596051566824 -0.9824695846220187
H -0.7304672419101386 -0.5018235832109466 -2.878707875919044
Rh -0.49666135427066843 -0.019965920375357812 -0.31624971392497
I 3.773888745548674 0.8198281506815255 0.8592753105040634
I 0.7409766973330735 -2.506110826531181 -0.7608982634864667
O 0.40729552126467017 0.04474232093692339 2.5233904531515106
C 0.05614056814888756 0.01760301584161115 1.4286327998120814
O 1.4261983665409208 1.4633439293041988 -2.094415226027405
C 0.8047028800216333 1.0732426811029308 -1.2058780350392524
