12
## STRUCTURE-ID: 64566a645d2ec414fd4d91e0 ; CHARGE = 0; SPIN = 1
O -1.3698002905910716 -0.031023087269107887 -1.571165645205407
C -1.19466681408725 -0.10621085889507793 -0.3150814993116492
H -1.1381261823965412 0.7541243582199594 0.33015543199900993
H -0.9686304746451834 -1.0820562295344014 0.08352606059112962
H -3.0042988015132006 -0.3302950046946508 0.4101510395227748
H -1.548700023369949 0.8670839977966109 -1.9139305837087826
O 0.9830604202453368 0.23651979009187984 -0.4036608696475669
C 1.600246736910993 0.04126967679075785 0.8559761037974813
H 2.6639931749739416 0.2797327971778583 0.8012663824928421
H 1.4722448615464807 -0.983004530108933 1.211760793223356
H 1.119943155252885 0.7210557026398488 1.5564092656241157
H 1.3847342376735698 -0.36719661221474176 -1.0454064793773075
