18
## STRUCTURE-ID: 6456714633431e751f09292e ; CHARGE = -1; SPIN = 1
I -1.2734549258026822 -1.4480234517018375 -0.2802825531836583
C -2.218538446186106 0.29238985231974923 -0.7078856482747996
H -2.8146029167072744 0.7568471441344853 0.054102722725038334
H -1.9430444933938316 0.8137619463115563 -1.605045766161066
H -0.7047315466433585 2.9998528108705127 -0.02962464870298085
O 1.1327864981232372 -3.423871676345913 -0.719222317389486
C -0.8964257172747492 3.6421824648584957 -0.8799984136311975
H -0.7331355387823463 4.670018534884592 -0.5861760296963217
H -0.21301534334861677 3.3822550348462475 -1.678145934418115
H -1.9178586987560284 3.5124598754392315 -1.209548585429665
H 1.6086147109498983 -4.184937715909208 -1.1113942999294744
Rh 1.1012017545360266 -1.136470847245578 0.9965249435254844
I 0.5340474058360524 1.003007245605514 2.5415049840182795
I 2.1565782910778535 0.2440646051110435 -0.978103584554563
O 3.0153862200785535 -3.087095421673746 0.4345738548398899
C 1.8807077077554442 -2.7323033352398407 0.14766275108847562
O 0.5760832566081371 -3.030653838029972 3.2358911436525246
C 0.7094017819298035 -2.2734832282353308 2.3751673815216385
