12
## STRUCTURE-ID: 645667083de53407e5351d7b ; CHARGE = 0; SPIN = 1
O -1.1030171794177055 -0.44205583464302484 -0.279520045108296
C -0.9213727208632987 0.23828062184883436 0.9879862712115706
H -0.06257920386519497 -0.14191204445531716 1.5398586697754872
H -1.8337397039867425 0.10346860355239106 1.564605525577264
H -0.7778539819668072 1.2975367670103524 0.7830129159978244
H -1.3029434009770369 -1.3961346679041933 -0.10753246310033329
O 1.0315860523601499 -1.2565836633308074 -0.8062203690779668
C 0.0672310057173203 -0.3935573564205785 -1.2075767090701452
H -0.34461119440916615 -0.7329387564276069 -2.163104156584606
H 3.1852391707493544 2.922590132751664 1.1741885579384672
H 0.366086305991916 0.656700643436924 -1.2552053137998926
H 1.6959748506672054 -0.8553944454186322 -0.230492883759375
