18
## STRUCTURE-ID: 645672eacefb0626f609292b ; CHARGE = -1; SPIN = 1
I -3.116537143006179 2.356792265420584 -1.2456568217471464
C -3.01619602044496 0.5221633035886826 -0.16503421996731993
H -2.05912627156044 0.474732338177465 0.34277386313228575
H -3.1036345119719773 -0.2920746340479478 -0.872206238338822
H -3.8275231926068747 0.5104192304563735 0.5500641060446996
O -0.04651109219901596 0.3202514295590971 1.1997673722208193
C 0.5620231405985187 1.2790674531634973 -1.8326159822498274
H 0.010247587438263218 1.1639871560445556 -0.9058199993352566
H 0.1220666456516554 0.6827634660715264 -2.6222540941161103
H 0.6523777045597703 2.3194287725123424 -2.1155521766517564
H 0.1012670770344982 0.9178285946463368 1.9357435960859597
Rh 1.274472260227778 -1.2598174692752497 0.9219213350360581
I 2.5345267866957184 0.5063330541505388 -1.445223744555762
I -0.4062020896630225 -2.3196636628525917 -0.7903357731155408
O 2.986573125884922 -3.693294515029456 0.6910857590820062
C 2.3441643412653006 -2.7341816547696602 0.7489795657123988
O 2.759105844491674 -0.1526342809853747 3.263709365307081
C 2.2289058076043258 -0.6021008468307922 2.3406540874562487
