17
## STRUCTURE-ID: 64568a731688c16d412a156a ; CHARGE = 0; SPIN = 1
C -2.253228230362162 1.827162557013077 -0.736951402605689
H -2.036014616140416 1.7863315717766068 0.33278970246037337
H -2.0606743079105345 2.8281611504999358 -1.1220937578746646
H -3.308096440846512 1.5922492921578644 -0.8914973049796121
O 0.44779474842635736 -1.3975534450988845 1.8045113202765715
C 3.260917804192409 -0.9556436103987008 0.022655930672666674
H 3.7979874816512256 -1.4322838728678564 -0.7896001179622848
H 2.6271322417453864 -1.662181590903646 0.5487590591897332
H 3.936758442955983 -0.4447932356999698 0.6985487675239133
H 0.5100180884206513 -1.4590688365846203 2.7800729402509075
Rh -0.4576692765754928 -0.5074489536916847 -0.5446819429417548
I -2.3780398289481144 -2.225042580740279 -0.46128203536886253
I 1.9584417741741962 0.5520321432343153 -0.8557174870734096
O -0.9242541449190251 0.3871014854243641 2.0380528475935797
C -0.35325671370181916 -0.4402946657443024 1.3812269855771435
O -1.3103895261036398 0.6990177924938519 -2.68961100565385
C -1.4574274960584823 0.8522547991299143 -1.5151824990847345
