18
## STRUCTURE-ID: 6456715f83968545e2242a27 ; CHARGE = -1; SPIN = 1
I -3.8399221986716587 1.0025215321314294 -0.6871501987589521
C -2.5042270289580117 -0.7093572490544542 -0.4421879871953825
H -2.938745754986913 -1.4412915393118455 -1.1401171653833506
H -2.7695743450918164 -1.0718889676622956 0.5603384567188117
H -0.26974696876829507 -2.082262360223536 -0.5619081145914379
O 2.4631542338514336 -0.3200652414125799 0.17752633037970794
C 0.9757570763405897 1.472409964109078 2.6008422691262894
H 0.31621356205610607 2.298754902273923 2.3558231463256614
H 1.8924193442553654 1.5246144810095374 2.024398824582218
H 1.167636536324987 1.4059827654913462 3.666162336788684
H 3.4223062706448086 -0.3417566535544947 -0.019585180957817833
Rh -0.3033233474621135 -0.5507516084040593 -0.6857710106234824
I -0.0993590588065587 2.1013076910487634 -0.9580655606205146
I -0.03211163264394075 -0.37576484336798077 2.0215573381417156
O 2.3107157364183064 -0.8634560750177369 -1.9617850035088211
C 1.720551939924522 -0.614262929216333 -0.9164692137783614
O -0.8850142030428342 -0.7538742690648794 -3.5763965924870806
C -0.6267301613839579 -0.6808595997737868 -2.4572126741579434
