12
## STRUCTURE-ID: 64566931f8b2915c6c22414b ; CHARGE = 0; SPIN = 1
O -2.488540211304696 -0.4813525466206917 -0.9065923896818654
C -1.0700515593630786 0.21121617637079973 0.8867751082898737
H -0.12487110786583423 0.6901053736219906 1.1222396244782036
H -1.077482865880702 -0.794300103646357 1.2986505728470674
H -1.8836936544991905 0.7747666172793206 1.3353706087357993
H -2.600873654964554 -0.5398626300711435 -1.8618670598198095
O 3.91469164531718 -0.41974197565623417 -0.025709838816254705
C -1.2521170556040877 0.14911157248754434 -0.6218993093682573
H -0.4251228630889974 -0.4182581706594525 -1.0716708396922807
H -1.2434503792347973 1.1658556099482285 -1.0402368407815727
H 3.9769862023761857 -0.8067297981968989 0.8516153863057028
H 4.274525504112586 0.46918987514290994 0.03332497750337454
