12
## STRUCTURE-ID: 64566a2b637a8b177128a824 ; CHARGE = 0; SPIN = 1
O -2.2367925314827017 0.4735309921547091 -0.477844345570065
C -1.2880864050328433 0.15142783816903455 0.41974581743544287
H 0.11248446969158615 0.18487088934979992 -1.0769864527388966
H -1.5553333094624278 -0.6390738524806466 1.1291873245452047
H -0.9584164840182569 1.0594926142888286 0.9345016620781087
H -2.73349531508243 -0.29726072534317394 -0.7955092751306246
O -0.10260108521922556 -0.4189432106369502 -0.32863553607730484
C 1.0652999044176017 -0.6362665534923991 0.49190276189104337
H 1.8398599715765518 -1.0625017645059374 -0.14208137417068037
H 0.7947125042471135 -1.347605004749487 1.2700198085441632
H 1.4297479678179592 0.29110428052502213 0.9326051191019332
H 3.632620312547088 2.241224496721157 -2.356905509908301
