8
## STRUCTURE-ID: 645663a9b1fdfb3b63399e4b ; CHARGE = 0; SPIN = 1
H -1.2837455866557 0.08846357813669452 -1.5067603346148455
I -1.0804488494435425 -0.31790532831478097 2.7512960246833003
O 0.7347560605570828 -0.21124345714139364 2.00018551787505
C -0.2034648504245975 0.14988646726988164 -1.4976603478117636
H 0.10732946638200526 1.1091517459272442 -1.8903416092778667
H 0.20911621521430412 -0.6422817243927045 -2.1086076370382694
H 0.156263577504963 0.04365889072244387 -0.4824111098912541
H 1.3601939668654917 -0.2197301722073991 2.7342994960756473
