15
## STRUCTURE-ID: 6456b7f1ed88483ab575cc23 ; CHARGE = -1; SPIN = 1
C -2.4184681176914102 0.10610181887754429 -0.11659976653946497
O -3.062582140294338 -0.36300354401764245 0.6914619557266442
I 2.155321774594145 1.491448915310474 2.461550398374693
O 1.60550366925987 -2.140077890424175 0.4910507141478865
C 0.006445172839692221 1.2858282016556697 -1.565900339727225
H -0.6790951573746006 0.5667695291577155 -2.004870214596718
H -0.09006311388484836 2.2720431695909946 -2.020437393284108
H 1.8970256525981697 -2.8842480584778953 -0.0783992902537271
Rh 0.48593155089566215 1.1945862757512822 0.3972228063911855
I -1.4504107257453294 2.833899983888673 1.012723824423104
I 2.034718219579771 0.5996943179262423 -1.8147350859765823
O -0.6560502228231038 -0.7509630935445218 2.08761763916777
C -0.023787704146178035 -0.5307545970654922 1.0853540106498194
O -0.24072373989400625 -2.0356436786373604 -0.7745015184085274
C 0.4362348820865152 -1.6456813499914942 0.1484622599052538
