12
## STRUCTURE-ID: 6456653518b4d2769561a6ee ; CHARGE = 0; SPIN = 1
O -2.808033960056283 0.08012142351557267 -0.4153334590672217
C -2.0221337149910386 -0.4374331942788737 0.6393757010781729
H -2.2161023879541855 0.12706640130599614 1.5632442650279224
H -0.1648608536385638 0.5875106209020314 0.21370645473114877
H -2.3758017991391087 -1.4614585229598884 0.7838782387160578
H -2.488855568405788 0.9660571867847789 -0.6288141513405088
O 4.019164266591842 1.064309476865716 -0.9919173278670673
C -0.5291447120158792 -0.4312628783705178 0.3305756696610405
H 0.014767126022264458 -0.9023018712371221 1.1440629053498346
H -0.33511269571992813 -0.9783164395162861 -0.5888761779929007
H 4.0471875751496755 0.1818883656579189 -0.6127283236550549
H 4.858926724156995 1.203819431330668 -1.437173794641421
