12
## STRUCTURE-ID: 64566a13b120df342241e58b ; CHARGE = 0; SPIN = 1
O -1.2843795875664876 0.23239569406498645 -1.999838915368733
C -0.8009851361297136 0.10298845451671695 0.7497104797871625
H -1.3638375262781763 0.828549098861505 1.32640784473588
H -1.0981996063305313 0.16617867972021588 -0.35438303376481056
H -0.9683376790895154 -0.9078432654552239 1.1116675952796025
H -2.2245407392844485 0.3458986878486099 -2.1727309962224277
O 0.5983455744373806 0.4703654098533564 0.8210442458567645
C 1.409448273071515 -0.26412779585753765 -0.12006941975404468
H 1.454306081041251 -1.3234317766376984 0.12941719292444978
H 2.4008737231524395 0.18247236982409132 -0.12624048528502438
H 0.9388452058059809 -0.1482502435573136 -1.0970323949507481
H 0.9384614171703198 0.31480468681829527 1.7320478867619238
