8
## STRUCTURE-ID: 645663a5c25d4344a20b39d8 ; CHARGE = 0; SPIN = 1
H -1.7391692439184883 0.08124446561819829 -0.22870573713378373
I -3.2438383089985345 0.1974144217753311 0.26527757615099246
O 0.02159992148001952 0.037816904567414114 -0.722993543340266
C 0.9718766917953338 -0.1991246039464908 0.2993264741787954
H 0.5567435879796 -0.9717850137879095 0.9438091942973258
H 1.1504846836292861 0.7026294931250986 0.8907007658038376
H 1.9154967098766806 -0.554823047544305 -0.11911527650648371
H 0.36680595815610084 0.7066273801926638 -1.3282994534504198
