19
## STRUCTURE-ID: 64567a2b57fac813ff1f8be1 ; CHARGE = 0; SPIN = 1
H 0.5172725622497918 3.3149622289240086 -0.8301039413194402
I -0.440240247571676 2.349128914656212 -0.023726938770633543
C -2.252087320300732 -1.2130296664757951 0.027680003380574008
H -1.1744974136831312 -1.0955716402617048 -0.0007927739715628742
H -2.5654432748750797 -1.3550030679833738 1.055083573691321
H -2.5347469566523895 -2.078260544387376 -0.5567070761803028
O 1.3349600864669824 -0.9565745405951698 -0.26615652410679236
C -0.6666028756518627 -0.14230038252455704 -3.168639546088937
H -1.099857311672307 -1.0298645375229505 -3.593241513203366
H -1.2481815943859758 0.7533582664525786 -3.0311474881647604
H -2.7246793316985136 -0.3259906403895 -0.37266472616552887
H 1.8989966016876791 -1.7366787168637094 -0.30397983684801994
Rh 1.6377695237569327 0.43599510576853123 1.3739847414465838
I 3.6410773575057926 1.5270896371306777 0.10171836454753036
I 1.1836663276027504 -0.200850559199238 -2.4783747941834644
O -0.27084390378411943 -1.1586913866356987 3.0389237134982108
C 0.4356525371706824 -0.5490924329775985 2.3724956355222946
O 2.3039932056419996 2.0276070397885158 3.7984465993672063
C 2.023792028193106 1.4337669230962644 2.857202527549227
