16
## STRUCTURE-ID: 64568e02564e427af45b5c20 ; CHARGE = -1; SPIN = 1
H -2.7690340024936333 1.667123214339563 1.196902814732916
I -1.8401658052910608 0.30686815445878035 1.6443532923709347
O -0.5451976826014382 -1.3881682745364465 2.2125132970561707
C -0.7608434427005226 0.9095092594013907 -0.22098348313968091
H -0.5615697520141157 -1.7390143605308355 -0.7845626612940914
H -0.48362319067226583 1.9194115430530239 0.07306319266450644
H -1.6034425840597664 0.9203893381670776 -0.9075937902603347
H -1.0328489907358844 -2.1568426496839246 2.5095672788889334
O -0.009239847881781072 0.273728926229068 -2.5251927678569897
H 0.5167337754154597 0.6412963123733223 -3.259258434223019
Rh 0.49999063990661896 -0.875583502946223 0.03353118243975937
I 2.3619489919358276 -2.7538449373039753 -0.3941221261169837
O 2.4667897677055923 0.3087122066277902 1.9393938657070513
C 1.72932065821498 -0.049852422291707575 1.128325585323815
O 1.4814173725402737 1.4120478055044385 -1.3132569618882926
C 0.549764092731793 0.6042193871386435 -1.3326802844047128
