13
## STRUCTURE-ID: 64568aa3ac076b21cc610aad ; CHARGE = -1; SPIN = 1
I -1.0018106195187537 2.52088660355965 -1.1777014249237492
C -1.2979291715579937 -0.2312041300377011 0.9760112193211901
H -1.004321827817597 -0.9829985568494881 1.7149327615542356
H -2.061263897938337 -0.6863815707897506 0.32941939607473797
H -1.8037603183427693 0.5796549170057911 1.5078553824650915
O 1.348532072348513 -1.380250116795003 0.25269821516215607
H 0.9373566196130937 -2.1873396359579207 -0.0759172769775982
Rh 0.26021181109987684 0.25234321464791626 -0.4419635674020854
I -0.7412906957937713 -1.238116468220878 -2.479509734556648
O 0.6894956427116546 1.3429381041043886 2.2943461237443636
C 0.5134508953854477 0.9522734771369377 1.230825728789233
O 2.508811866569873 0.5372296342788498 -2.4429774249819722
C 1.6525176232407675 0.5209645279171932 -1.6880193982689582
