34
## STRUCTURE-ID: 6456cd65be136e6537763453 ; CHARGE = -2; SPIN = 1
Rh -1.5294620019831073 1.8928758742409522 -0.7891870992760197
I -2.139208318477001 3.6776712154591595 -2.597048274917993
I -1.4497027435895895 3.628884933623452 1.1999771670354296
O -0.9567645577798306 -0.5578626270185656 0.8028474055721695
C -1.002229116566047 0.4906966049112658 0.29150274222981754
O -1.9361207049557596 -0.6734241543986471 -2.21608462980093
C -1.781023794575282 0.42073467759054495 -1.8652610197691144
H -4.589964614383363 3.6544750218147244 -0.5043102557814388
I -4.488107940156665 2.0844562714671846 -0.26566294751573843
C -6.748591219795575 2.259539354537392 0.0021661692727484704
H -7.1230199151995945 1.2580894449390123 0.19493907082247997
H -6.909160809580104 2.9202528081346157 0.8503623679410834
H -7.1338665178826535 2.660957668444344 -0.9320725356381031
O 2.9997319232924022 -4.050876250106101 2.1563372947819954
C 0.058956557495929374 -3.1108996921391068 -0.4625163165332898
H 0.2986996371788875 -4.136216038301193 -0.7171763051980151
H -0.8509330765089487 -2.7937508914904194 -0.9615252690477695
H -0.03945533531590832 -2.9939487043022486 0.6124977983342798
H 3.731619606671147 -4.5123672506961245 1.7158462053886494
Rh 1.4520714285959113 0.7599352287275902 -1.148712427259993
I 0.9794562627620936 0.7566104639033928 -3.7706558574465445
I 1.6862466374417133 -1.8721085130006587 -1.0945504027052457
O 1.0321411987669695 1.178519848817411 1.7250737717213391
C 1.8157335627324638 0.8511420022398751 0.8269563705554124
O 1.6431760418727412 3.7036525079078366 -0.7872649869148461
C 1.4627700563839257 2.572173025495817 -0.9786498322472432
O 3.114533856335881 0.627787274512769 1.2148440361309043
H 3.2296105193710507 0.8044850290296118 2.1691457421117843
Rh 3.842019335663958 -1.8208492711075028 0.3569929165702061
I 4.4800067498267095 -0.21686609937310938 -1.7251320895697977
O 1.9575913810974346 -2.113697516784985 2.300876613583303
C 2.8769445343984277 -2.74275704875964 1.7742524330085696
O 6.530674553066662 -2.404623964363523 1.5365414160690063
C 5.485626823794985 -2.202691233955158 1.0846507284921225
