18
## STRUCTURE-ID: 64567228120d9251f03eadd3 ; CHARGE = -1; SPIN = 1
I -1.3281261541339056 4.284715373097484 -2.2329011374781933
C -2.19344469011772 2.5642082045139545 -1.4371210417560072
H -1.701799786294651 2.403006935027273 -0.32361114489454484
H -1.9040906196499279 1.6694062090920312 -1.981283886654287
H -3.2544316493911576 2.690275768178185 -1.2482809976571072
O -0.025291300397280253 -3.426695561004774 0.6579773440942591
C -1.2489986305838288 1.963496856063818 0.7121238948222816
H -1.6314890905782398 0.9559600435515463 0.7687618545119113
H -0.18056026437471 2.000427109497564 0.557401571273184
H -1.6050512504242302 2.6168673813163434 1.4984791888556368
H 0.1312742500944045 -4.274256445353707 1.0771256624474155
Rh 1.6124317285276257 -2.1115899060713694 0.32352340785635153
I 0.726462474328404 -0.40050792319678835 2.3441060985042386
I 0.16762840883360672 -0.7660844872303499 -1.538410833383459
O 4.05298837132371 -0.5021704771245445 -0.23661893742791731
C 3.078662039385742 -1.097712195366809 -0.017001415306408346
O 2.8069317622603993 -4.8432865727260825 0.6050811079785372
C 2.4969044011917254 -3.726060312263764 0.4706492642141049
