18
## STRUCTURE-ID: 6456895cfd3205339b0876f0 ; CHARGE = -1; SPIN = 1
I -1.1256109493685114 3.113395730238502 -3.1024592136589733
C -1.747617328651458 0.3326757164067621 -0.48236103910369255
H -1.8800811002397273 0.43986206090685087 0.5933829540769698
H -2.1905505245807615 -0.6101995327876287 -0.818183438143518
H -2.2373775220318395 1.1682532073997027 -0.9907015660188337
O 1.551399297652978 -3.2546129834518167 2.0258492408447655
C 0.3071807694363518 -0.8434736548972717 2.2566120092646083
H 1.018195825572103 -1.2216768860215597 2.9775142229280904
H -0.7033625570257307 -1.1046800045296965 2.5431403655522837
H 0.41189805855041917 0.22312606010516833 2.0962555904079707
H 1.7368295892436945 -4.110368365615191 1.6402489795971178
Rh 0.24684673478492336 0.24536530718698865 -1.0894845843866172
I 0.26501600370058076 -1.4583380174596123 -3.0777532571725286
I 0.7415987049263212 -1.8368100521262025 0.41261302773726244
O 0.8188149705528001 2.9036909256673846 0.20986768012752816
C 0.5485079956782413 1.885318364238668 -0.3081920683854884
O 1.6487567589921122 2.143243930946977 -2.707087860565449
C 0.5895552728073523 1.9852281937916962 -2.1792610431015222
