12
## STRUCTURE-ID: 64566b7d5ca9190b523eade1 ; CHARGE = 0; SPIN = 1
O -1.5011339607259517 0.161391008436808 0.34661462184413006
C -0.24964188589998185 0.4021111113791051 0.08885644256468295
H 0.345563288143865 0.5624027910571797 0.9829932037422341
H -2.44578613434582 -1.8390452717428711 2.9485824435603476
H -2.4098670437150176 -1.213622112684035 2.487322043446563
H -2.089771850364195 0.1602422223338354 -0.43173509959127904
O 0.4440662614530291 -0.6524725408230075 -0.8446188383490498
C 0.3106436142439438 0.7421172066989983 -1.2206096043610297
H -0.3547981106391098 0.8567291779802018 -2.0724161580072376
H 1.2329965727193175 1.3055361558740943 -1.2905949280998104
H 1.347921491045938 -0.9338256106465909 -0.592183979023434
H 5.369807758083983 0.4484358621362913 -0.4022101477260955
