18
## STRUCTURE-ID: 6456748f418b2513f332bada ; CHARGE = -1; SPIN = 1
I -1.5575549556511556 1.7074825645804923 -0.4690368091472477
C -3.064235129765361 -1.7623458131347762 0.7202977291938916
H -3.344011697155168 -0.9243661029928778 0.08968201236329988
H -3.9317040104306775 -2.2342876176870536 1.1646949153703203
H -2.4520596018970857 -2.4745971130360913 0.17723015038918175
O 2.289351273051186 1.4838908335481162 -0.3113030190226199
C 0.7986560329280231 -0.4511296812179021 -2.5736160336943206
H 1.2900647329978492 0.4656250134221321 -2.273069697418272
H -0.21774346755711166 -0.2537475918877343 -2.892099417097143
H 1.3647376491849952 -0.9753822029697743 -3.331927348060287
H 2.9566183173119214 2.170783751289231 -0.5034522664694653
Rh 0.10905227260884494 0.56141039937075 1.2296808241691732
I 0.7060652545506445 -1.7126248357195843 -0.8322248862984064
I -1.8428709811616624 -0.9717791633088824 2.3524543807127563
O 2.3709673909810025 0.22443499895225916 3.1413486226599705
C 1.434511110161275 0.24693202542085002 2.4431478447122896
O 1.6426310422434212 3.0091831819597448 1.1717173399916927
C 1.4475247675990455 1.89051735341112 0.69647565764513
