21
## STRUCTURE-ID: 64568dd733c3b906354b6a54 ; CHARGE = -1; SPIN = 1
H -1.4320580631611273 -1.9738552213451848 -0.9500088764869453
I -1.9676797178807803 -0.42654888083202 -1.2307681396907943
O -1.290689801631174 -0.4369052394175947 0.8180361917348493
C -2.516309743947828 1.6429818673986272 -0.6266573571607823
H -3.1793376932565827 1.6057513024560954 0.22760096805771612
H -3.020912704911543 2.054120071614895 -1.4921840174593473
H -1.6221432809273013 2.2071939148779562 -0.3939858096370712
H -2.0404698878735292 -0.6550917536460336 1.3714221366542412
O 1.8959625899577133 -3.3060434400202428 1.777024860230748
C 1.6349061036358614 -0.5903236220732051 2.045517090718964
H 1.8800962586874568 -1.3546001866358683 2.766235671489597
H 0.6788482569459681 -0.13640956900782203 2.2791882991781063
H 2.417493574509434 0.160563929634842 1.9960069228925068
H 1.94740022886667 -4.15321915390577 1.3345805379462814
Rh 0.8761046066397171 0.3876120205975434 -1.4991953599765064
I 1.2458144798413466 -1.5455572998819989 -3.2006844912851857
I 1.4797914692417276 -1.5439063671057445 0.18028178826786834
O 0.572031572951201 2.6464969731641634 -3.465013181369428
C 0.6444194498305715 1.7336007759371466 -2.7785588123850364
O 0.9131600933470921 2.1802586052732673 0.8887017600065507
C 0.8835722091350996 1.5038812729169477 -0.04754018172632278
