18
## STRUCTURE-ID: 6456719a0c841b52063dae58 ; CHARGE = -1; SPIN = 1
I -3.677824169320244 -0.8329079363905013 -0.04834870184483517
C -2.2268964207358795 0.6599341440667531 -0.5030053441689782
H -2.4015033284234573 1.0169680661463008 -1.5102753654777765
H -1.2188185923598926 0.18491124247114402 -0.4542430736879436
H -2.3231059103048954 1.4633044992550885 0.2167113063444316
O 2.2121327809169604 -0.5955938344698544 -2.733035756177867
C 0.6904091782660281 0.8167966906028964 3.4744044326825025
H -0.01766230410686963 1.568467900620014 3.14610499939852
H 1.7050171325588601 1.1438878358245725 3.2794563751477064
H 0.5431089105226338 0.553144515474658 4.5142414569940215
H 2.2619818388050565 -0.42969636428978614 -3.6951420836344546
Rh 0.7442768855163818 -0.5741903043106249 -0.32534300578872427
I 1.515460895246149 1.9028743724412513 -0.03493337736854529
I 0.3378209249910887 -0.9902678711496783 2.295365310181239
O 0.09655651195266172 0.03518442121021374 -3.040247723593861
C 0.9677004596101488 -0.32671429331666213 -2.250754176229517
O 0.3306260733506837 -3.3120918265129142 -1.4318137128616513
C 0.46071913351460436 -2.284011257672887 -0.8991415599142717
