12
## STRUCTURE-ID: 6456881b0e72b66d116c2b3d ; CHARGE = -1; SPIN = 1
Rh -0.3947538869635453 0.38642260051342514 0.543842936690792
I -0.12456223473213222 2.9393177028190602 -0.26150059161334727
I -2.822764075882243 0.8417409888132493 1.738283826665095
O -0.6922445368487635 -2.324079185717589 1.7700842168709858
C -0.5543505052388323 -1.3116970237348864 1.2615534509904105
O -1.271074896131908 -0.15853254321024773 -2.262940509167984
C -0.8364923954106391 0.025590751156761436 -1.2136172785884074
I 1.1160891870304634 0.6688485292970217 2.819939560548787
C 1.1385024309878038 -0.20987703907631128 -0.9807502848750221
H 1.3124009590563683 0.43256489079327837 -1.8435219216000152
H 1.1570602572793316 -1.2559513597607783 -1.284518689473533
H 1.9721896968541053 -0.03434831189298748 -0.2868547164477626
