12
## STRUCTURE-ID: 645666f1afafd278371fea70 ; CHARGE = 0; SPIN = 1
O -1.8643105658645227 0.44489312019308247 -0.7842962049601667
C -1.265498369031481 -0.12821696452886788 0.174128027637004
H -2.674551400377688 -0.3249574136184525 1.5819033539086067
H -0.7218822411689149 0.4048407073124001 0.9376231709193898
H -1.2048794035581698 -1.2033526913201211 0.13502524775897937
H -1.903449951395098 1.4223080331315643 -0.7374309255094214
O 0.718133007591742 -0.34146094420954665 -0.7944389859894093
C 1.8039448786674621 -0.13857538621444157 0.09245656299392838
H 1.9142719926767227 0.9146618919452718 0.36063832786299616
H 2.7334706132226074 -0.5004077628764052 -0.35102034047388003
H 1.5926811803139473 -0.7176466306150568 0.9891243589971985
H 0.872070258923404 0.16791404080057198 -1.6037125931452278
