13
## STRUCTURE-ID: 64568c6efe33b320af32dfca ; CHARGE = -1; SPIN = 1
I 0.08028688405249679 0.9871963793618853 -2.8643574405478507
C -1.3402314600555179 0.10726246846647738 0.15143361668473476
H -1.6367643615752363 -0.6370337161039956 0.9168566996629359
H -1.8802818986246435 -0.10689762105777748 -0.7695309269807262
H -1.655370391382888 1.0748699914001414 0.543466291543605
O 1.0858409012049473 0.35669920184710174 2.0020457399371145
Rh 0.7002462104513205 -0.6091417698128264 0.265035703800742
I 3.0198138131754746 -1.740184859852563 0.675634194704392
I 0.07797733358459594 1.7515683589276543 2.9471445283538333
O 0.4983882247407109 2.1449913036667456 -0.20153195877852656
C 0.2654746446253108 1.0608287063436146 -0.615873918479778
O 0.3346750899292969 -2.6093996205421472 -1.915656958185304
C 0.44994500987409897 -1.780758822644307 -1.1346655717151597
