12
## STRUCTURE-ID: 645669b3a9ef1136cc4ed2be ; CHARGE = 0; SPIN = 1
O -1.0903404069425502 0.24742351538011603 -1.0423135517126096
C -1.8800841270183302 -0.17780019711587972 0.050800772601192964
H -1.406758292005848 0.21214475746243125 0.9500656427076624
H -1.9194122977413142 -1.269034891363234 0.11157647367090268
H -2.8956683256993863 0.21997813684558343 -0.0156062333179007
H -1.5025965341044552 -0.05131679001488124 -1.8620518975522815
O 1.7031478101189812 -0.2563994209248782 -0.7066432211857696
C 1.9872301423422325 0.20009379680747943 0.594418492403985
H 1.4094423453449738 -0.3486980686340776 1.346185374269654
H 1.782328984411157 1.2704412336561661 0.6978430816861647
H 3.048120133444671 0.0245801493696039 0.7695900369660368
H 0.7645905678498732 -0.0714122214684282 -0.8938649705370385
