13
## STRUCTURE-ID: 64566bf743f8a864de23363e ; CHARGE = -1; SPIN = 1
O -2.529359850142692 -1.0370174629614488 -1.8362519877629833
C -2.934212966591641 -0.6277269858728791 -0.708763064470765
H -3.0080841586901585 0.4327125255570347 -0.4822032393873504
H -3.5515534896002414 -1.3292651789501337 -0.1532351991201835
H 1.4142721020986078 2.1214026599584086 2.2629550609714975
H -2.0662763256133614 -0.375165846287236 -2.3979019128773533
Rh 1.3367702895467304 0.14516899314205392 0.3741527284838305
I -0.905618279271669 -0.9147630697361816 1.1464509467180328
I 0.14919577603780587 1.5198590148079494 -1.4452225339821814
O 3.895599953050218 1.3929250735263115 -0.4863049489178012
C 2.9130773251581856 0.8546185241415832 -0.21056052441590825
O 2.980972566493275 -1.3355844657386458 2.3679509226202793
C 2.305217057524928 -0.8471637815868073 1.5689337521408802
