12
## STRUCTURE-ID: 645668f32a8d812ad01dbeab ; CHARGE = 0; SPIN = 1
O -0.8398381724474353 -2.616430178312924 0.3131783266753416
C -0.4660283184710317 1.1280141529058167 0.7619612538994806
H -0.5058966202477517 2.125518831818233 0.31134186635228533
H 0.27887779719249106 1.128281925781623 1.5654694138594971
H -1.441669601308276 0.8712426697373049 1.1679103111658276
H -1.6071171280115821 -2.7381121299065136 -0.25162948912876937
O -0.15891221280568724 0.1512329668004755 -0.20937356870203577
C 1.0859565536605864 0.3756398028131196 -0.8354624364192906
H 1.0914099427095227 1.3378652904320987 -1.3588745426540791
H 1.2271376005341974 -0.43076407230629754 -1.55117999771083
H 1.8999984264670138 0.36376116363262057 -0.1025571062881053
H -0.5639182672718113 -1.69625042339542 0.18921596895079276
