12
## STRUCTURE-ID: 645666fd7765062bf256edeb ; CHARGE = 0; SPIN = 1
O -0.9492002521792169 0.2150977175317492 -0.44075011746794
C -1.6075792687088946 0.03655426970517388 0.8344408904290207
H -1.152127543518731 0.724499028418036 1.5441040012845089
H -1.5085571000697553 -0.9847426388710694 1.2006421663573799
H -2.6550205771938566 0.29750097374674056 0.696922368675223
H -1.3636502108221271 -0.36807710286805506 -1.124480806602738
O 0.9238937901965537 -0.16921893562961304 -1.7201404944274206
C 0.53023017252848 -0.07816631309391368 -0.435185262629178
H 0.6861524576985681 -1.0404508670555357 0.06327691921218839
H 0.9764702024718097 0.7324501779407026 0.14743674059531814
H 5.003810234112348 -0.057242236713527295 1.3548533918744787
H 1.1155780954848322 0.6917959268893119 -2.1211197973008438
