13
## STRUCTURE-ID: 64568cb70b80055bc7111de7 ; CHARGE = -1; SPIN = 1
I -2.4835766532661046 0.306293829841778 -1.3950890863534553
C -1.0039067426960482 -0.5211076922696846 1.5146355315531195
H -0.23993085376432396 -0.6198888134938445 2.295296323516025
H -1.7570647080928274 -1.3049708033761025 1.695917980577086
H -1.4982764120948986 0.4456766515288856 1.6698050423135127
O 0.2772548445787542 1.71719728491717 -0.32989114341210113
Rh -0.28512007711533105 -0.8032666797650114 -0.4257390631716663
I 1.1218471299296264 -2.847812726707255 0.4277963599949547
I 1.265076515167854 3.5739795397821705 -0.1483186016633219
O 2.1417336214747396 0.5659854596155908 0.12978061309686992
C 0.9790321413292948 0.6773901573129937 -0.13327527469614578
O 1.0229790346996785 -0.37599266728825953 -3.0993648527771405
C 0.45995215984959337 -0.8134835400984463 -2.2015538289777408
