14
## STRUCTURE-ID: 64568f24548f0e5543051b83 ; CHARGE = 0; SPIN = 1
H -2.371629618495085 -1.6885260211549318 -0.8960332881823065
I -1.4179367369781137 -0.4579839373776358 -0.3380513979846678
C -1.3438636544097746 -1.5780130804367336 1.4983112720643303
H -0.5040192752143693 -1.2049124793491925 2.0716142421123713
H -2.283542586005903 -1.4244094302513814 2.018160789597683
H -1.1834217399222664 -2.6171273005713243 1.230639777328926
O -0.13099887011906694 1.297648936766468 0.7871354505095547
H -0.0065118581358652875 1.1674708010809396 1.7334977215305667
Rh 1.513902718447894 0.8182442924727341 -0.4255281844817863
I 2.5165105686429774 -1.0634464140922657 0.9779528237414394
O 3.137721171720169 1.6030471926679377 -2.090193350616503
C 1.9436839155736376 1.6774969162737805 -2.1909662306887094
O -0.4803603908405746 1.7966581710692882 -2.4333752451345987
C 0.6104663557363655 1.6738523529022593 -1.9431643797963043
