21
## STRUCTURE-ID: 6456760df26f533dcb2726bc ; CHARGE = -1; SPIN = 1
H -5.293608397791944 -2.9364789524509654 2.816213587962435
I -3.935106122538015 -3.059820925879193 1.875833243316571
O -4.33182874496129 -1.078059296018732 2.1507165288819383
C -2.161593585305588 -2.185825903736901 0.5830526711421256
H -1.6907803105798662 -1.5542491602261095 1.3153132751950376
H -2.7318089314021017 -1.7214282206884237 -0.20000813049782337
H -1.682603398433445 -3.1201872773895674 0.35232321761284363
H -3.608042654880403 -0.5109770030058688 1.8854358674976905
O 3.645197913544683 3.011755449660596 -2.602492744325127
C -0.47888116962648986 -1.3504823947236022 -0.6177787679875502
H -0.940651981138903 -0.3914444367296103 -0.5247529490342409
H 0.20206761702184256 -1.6871230117818832 0.13472095264898262
H -0.6742575338292779 -1.9633079362965082 -1.474299934392548
H 4.48617717627878 3.096538069305786 -3.093013711644064
Rh 2.2488106092191473 1.9446243256118785 -0.3494423049917706
I 1.5945450674323027 -0.08007381717733152 -1.8345957695442854
I 0.4354517782048768 1.5129075265849494 1.4933943266477423
O 3.3363953151166843 4.559433545800783 0.5733180094501231
C 2.851978120044912 3.5331688507153327 0.2836427658142767
O 4.925794612114263 1.7585718513184925 -1.2723069965582328
C 3.8027446215103127 2.222458717106959 -1.4952731371920998
