12
## STRUCTURE-ID: 64566a8dded8286fd84d3038 ; CHARGE = 0; SPIN = 1
O -1.2358528588606392 0.18855534777944885 -0.8855635255946065
C -1.815577592950504 0.18012923010429566 0.40411302503526353
H -1.11182100796595 0.6792571133988351 1.0679178347671217
H -1.97959690878835 -0.8412234534613091 0.7594587403150855
H -2.762169406678121 0.7260210901455184 0.41777868206202295
H -1.8539542114908962 -0.2111240041270648 -1.5095594193558204
O 1.482702142099701 -0.7112466228579023 -0.897518110671266
C 2.0538939438995265 -0.028512154422533274 0.1932328600206339
H 2.026779393110392 1.0559996380941867 0.04540489942945893
H 3.092390873409969 -0.3505498812648441 0.2634797631559038
H 1.5435885771193925 -0.2743420784798216 1.130807780215326
H 0.5596170570954848 -0.4129642249087997 -0.9895525293791338
