12
## STRUCTURE-ID: 645665fdc4d3cd5ed611299b ; CHARGE = 0; SPIN = 1
O -0.6566028559905632 1.0589173527121991 -1.74293847602072
C 0.3539188367939164 1.0798343899678473 -0.8521935343645246
H 0.45223829883708994 1.9990348987721944 -0.26508481344422163
H 1.286213812861361 0.8324440916893527 -1.3711056736615177
H -1.4593241857918544 1.4952592389953236 -1.4204237344059303
H -5.647536461645794 -4.227954471234109 1.100311581398788
O 0.0990506631682337 0.008069511552256001 0.18041507088061545
C 1.2468028230357078 -0.3083351405081736 1.0010343955516985
H 2.0818021346038718 -0.6720703094417969 0.40269157251273535
H 0.9381414134928672 -1.0641926663770367 1.720258265137166
H 1.5322123465035926 0.5973940007208273 1.532735015651404
H -0.22691682586842005 -0.7984008968488998 -0.28569966923550943
