23
## STRUCTURE-ID: 6456b707ef9ce967c8630f04 ; CHARGE = -1; SPIN = 1
C -3.011137456251354 -0.06611014095518095 0.7591008405310509
O -3.6407601680894324 -0.0329006200495968 -0.22805481389668436
H 2.075202036400968 -0.8930450060659327 2.5716491022763166
I 1.994381610456572 -0.7323959776710005 0.9803296596836124
O 0.44107445683091717 -1.2230710076067386 -1.5499539501523611
C 4.275426426837022 -0.898290532063206 1.2506198008420368
H 4.722595420451647 -0.8205294265801626 0.265970634827865
H 4.465359496418201 -1.8662718660594386 1.7031244901782978
H 4.56366719019403 -0.06987491282209209 1.8896197902805112
H 0.4847696051617627 -1.5503519441087539 -2.4690755002673423
O -1.1229939961951367 4.0130950779262236 -0.7518612765739368
C -1.7332558424156244 1.689507294254847 -1.7920464329192742
H -2.5348011425179044 2.413478657778447 -1.882721963898899
H -2.1094266981691963 0.6950048741475615 -2.0132749091152338
H -0.9318631939886147 1.9572694850522065 -2.4716372689908086
H -0.7772492618169027 4.678263792665789 -0.15500312585448198
Rh -0.8698859382806883 -0.7227251924736078 0.8911919074078603
I -0.44824905319591746 0.7387417337802132 3.06825802311993
I -1.040660491490199 1.7915529792474179 0.15713520849993876
O -1.7368186434805732 -1.6388935728992788 -1.738973356253063
C -0.8088101410400544 -1.2835602238863586 -1.0131076087632827
O -1.2560128819066216 -3.651641816216378 1.2654217169507618
C -1.00055133391284 -2.5272516553949154 1.2632890320871413
