12
## STRUCTURE-ID: 645664a05c728f0f3340f1fb ; CHARGE = 0; SPIN = 1
O -0.5275451237935761 -0.28433115265774517 -0.4475054405488962
C -1.3009761849586794 -0.7313823002527293 0.6260534129148996
H -1.0069572426904485 -0.2733796243145112 1.5727011489470384
H -1.3137892780510863 -1.821205405737116 0.6919487381939585
H -2.2926934734715543 -0.3690651378785386 0.34976519527132544
H -3.124748836994509 2.927937914227934 -2.3200773041695313
O 0.8893543805776252 -0.7068678760790631 -0.2979205385461254
C 1.727552616751198 0.3694941717813779 0.16798497288955566
H 1.3945802123850572 0.6581640772515881 1.1645466670006883
H 1.6969718280220913 1.2327891248604823 -0.4964743360386534
H 2.73275182426662 -0.05095957953247464 0.2245569184152618
H 1.1254992779572568 -0.9511942116692181 -1.235579434329504
