21
## STRUCTURE-ID: 645676653efc5c0700159884 ; CHARGE = -1; SPIN = 1
H -1.8039029177699146 2.5895985822032888 -1.3486810759535144
I -0.3764536074069377 -0.05710810510860527 0.603864018881395
O -1.4674953305579361 1.36577483732002 1.0928296130756296
C -1.9813892173783874 -1.4509140748018978 1.4262693004630598
H -1.5906503817883437 -1.9716116917557747 2.3083237324406825
H -2.3027605880259374 -2.1773464121523705 0.6757207304364912
H -2.7961328548950655 -0.7817779942122964 1.6908506017567058
H -1.191605601054195 2.047474909901572 0.5183814174817356
O 1.2598404533764997 1.7588734817178564 0.9572213216139506
C 1.259656742285814 -4.750633799543894 0.6150931186709957
H 1.1909411689660205 -5.332449869859107 -0.3434219577942624
H -0.5734768241758633 4.015440139799554 0.6091447260894871
H 1.7085253823001758 -5.1081585279352595 1.5843606590710348
H 0.6890318366131184 2.5030985218493758 1.1419508767611435
Rh 1.3193140388113238 1.3458955266645154 -1.090578562465192
I 0.6065283554788883 -2.7125636285332675 0.6004966135459103
I 2.671932825964036 -0.6690131312705829 -0.5327335489273086
O 0.9203976110952267 1.1744212721599554 -4.007435704430011
C 1.1855946867592326 1.1091744581660035 -2.888606904041002
O 0.5792126687003326 4.066085066646973 -2.054910906214165
C 0.6928915527019522 3.0357404387439493 -1.5581380704627374
