12
## STRUCTURE-ID: 6456688bf2461c23c22fdd8b ; CHARGE = 0; SPIN = 1
O 0.1517504900608707 -0.22884769917843686 0.12897803610221992
C -0.6632872637241949 0.6064545643743328 0.9766371086345931
H -0.08504345708752127 1.435655631229233 1.3879656167626724
H -1.0622258442607269 -0.01429803505083915 1.7787752307665545
H -1.4843031079756102 0.9630655571144962 0.355374820672623
H -2.7399683515077085 -2.66383880991545 -2.0318846004466296
O 1.1336607401407897 -0.8577525371601186 0.9353583166965825
C 0.8274175944930462 0.5201760579735106 -0.9017933011894325
H 0.05102199238476153 0.8839283409556886 -1.574014076293287
H 1.4796405707165827 -0.16514452742575264 -1.4429149026977977
H 1.4058729950827382 1.3426172117564803 -0.4770436860736336
H 0.9854636416769483 -1.8220157546731477 0.86456143706556
