18
## STRUCTURE-ID: 64568a4051a59e52486aac54 ; CHARGE = -1; SPIN = 1
I -0.09336755357914667 2.0688526224200254 -3.5545621848794355
C -1.9608376852713412 -0.13766007885853696 -0.6780100586393609
H -2.5563494649465244 0.6735566487331458 -0.2402716352051205
H -2.2998201298591594 -0.2632540175133332 -1.7119580159486638
H -2.2023330593890633 -1.062705010693034 -0.13265070230689455
O 0.29765797461699073 -2.2762238114567195 -1.227497041184421
C 1.2470779035016997 0.12043090352400207 3.5246609843374017
H 2.155762921385241 0.19818236432653058 2.9365547157058103
H 1.0124744966311088 -0.91418679454177 3.745489152865654
H 1.3102811008200363 0.7153167244228362 4.42729961678831
H 0.4483047091103295 -3.03375226864669 -1.82541287621162
Rh 0.07301973660658755 0.178777730050751 -0.4428055198837364
I 2.714007285274431 0.207749786357441 -0.10547167113929215
I -0.38724433820574333 0.9259459615446085 2.3269678478872886
O 0.379966928788106 -1.0117805288965747 -3.0822227029435814
C 0.27066254926467975 -1.0955985086923945 -1.8837727344329747
O -0.271606772508823 2.8654028514213783 -0.7422397501988549
C -0.13765660223943255 1.8409454264982972 -1.334097424610529
