21
## STRUCTURE-ID: 64567645f8af40389d67f9d1 ; CHARGE = -1; SPIN = 1
H 0.809810645999256 3.8600310083945963 -1.4908445754846003
I -1.0011423884945994 0.7261797369529439 -1.340732157076087
O -1.638253693053862 2.5037096267766192 -0.7281868038191297
C -2.8088729522092857 -0.048972416404661864 -0.39233424108907783
H -2.5437182605518363 -0.7482887713082704 0.40416086753000474
H -3.4098260101448394 -0.5528205568706939 -1.1507243873227877
H -3.3064900563700883 0.8336478803467532 -0.004964932834687712
H -0.9090000418094647 3.0755159056084644 -0.9021846780229145
O 1.8425261820162055 -0.771910833727229 -1.0540673208200142
C 0.5933103903861681 -3.4548733993023095 1.2382196000370886
H 1.6449716621667307 -3.473756683032872 0.980042473754572
H -0.026239622725509424 -3.746683733944415 0.3898048084757356
H 0.37170651324776166 -4.013481672474601 2.143191696256834
H 2.6508135493323697 -0.7704235031620419 -1.5724305607136748
Rh 1.2170565146374204 0.6776073941083574 0.12886271505140517
I 0.10383474559576752 -1.3343543424737456 1.710006844434431
I -0.7722196117157722 -1.9564253169150183 -1.9059242544518107
O 0.19338153362035115 3.0776466462197605 1.5761609877477871
C 0.5488726349385763 2.101501087124464 1.0580931267938631
O 3.615813259745161 2.407899146712195 0.588082723974794
C 2.8236650053894694 1.6082527973717105 0.32576806757827226
