12
## STRUCTURE-ID: 6456673497e3b750644b65f8 ; CHARGE = 0; SPIN = 1
O -0.534704758267308 0.05208764080730979 1.7932788940090358
C -0.26065203561686184 -0.08186788380656093 -1.8590083530912742
H -0.8145074909722461 0.8545952720066256 -1.9694859388912132
H -0.20200016030653167 -0.5848507405705159 -2.827349035205234
H 0.7479879554476014 0.139274218526846 -1.5147408018736892
H -0.6986527883311553 -0.34250319838383014 0.9173233018500974
O -0.851207157215946 -0.9158711593386089 -0.8820376499448251
C 0.8200379401879175 0.4302082390044196 1.8546581789798986
H 1.483082139818788 -0.4292640469467814 1.7119379530300538
H 0.9905040331378292 0.847732527793597 2.846515709163859
H 1.0570837735764986 1.192094082082676 1.1042812854333623
H -1.7369714514585604 -1.1616349511751871 -1.1753735434601293
