21
## STRUCTURE-ID: 645676d7ec4fae00420b39df ; CHARGE = -1; SPIN = 1
H -5.559108465509538 0.7120657028444566 1.7881040289420782
I -4.331519337445645 1.060951562208154 0.784305029127195
O -3.672271639057543 -0.2522712459222639 2.3656901013080116
C -1.8803752021154696 0.7379491013154433 0.1365126079650158
H -1.5474941575420285 1.175036871979904 1.0554597600196285
H -2.0243633008042248 1.3652841866154588 -0.7205089275672775
H -2.0238691195484466 -0.3192301607978056 0.050396243618729734
H -2.723706383553017 -0.3685877161425745 2.4006957225951515
O 1.7191826531710273 -2.141211661293579 0.4465687744010008
C 0.14741703124285227 0.45685811108343755 -0.40891545908777216
H -0.1886421224102174 0.06290734480419385 -1.3545702377104123
H 0.2634595157481891 1.5258094245492593 -0.28902969991943694
H 0.22530010191547314 -0.20118850975598943 0.4407955746449153
H 2.0049355966640343 -3.013977513789315 0.7844970084633075
Rh 2.467936234499359 0.34245383116246103 -0.8345156320215511
I 3.0890137954682992 1.2249656260703947 1.565898307157497
I 2.8319009001322435 2.7125564044870374 -2.0894938604300366
O 2.3230433448251016 -1.1415244397049409 -3.4050456079005453
C 2.297346617755621 -0.5224052023570729 -2.4292618286000693
O 3.8504401864064657 -1.954992910120255 -0.1818356647643811
C 2.7313737501574575 -1.4614488072364533 -0.10574624024108059
