12
## STRUCTURE-ID: 645668c9df109549db763458 ; CHARGE = 0; SPIN = 1
O -1.5849191104108487 0.7426294402626685 0.6264807037947199
C -1.9682198189659421 0.16828224842373687 -0.6002167039848272
H -2.9525322439626955 0.5657597962701664 -0.8451748255378767
H -2.0326749010603207 -0.9222961858241052 -0.5293885088153543
H -1.270754263263861 0.4340048869779664 -1.4019721868047017
H -0.7143552157780596 0.3781273192764863 0.8714720394853441
O 1.0170606353935991 -0.318637631435044 1.103573689972781
C 1.8469952515203176 -0.2682917301962041 -0.04009400138945428
H 2.7520319570397724 -0.8638609970450102 0.10128334913106267
H 2.1226295187469 0.7611237565240305 -0.28559030757204096
H 1.2732925590020776 -0.6891614661358384 -0.8638264848130379
H 1.5114456317390716 0.01232056290114178 1.8634532365333765
