18
## STRUCTURE-ID: 64567048b916113c7c068a18 ; CHARGE = -1; SPIN = 1
I -4.20041065396645 -0.047230364371618296 -0.84172710861899
C -2.1797164392836144 -0.2970631579112307 -0.20175141541655883
H -1.771010023522111 0.6955685630552869 -0.012707833332851148
H -1.6388564645090409 -0.7958680135851772 -1.0022872196413242
H -2.1839617039111907 -0.9012906331490826 0.6972668548788514
O 0.06071017467640151 -1.1216524070472191 -2.746946879094413
C 0.836326415282962 0.5136620269262909 3.5361274757363486
H 1.627325383759286 -0.22387206546588573 3.4614488012216618
H -0.13225683335856891 0.028194915790875828 3.5526250156085473
H 0.9730703803752653 1.167633438449293 4.388201090428749
H 0.24374493052674726 -1.621982302009048 -3.565891260217145
Rh 0.9856371865789523 0.3128603862933631 -0.502431210423098
I 1.1104321335417173 -1.9714938832968671 0.732196312589425
I 0.9256341294472389 1.7620022434366132 1.7422664248239004
O 2.2795147938096707 -0.9165580891806467 -2.7389014186751433
C 1.2165508286161573 -0.6751216360032207 -2.170481592899436
O 0.9269838559263177 2.413885227223242 -2.6162419593048707
C 0.9202819060102704 1.6783257508450002 -1.7107640776637199
