12
## STRUCTURE-ID: 64566b62f26a232424610abe ; CHARGE = 0; SPIN = 1
O -1.4818331843698105 -0.26534347677891007 -0.7715573775903356
C -2.092416906844679 -0.05038055356698417 0.47816383256463507
H -2.2336530716063643 1.0169053654293212 0.6768257821448653
H -1.5051524380233265 -0.48869846770363795 1.2920180448837615
H -3.0667144018995534 -0.5369941683316419 0.444883614807782
H -0.6049144701011275 0.1626190202118586 -0.757659996710137
O 1.1597304328331368 0.7737028131555598 -0.6382171896910163
C 1.9291420879252006 -0.19362083979719613 0.05032346114198801
H 1.5238991036433591 -0.2572778855619879 1.0585441686563726
H 2.9789445247614004 0.10185098751578496 0.10862346439088776
H 1.8512208543869015 -1.1736934098593361 -0.42818940075029155
H 1.541747469294874 0.9109306152871705 -1.5137584038485077
