12
## STRUCTURE-ID: 645668122fe2a24cf32cdf88 ; CHARGE = 0; SPIN = 1
O -1.320566640584753 0.7255205188607643 0.013828585130542458
C -1.9647784926217278 -0.0069637046790329 1.0333878074116625
H -3.0529906047868303 0.04033949239260153 0.9347971168777056
H -1.6762197926385407 0.3516772437368435 2.026221679562925
H -1.6457168662287536 -1.0420796300046358 0.9233591713512154
H -1.6033331368244856 1.646592335985865 0.06250609163776918
O 2.6843722936985634 0.37245075746824424 -0.5266250241578915
C 1.71050374548765 -0.48089363618569664 -1.0934808608703277
H 0.7011823305948003 -0.085452410291554 -0.955903552465932
H 1.7690003880707097 -1.4862928129596877 -0.6638603149912249
H 1.9300197712140834 -0.5399868083964223 -2.158004909346447
H 2.468527004619294 0.5050886540727032 0.40377420985999485
