12
## STRUCTURE-ID: 64566b8c6c01e85b9c73b9f1 ; CHARGE = 0; SPIN = 1
O -1.3048997205567712 -0.446746593957393 0.551133982368796
C -2.1883769215416122 -1.0693536201128655 1.0681988641804758
H -3.1675023633644055 -0.6223342413012634 1.2948229924277541
H 1.0378303662254214 2.2449721649353824 0.09247952362097245
H -2.076254101536723 -2.1271626026906603 1.3477119664801231
H -0.6101128685813605 -0.2247172279937438 -3.364557112811441
O 1.9315962503564024 1.8943485716826027 0.18460045652685683
C 1.8437803784690863 0.4966937179470038 0.3590566579232799
H 1.3471733354522273 0.017669694197108034 -0.48917640121635253
H 1.3001604921020078 0.2427831161294547 1.2738617961407592
H 2.864510932374921 0.12563795412169143 0.4338687303864296
H -0.9779057793991882 -0.5317909329573246 -2.7520014560276618
