12
## STRUCTURE-ID: 6456667668dc435ac9493a7e ; CHARGE = 0; SPIN = 1
O -1.6310198546122578 -0.5553471574736418 -0.3509576041876567
C -2.05556502232989 0.36894726400747246 0.6219768728085631
H -2.025633509062628 1.3947933287743355 0.2410383134471789
H -1.4417350689357729 0.307342117969604 1.5271654478430106
H -3.0842958830867806 0.11455631260064061 0.875345887986622
H -0.7227170410998165 -0.31856206939102183 -0.6177296195450248
O 1.0377160568196206 0.12573266003816277 -1.0420126068971813
C 1.9775822317165903 -0.23215136192012434 -0.047554944526926865
H 2.9831797010224013 0.09999110838213379 -0.31531852683658423
H 1.983087343849927 -1.3121107985238838 0.12267523394158093
H 1.671900985182624 0.27061240364653427 0.8681294183541517
H 1.3075000605359868 -0.26380380811021165 -1.882757872387739
