12
## STRUCTURE-ID: 645664d5705d990e120b39d0 ; CHARGE = 0; SPIN = 1
O -2.9136378539637944 -0.1982319524357047 -0.04468440495545234
C -0.6217997107249918 0.06911510337940276 0.32715938349989604
H -0.8400866647681193 0.7993668547301253 -0.43363578613632303
H -0.8150727162658506 -0.9381683353950414 -0.0023732254367496075
H -1.087609293303568 0.3025983333291143 1.2691334553145168
H -3.3491382604182713 0.6526838800012635 0.08570219414003612
O 0.9296490921986953 0.2090902807218853 0.597062525911416
C 1.735445879403702 -0.07874404510123247 -0.5612248447541618
H 1.4875062065502473 0.6579664716636516 -1.3222667320526602
H 1.5379572029362205 -1.078176468470725 -0.9480650395820844
H 2.78132965127253 0.025906373669674215 -0.2787231884952432
H 1.1554564670830634 -0.423406496092233 1.3119156625470891
