12
## STRUCTURE-ID: 645669cf5be9e4429f32dfdb ; CHARGE = 0; SPIN = 1
O -0.408264259980722 -1.3521754066138 0.22463600147442211
C -1.3380869600885303 -0.40069738307626646 0.6615894244785262
H -1.7174678162730925 0.23075198738790823 -0.1467773530973135
H -0.9748151265806383 0.19788636153495545 1.4997376713201835
H -2.147470992607347 -1.0436282927039235 1.0116601370624156
H -1.4162989153121557 2.4621436065057645 -3.800202323771904
O 0.7912776373714837 -0.8113631128482353 -0.40374285236300483
C 1.5216892605387033 0.12354149289006465 0.41283453494362576
H 1.6911269311962804 -0.3442525447270076 1.3836776110340816
H 1.0199394436469154 1.0859556287283856 0.5157864759163949
H 2.476822699534001 0.25245864277704905 -0.09853393432541559
H 0.5015480985551023 -0.4006209798549051 -1.2606653926720053
