13
## STRUCTURE-ID: 64568ab1ff25ec51dc4b6a54 ; CHARGE = -1; SPIN = 1
I 1.5234758133543316 2.1247728038106297 -1.5984876546199116
C -0.6765169059188844 -1.7330200857830758 -0.025378493925871326
H -1.4878740599426632 -2.187784753062348 -0.5938020574623335
H -1.1182279991245456 -1.0438093720691353 0.7414515460904112
H -0.09165818823286603 -2.4888710378319883 0.4974878210185251
O 1.3409631713006613 0.22253982478645812 1.252355210174458
H 2.195775020890476 0.6202013333694597 1.0686069139818588
Rh -0.15152563223951684 0.7174607150635712 -0.07517713218002295
I -2.309807856709397 1.06897438645803 -1.5818660652814662
O -0.010180733682089426 2.933242117579432 1.9543163152006329
C -0.3798657347225278 2.177364715614075 1.178617319927722
O 0.9250584312465276 -1.4281475016175444 -1.8447491859328404
C 0.24038467378048245 -0.9829231463175737 -0.973374536991154
