18
## STRUCTURE-ID: 6456709edebec5123a1f8bd0 ; CHARGE = -1; SPIN = 1
I -5.13782283318806 -0.6737762976579756 -0.3945594951855178
C -2.3753146371942573 -0.6198164687858012 -0.04705082076860314
H -2.4530110253334203 0.08989909243044274 -0.8527997564420529
H -2.5043937992741254 -1.6607901870048103 -0.2841107898632846
H -2.6694320246241037 -0.2937064731859715 0.9359575618632675
O 0.006195021814247334 1.1883850135362473 -0.8875617662565635
C 3.0225162995174917 1.8075916685257867 -0.002582729741411784
H 3.0076092493933597 2.2182119620876635 0.9998705512006251
H 2.078729628726249 1.9806597372425248 -0.5121808584084877
H 3.8606883855097256 2.1756272761097937 -0.5791002171893231
H -0.4506703123005188 1.9140145589089912 -0.4486793325315771
Rh -0.025371413641706995 -0.5332160401161646 0.20749111665595416
I -0.061172367994538124 0.8524999653282531 2.443034354119391
I 3.229083835553599 -0.32920462614429674 0.17305735892789145
O 0.28928608942957207 -1.7329775293005871 -2.507842590291871
C 0.14449452920283382 -1.3521690305084073 -1.4417640656127453
O 0.029956693950113793 -2.9683270642142965 1.950302598165298
C 0.008628680453425736 -2.0629055572515314 1.2485188813587822
