12
## STRUCTURE-ID: 645667a6005fbf10d2304570 ; CHARGE = 0; SPIN = 1
O -0.9767564647324163 -1.430264135611781 -0.6485507789390594
C -1.2639164688429285 0.45264379372465025 -0.06121066710203579
H -2.2561134967860634 0.039640423086900155 0.061700691373101045
H -1.1629405491046279 1.1448275820669502 -0.8778967359653854
H -0.8470805736879796 0.7844040750366936 0.8743144895855994
H -1.2962884031446753 -1.4384532346738406 -1.5581032020326668
O 0.7734492381081635 0.1379899327534701 -0.49261467727274805
C 1.5765660314510985 0.29936309537118033 0.6061640213211115
H 2.6295715172611773 0.1757687340673733 0.3123383559209298
H 1.3632951392637427 -0.43664217119580345 1.3991807243134937
H 1.4748570023471217 1.309810335448093 1.035858741564396
H -0.014642972132610661 -1.0390884300738912 -0.6511809627667435
