13
## STRUCTURE-ID: 64568c7e6f3063371d3dae4a ; CHARGE = -1; SPIN = 1
I -1.6699573340786689 2.039284066964492 1.1800042387131273
C -1.6157677768006646 -0.8762918035514169 -0.6404100532574294
H -1.2900430480171503 -1.8294524257917226 -1.0606145742390711
H -2.0243009206855116 -0.25718196666963844 -1.4413534226624187
H -2.408919497906062 -1.0671488204857662 0.08556238701351929
O 1.7057113478215917 1.216035213229717 1.408135355295057
Rh -0.033313064677409354 0.12371536303713644 0.36193713097500635
I -0.29888876158915945 -1.3680834543923748 2.538498639194799
I 3.4452514681558473 1.6117106800438676 0.6035591423415055
O 0.5624524586693139 2.1172528369678685 -1.7646737614080985
C 0.273308351168875 1.2982686105333026 -1.028053317917228
O 2.1198739713636456 -1.8559123325719638 -0.18875801429115108
C 1.2345928065753606 -1.152195967313495 -0.053833749757639195
