13
## STRUCTURE-ID: 64568be719eb230e7d4d3024 ; CHARGE = -1; SPIN = 1
I -1.8519550308914015 0.5978576344275405 0.5056134843670644
C -2.8537564561355047 -1.1342237463317044 1.3687182424755575
H -3.6345908327354643 -1.4320309988872302 0.6805099169878204
H -3.257033023550417 -0.8381403330709735 2.328656812928727
H -2.1047438015797617 -1.9124672117336914 1.4711835176683101
O 1.372525626679997 2.2243293937315856 -0.7652753228623126
H 0.90896165294264 2.767845629873101 -1.4312840038027659
Rh 0.6765579122607187 0.0853459789958142 0.010335524490444316
I 0.7165622149769637 -2.4795810954474415 0.4263615056530968
O 3.6648091646046708 -0.18815423837295442 -0.1910388056346444
C 2.5280191204002045 0.18095893294580795 -0.4059319805878
O 1.8798792804683395 0.9969475441609079 -2.6133911044641116
C 1.9547641725590195 1.13131250970929 -1.3844577872193442
