21
## STRUCTURE-ID: 6456755ecdf245770740f20a ; CHARGE = -1; SPIN = 1
H -3.378614098986496 1.105506889911915 2.13012806071039
I -4.545963736462473 -3.4574981981319888 0.3705138056942676
O -2.471763570598644 0.8219102757306292 2.273864061149996
C 2.239986045421556 0.03469476161106062 -1.4534942995144662
H 1.964760414520205 -0.562437622060169 -0.5779788051036127
H 1.337892864922223 0.2478023680855655 -2.0335022651220505
H 2.899161604981001 -0.5729213989455749 -2.0702971218785904
H -2.1371169587045094 1.3175511697148272 3.032873475329215
O -1.1606527272152694 -3.690537464518037 0.5997720847508551
C 2.9273792490639177 1.3244011012288368 -1.0252792352293014
H 3.182652350261372 1.9228762715266228 -1.8960847110661705
H 3.8352300057368804 1.1016582894400104 -0.47278735972306274
H 2.2759392400372813 1.9066821849659208 -0.37640046043374914
H -2.1287430777586067 -3.6400981755664996 0.6265212497576657
Rh -0.6327185550129657 0.18793791410981617 0.4492409612953813
I 0.9235485659222011 0.3957380755567954 2.541674634959914
I -0.41219701378240986 -2.15120138705225 1.5206034451302868
O -2.056872474500962 -0.8604254660807317 -1.9528897756210128
C -1.540657612878642 -0.3941497702782441 -1.0425878183357948
O -0.5488086697507254 3.0203574953693195 -0.5028263426031032
C -0.5724418452150168 1.9421526853820987 -0.14106358414716486
