12
## STRUCTURE-ID: 645667f3b2cafb4a8b56ede0 ; CHARGE = 0; SPIN = 1
O -1.1784843847220239 0.44253997646258497 -1.3488092939260174
C -1.2146485043929918 -0.27605346884983 0.5103505821789648
H -2.1593783320468614 -0.6369133341822742 0.12653257628578923
H -1.2943690350508328 0.5169122590577266 1.2321877689444602
H -0.5585937533312109 -1.0832766478757285 0.788144051225325
H -1.7166421816737845 1.24059950222716 -1.2954901288147642
O 0.6332364926368439 0.6643916232176941 0.13945525213863863
C 1.6915375845873815 -0.2049892610190583 0.195218731081816
H 2.629343402998507 0.3481269489149354 0.037310410329278745
H 1.6348930719169956 -0.991725862567325 -0.5753105355268796
H 1.7626662497026975 -0.6918680859715526 1.182020479400759
H -0.2295606106247047 0.6722563505856722 -0.9916098933173714
