13
## STRUCTURE-ID: 64568ae1531bf92f661fea70 ; CHARGE = -1; SPIN = 1
I 3.302210902813587 -0.20894696400492058 0.5738436695229872
C -1.4135398199062668 0.4555320220653624 0.9070375587148588
H -1.8413918496327937 -0.5358941493617939 0.7129916924369389
H -1.9222461648460683 1.1400646674657207 0.23033088241636904
H -1.6330089596048811 0.7290026668034997 1.9417172668461373
O 0.9718966414823201 -1.4180645171144062 -1.809588605787264
H 0.8807442288842168 -1.5354894336122082 -2.7782172040328157
Rh 0.6584535130097056 -0.2597758429749794 0.5946515935512916
I 0.3768455759240683 -2.735160250147943 1.47694322968853
O -0.1700101299623258 0.497792858939298 -2.033244561995599
C 0.41470351870236627 -0.3086252383989049 -1.3483997149870939
O 0.14674032886852575 2.6624550659646244 0.8503390909692026
C 0.22860221426735267 1.5171091143764759 0.6815951026563619
