18
## STRUCTURE-ID: 645673f11963fa7e261a562e ; CHARGE = -1; SPIN = 1
I -1.4094036519087088 0.9785420274541455 -0.30893403808587455
C -1.8546475192876148 -2.0226599499706333 2.3566263369810674
H -2.4956183667999645 -2.23370064878951 1.5113592547875383
H -2.0814712141415947 -1.065379949705407 2.806545311139989
H -1.7530815517186118 -2.8408496553657714 3.0600558147402497
O 1.2478445052259215 3.3312488155225495 -0.4638889697956435
C 0.3949525048710291 -1.7582487424385773 1.3980289874624796
H -0.7618692389967304 -1.8858347663716382 1.8858285826148373
H 0.23499313540579356 -1.8933405419046367 0.338397678648744
H 0.6785649357809433 -0.7596520119251667 1.6962407010952296
H 1.681041145437162 2.9375092681721093 0.30236081624061284
Rh 0.684047456873518 1.880847950979548 -1.9090914375991188
I 1.6125783846286166 -3.221041683621223 2.2224686854545497
I 2.3757017197715924 0.041909146462373675 -0.8476091671773062
O 0.04252165908368188 0.04431410584650453 -4.165779135757455
C 0.2762087679495573 0.743263615478945 -3.267310573233656
O 0.5393734856218036 4.35833989590481 -3.607198573296994
C 0.5882638422036736 3.364733124271612 -3.008100274219244
