12
## STRUCTURE-ID: 64566737f5071c491b2eaabb ; CHARGE = 0; SPIN = 1
O -1.459660606996632 -1.0923472508164367 -1.359216475080068
C -0.5080355852430383 0.17638896024808323 1.1976937326733668
H -0.8685493360582275 1.2020494223821103 1.2376615766423822
H -0.5090674607714959 -0.2837915828158739 2.1814650775109823
H -1.138869778489127 -0.39921312132367914 0.4997441045362655
H -1.2728207680768215 -2.0192614771116233 -1.5453033278800723
O 0.8384076287721084 0.10257478724226723 0.6738562479559148
C 0.8872787219066776 0.36658984793536536 -0.7503273943894414
H 1.8449347598646368 0.01751803149802065 -1.1210762833634618
H 0.732693021336931 1.419332274537534 -0.9695814219412867
H 0.04056098118186095 -0.23094570148419802 -1.198863768810814
H 1.4131284225731289 0.741105809708434 1.1539479321462274
