10
## STRUCTURE-ID: 64566ec46b24b64506750ee7 ; CHARGE = -1; SPIN = 1
I -2.2174526243212167 -0.8610174841395594 -1.5167946660678957
O 1.5747930078362422 -0.9105048217560482 -0.7876269149721425
H 2.358977347324249 -0.7818499231044769 -1.3657943004723265
Rh -0.681657342429233 -0.3169547065285547 0.5711922127527329
I 0.7070283330145586 0.4823061143472248 2.680166213963983
I -0.45226854752360046 -2.848185362253775 1.2179974015819388
O 1.0204893581301033 1.2409518657429413 -1.1096285503509873
C 0.8311817327025464 0.15789016147149215 -0.6253139878149223
O -1.8145465821854032 2.435709950649359 0.4693528906545985
C -1.3265446825482425 1.4016542055713974 0.4664497007250184
