12
## STRUCTURE-ID: 6456883bf4fff45ce7224143 ; CHARGE = -1; SPIN = 1
Rh 0.7312214099311228 0.4523331651718837 -0.8252487279932927
I -0.4426870652083795 -0.9178105952756456 -2.6833735294644
I -2.2679455359292233 -1.0408327841427236 1.4180286350951317
O -0.6510093882786652 2.1835336376084853 0.8905969148067174
C -0.7313624698430049 1.217011194300918 0.16501566832018347
O -2.9079896335139734 0.759764378497601 -0.8197124771591516
C -2.0320330703732794 0.5311208575509055 -0.054334705526872445
I 2.7179622639704735 1.9890363007754306 -0.22066325212642038
C 1.2998841894291664 -1.0918249391485353 0.3879846335362148
H 0.5878595059272428 -1.9191308596553334 0.34855733993066335
H 1.4296163962887465 -0.7482233400432974 1.417962040562933
H 2.2664833975997714 -1.4149770156396961 -0.024812539981702707
