12
## STRUCTURE-ID: 645667dd13698f1fd06c2b43 ; CHARGE = 0; SPIN = 1
O -2.121896677694035 1.0074569820781312 -1.6909606345849304
C -1.6447678529536436 0.007988436255774325 -0.9894467700081623
H -2.001932341687172 -1.004815602197835 -1.2536613140525714
H -1.6422273207390532 0.12752426321399127 0.10967469614002988
H 1.0363131842572224 0.44594274960876973 1.1026219592081563
H -0.6409535074666479 0.9714816385623415 -1.9702324254278403
O -0.16578436636104604 0.11312926555128658 -1.403986730509275
C 1.605563615316225 -0.12074105977431018 1.8275889912305685
H 2.5443882170531733 -0.4317520738454297 1.3888654283239008
H 1.0409220090358788 -0.9930737971128788 2.130173667021744
H 1.8011824653700435 0.4979306302066666 2.6936149606958883
H 0.18919257586906726 -0.6210714325465206 -1.944251828037523
