11
## STRUCTURE-ID: 64568845070ea47ff3112984 ; CHARGE = 0; SPIN = 1
Rh -0.7115573740446748 -0.35794306589961533 -0.008689181144179556
I -1.0740140405053187 -2.0574689933442025 -1.976141110792173
I -0.934174541510066 -2.167787357700072 1.8745576580168162
O -1.0325485151068592 1.4918577512802793 2.3219500225219347
C -0.866811347996289 0.8189390086890689 1.4255608187647155
O -1.0607847574267113 1.584780092380605 -2.2623080339205175
C -0.8911047455390047 0.8748920394267969 -1.3956205683153804
C 1.3853933568879973 -0.05990079370168117 0.00567519150733344
H 1.6720170984041265 0.9558279253424092 -0.26355881567927847
H 1.7657571572799362 -0.7776518511021537 -0.7277727485525309
H 1.7478277095568477 -0.30554475537143516 1.0063467675932611
