12
## STRUCTURE-ID: 64566596eb487d14262cdf86 ; CHARGE = 0; SPIN = 1
O -0.789189053279373 1.236519790619812 0.518229036559481
C -1.0421996315149082 0.11208781538009369 0.4009828907818511
H -1.3213477923318073 -0.3156618962646927 -0.8206781849058655
H -1.2925178491149263 -0.6941193571906545 1.0799446240654331
H -0.5540477378839623 -0.6717830236520596 -1.2882813604982837
H -5.357952197061312 1.1352631462368028 1.6882175123949235
O 0.8530323288832208 -0.7813014821180656 -0.28471396954094363
C 1.8815963685058814 0.20035063237044975 -0.32503741766761096
H 2.468224159392205 0.19167279503788973 0.592180457840476
H 1.4003544081290973 1.1728305025776338 -0.4230586092604843
H 2.531581749231358 0.030454478045445328 -1.1839162276012283
H 1.2224652470446322 -1.6163134010426834 0.04613124783219346
