12
## STRUCTURE-ID: 6456674ff87f5f14832cdf8b ; CHARGE = 0; SPIN = 1
O -4.934206161951447 1.2446042385256755 -1.1559417021753813
C -0.39947446599362385 -0.45466615417373135 0.35787902130437976
H -0.6540452983905661 0.23726874485343188 1.1439199683900352
H -0.6795251657314758 -1.482331206823983 0.5223723428820106
H -4.099056520282985 1.6050456647544682 -1.4640424354042312
H -4.778279595695258 0.31996539526509593 -0.9466730235201304
O 4.641171504830059 -0.5298973833251783 1.214052333267657
C 0.2190945049468682 -0.06674285896639971 -0.737986380527216
H 0.5028316014831158 0.960120680071165 -0.9004877746069915
H 4.1412965020162 -0.646998359188812 2.0260666859352807
H 0.4769886538556371 -0.7580752797099277 -1.523232783485533
H 5.563204440913464 -0.4282934812818088 1.4640737479401749
