12
## STRUCTURE-ID: 64566997da97fa60b34d91eb ; CHARGE = 0; SPIN = 1
O -0.8502833933334845 -0.8874147693683755 0.028604273741627672
C -1.1239954429381713 0.27293348532156 -0.7984229050848943
H -1.2001432196625597 1.1839315327653206 -0.20644155592575683
H -2.057035383854461 0.07852055536547792 -1.3233230277961543
H -0.3176442416351964 0.3742939167430507 -1.5230362095991181
H -1.5575487778372348 -0.9544569482200154 0.7169565302099795
O 0.5161130314630834 0.09724257284343572 1.6649108920990032
C 0.4715250113734629 -0.8772970591280324 0.7246647491876563
H 3.48424452583008 2.441600359449091 -1.7686322245947832
H 1.2181089475182092 -0.797587171906583 -0.06967884036420711
H 0.5181640683245258 -1.8564056888029146 1.211239066462742
H 0.8984948747517482 0.9246392149379714 1.3431592516639133
