12
## STRUCTURE-ID: 645666826386696307230d7b ; CHARGE = 0; SPIN = 1
O -1.6342218545094644 0.04942146308158142 -2.6341809054309864
C -2.100385747785558 -0.21793633434180704 -1.329763287093015
H -2.4327866165569083 0.6952230960395226 -0.8272028046972257
H -1.3315136619813537 -0.7043115766906441 -0.7215764403144159
H -2.947972390171324 -0.8929817861457924 -1.4345372649757362
H -0.8876682247692155 0.6578917253321522 -2.5798400006082565
O 2.7122580804283882 0.3738238355963701 2.2209487285365364
C 1.6249964465391282 0.15456625604877502 1.3494310193398826
H 1.3550967810338503 1.1276363183493108 0.9430180784627555
H 0.762942984867448 -0.2610054720221747 1.8805605870940796
H 1.900002889111922 -0.5130245324125938 0.5268099850117525
H 2.9792513137930747 -0.4693029928347178 2.606332304674629
