13
## STRUCTURE-ID: 64568c885622d505b25a8520 ; CHARGE = -1; SPIN = 1
I -1.188477162567204 -1.6380981017680336 2.010185816565638
C -1.5561643865925985 -0.2897818755947461 0.3788981811582586
H -0.8406942475959986 1.2576021499955716 -1.4029108454394459
H -2.204820171187375 0.4899108710212481 0.7865414817871708
H -2.120508177285176 -0.8679210115466601 -0.354572566031363
O 0.23896980005751522 -0.8812893210823142 -1.8733307892461686
Rh 0.159508332704873 0.5372491092371114 -0.45623124450902525
I 2.397826958910543 1.8609612372171498 -1.4265919688176503
I 0.018795725108783974 -2.7788355912980585 -1.5045131958328601
O 2.401602418697144 -0.8715240387870063 1.055869474790754
C 1.5139416831531918 -0.2813574617786556 0.6186854627633304
O 0.09853224354116123 2.0442265129353623 0.9989576137374143
C 1.0814869830551386 1.4188575214490213 1.169012579073944
