12
## STRUCTURE-ID: 64566701b5be144f5e462270 ; CHARGE = 0; SPIN = 1
O -0.6898224636317581 -0.5452757262278348 -0.29164073661342294
C -1.6701807437309397 0.15199671379625398 0.36481390392332014
H -1.545010535545814 1.2440907840803657 0.2773985387127082
H -1.7020077845970114 -0.10772057479148417 1.4360690292734044
H -2.651416495440514 -0.10536274735054513 -0.06105998254156212
H 0.18299481267776213 0.1114790379886436 -1.2056296929467303
O 1.1540250766280398 0.4380728433088003 -1.377766171401077
C 1.2285752580740896 -0.20115239286808123 0.5082627081990373
H 2.2065154697492697 0.24812166554824344 0.39957301596894135
H 1.228895738387651 -1.2753254241778653 0.556290251275538
H 0.6422490028570719 0.29059209505502753 1.2656272019766044
H 1.615182664572159 -0.24951627436152335 -1.8719380658267648
