19
## STRUCTURE-ID: 6456b6edf5e7fb642256ede0 ; CHARGE = 0; SPIN = 1
C -2.1347702040836363 -0.036379687825972735 0.14665343250749333
O -2.793930833638829 -0.800758939994742 -0.38200496868926254
I 1.834423936028907 1.6958352673864374 0.6935009619641339
C 0.18759224010110656 1.5727021793806961 2.1697738848121357
H -0.7201240431411169 1.7558369378705179 1.5949086984177285
H 0.3732101810037642 2.373416794872579 2.8855534447850473
O 0.5807621185374943 -2.921642954398903 -1.8302064603659047
C 0.1592252161547415 0.24514155020674722 2.865642065807104
H -1.0028068023530443 3.171670733561427 -1.1586406795041166
H 1.0608716678812482 0.049044296336665565 3.443762105277938
H -0.7284284424339185 0.16873503676837143 3.4931173947485954
H 0.10652560455333966 -3.5711429197021727 -2.3847788005497264
Rh 0.869398404209032 -0.3020533531621313 -0.8063326319655745
I 0.01573260551337647 -1.463255838935577 1.4321094269594206
I -1.234584685760332 1.8290827438658426 -1.9922561426197183
O 2.469041251976397 -0.343287036261502 -3.335637596435832
C 1.8940242288620672 -0.2306065105513233 -2.3390725196691413
O -0.9640179151639715 -1.5023390225109219 -2.594899724230338
C 0.02785547175338026 -1.6899992769060495 -1.901191891249973
