12
## STRUCTURE-ID: 645669867668d918534dd530 ; CHARGE = 0; SPIN = 1
O -0.6030469380003981 -0.7767755992550841 -0.1981921195522548
C -1.5922131231526353 0.1329189318463144 -0.4636665281785493
H -1.6698788560540223 0.9225612892066801 0.3040341063807265
H -2.5640632271373605 -0.3817065183786421 -0.5064185630519752
H -1.4415375554888097 0.6195221622783066 -1.4420339695479178
H 0.15490308026269628 -0.8037054093394905 1.0311597213693244
O 1.0410254513611241 -0.5273424579436041 1.4834223709618561
C 1.3298515663725516 0.05440168840884289 -0.39903236880150783
H 2.3066347645633543 0.23650656331124104 0.02816853997341186
H 0.7952231346433951 0.9499193969164819 -0.6650061422758846
H 1.3394532193139743 -0.7177136693392314 -1.1471872866160395
H 0.9036484833161359 0.2914136222881699 1.974752239338791
