12
## STRUCTURE-ID: 645666420167940d14351d7b ; CHARGE = 0; SPIN = 1
O -1.2097433500174832 -1.1391555197888512 -1.6834428082374324
C -0.8198332782924902 0.5766724892668886 0.4913523225388652
H -0.7055326120497516 1.598129448356193 0.13886071791962037
H -1.0949853926758688 -0.097905923624143 -0.38959670096481785
H -1.5767260459784742 0.5057259572231697 1.2646962141904383
H -2.1449603496320413 -1.2757193645137959 -1.8659179759314346
O 0.41857473833933817 0.056777250823485656 1.034521028912158
C 1.4161956227774952 -0.17160642182895225 0.016209471773355574
H 2.2295147346295234 -0.7339599761019985 0.4682248295132157
H 1.7713294522801017 0.7631575464797676 -0.4150680065760641
H 0.93797765298891 -0.7644495479260868 -0.7645482845827967
H 0.7781888276307586 0.682334061634348 1.7047091914448473
