12
## STRUCTURE-ID: 6456681808659b659d40f201 ; CHARGE = 0; SPIN = 1
O -3.0636953310731414 1.4320134002288105 -0.3428399488105346
C -1.9794089391858631 1.822516244555627 0.4713614192610159
H -1.7255723502791485 1.047059660997585 1.1998892175669176
H -2.2943411798568296 2.7189250975954824 1.0027011124737584
H 1.0039487259973805 -1.96999406580078 1.8830911259034142
H -2.8290521880668575 0.6151804263344965 -0.7992280153780454
O 2.317208879536051 -1.309276432790833 -0.3736672740385133
C 2.868162096761595 -1.3741613306432316 -1.4357397973396855
H 2.8889362279186632 -2.2983066193535984 -2.031876612158366
H 3.3876215390151865 -0.5133494016457167 -1.8815557623794648
H -1.094239475163704 2.056809578431546 -0.1279866847535385
H 0.5204319943966609 -2.227416557909386 2.4358512196530366
