16
## STRUCTURE-ID: 6456793c2f291b14a823362a ; CHARGE = -1; SPIN = 1
H -3.342192606508622 2.261003744513731 0.5493588138290122
I -2.0981912873696493 1.1683729786727672 0.7682757823982065
O -0.5086712445727004 -0.49141069804448745 0.8132628189700697
C -2.434044667374381 0.5948852375590051 -1.2519847959101715
H -1.7635465733320355 -0.22863246348419983 -1.460635958937793
H -2.1888858914887095 1.4465053408727815 -1.8756784511508218
H -3.468901098286283 0.29078632949381567 -1.3438792137370328
H -0.7074417699695881 -1.1887847273183452 1.4406461084295827
O 3.5855714143481725 -1.4247243614128737 0.12313195088248859
Rh 1.6452132836246856 -0.24725942547376353 -0.07947960182075905
I 1.0574274843372264 2.085278165273342 -1.3091204809045875
I 1.026486719728148 -1.792141175620683 -2.119875679607341
O 2.1583524368374354 -2.713251386012505 1.3827507953495133
C 2.617647754194985 -1.8741862674407177 0.6820192396523048
O 2.342307510573892 1.3566244389173296 2.315803457581174
C 2.0788685352575036 0.7569342695048181 1.36540521497611
