12
## STRUCTURE-ID: 6456692a500f4c3374493a7b ; CHARGE = 0; SPIN = 1
O 0.0034028830381681104 -0.12431460080119235 -0.005459586956212151
C -1.2439961086308164 0.31573026267780085 0.4856343138820396
H -1.8458367217188274 -0.5287782582566727 0.8385121267703869
H -1.8023426999852903 0.8514971670120246 -0.29014680243694935
H -1.034911358922499 0.98599745861715 1.3161234956965917
H 1.6174526486360457 0.5226288168782709 0.9058501046330529
O 2.356809252627313 1.0388916549664124 1.2546742234298807
C -0.11744016379185569 -1.0315048638637305 -1.0788740345063008
H -0.6698412267279031 -1.9271997310014322 -0.7743202057821635
H -0.6324256368425542 -0.5666471558741969 -1.926979818482454
H 0.8927235549416529 -1.3086557090037292 -1.3710181806286204
H 2.476405577376558 1.7723549586492884 0.6460043643807596
