12
## STRUCTURE-ID: 64566586d5edc521704609e3 ; CHARGE = 0; SPIN = 1
O -1.2243976639774585 0.5088670985154103 0.6991089458478198
C -1.50427462285088 -0.054749848070610396 -0.4118535719609778
H -1.9154321675567612 0.5545996977999853 -1.2292659284535552
H -1.881540543066922 -1.0865259606348183 -0.4035121225238948
H -0.20765238606865832 -0.17300194158994434 -0.7577623096418137
H -2.474728939793236 1.01248853591617 1.7061165017345705
O 1.0724541723248864 -0.18494775316387263 -0.9173786868709578
C 1.6100702923576489 -0.2844287118182154 0.4062670952062024
H 0.9721086764786366 0.25495072634308147 1.1128302502142113
H 2.6209255782929435 0.11307168679310145 0.4289523808922063
H 1.6197793591732093 -1.3404031206803317 0.6667630836161111
H 1.3126882446865953 0.6800795905900403 -1.30026563805992
