17
## STRUCTURE-ID: 64568b2ba967eb12b832badd ; CHARGE = 0; SPIN = 1
C -1.257344053400739 0.19710504958488823 0.5979823545058062
H -1.4842560493162855 1.2816585276780714 0.5418507815784683
H -1.5410647525583563 -0.24417180328281 -0.355119266757448
H -1.8769160295676544 -0.22334524772275838 1.3880213380091848
O 0.46900936851546365 -1.652927106995501 -0.3461928034679673
C -0.13526278560913385 0.42737185293125923 -2.880681867964543
H -0.25868741367669634 -0.6251938888022898 -2.6536051402542684
H 0.2531117831223296 0.5679359132282595 -3.883268657934852
H -1.0536851675833327 0.986167500758949 -2.7395854430541102
H 0.591458385737367 -2.6230959562170995 -0.35725084305074867
Rh 0.7926321237661103 0.6959576031353991 1.033696384824802
I 1.354041724699887 1.214540410986714 -1.506169688271879
I 3.1452584102053103 1.74711076479546 1.6419691645741141
O 0.3300193288075591 0.6778089991122738 3.974507105195994
C 0.48665151167468457 0.6654975791072842 2.846161981280606
O 0.01315556357406552 -1.902124323062214 1.8301293306732935
C 0.1718780516094188 -1.1902958752359065 0.8675552701135227
