12
## STRUCTURE-ID: 64566b210489b136bd623196 ; CHARGE = 0; SPIN = 1
O -1.4953021490221605 -0.1968143422653583 -0.3666936591011015
C -1.6113024881180658 0.36179790913647863 0.9086889378558322
H -1.3070484818739534 1.4149554062899343 0.9210050302101275
H -1.0235335848374736 -0.19268761667989678 1.6506455196595242
H -2.6652869334560885 0.298640308193675 1.1867361320315357
H -0.5295579113396042 -0.15658822051232765 -0.662991092662636
O 0.9611407198415605 -0.0782962142231103 -0.912688390789137
C 1.7127908254823963 -0.18122592414984615 0.20218653542942197
H 2.7761137480743807 -0.08956419347986828 -0.08581542517407505
H 1.606228591174071 -1.159747470444472 0.7015633051546251
H 1.522500704956086 0.635748815144574 0.9206278181116256
H 0.05325695911886942 -0.6562184570097797 -4.4632647107257455
