13
## STRUCTURE-ID: 6456887d7fa734091d4609d4 ; CHARGE = 0; SPIN = 1
I 0.2202138623677643 1.860093998726482 -2.024619000283112
C -1.7786901740296857 0.4868009245695204 0.5021602003653214
H -2.340011368705628 0.7640740232484228 -0.39171019609052155
H -1.7377608559543825 1.3318973087176866 1.189363459548067
H -2.2633777639153365 -0.3617876448835856 0.9859984308992057
H 2.9300433645919233 -0.8693036330293399 -2.5337495242135164
Rh 0.15982657067486697 -0.05703051496368135 -0.1700043994344508
I 3.1051912245172484 -0.9132762724273124 -0.9645122107728135
I -0.8397647145471256 -1.960416955819312 -1.7446862663003633
O 1.3531327499629893 2.17518855217228 1.4353392591349745
C 0.8979366583400614 1.312851985885399 0.857100150143185
O 0.1355745811601589 -2.3243821298718874 1.7869154495901567
C 0.1576858655371617 -1.444709642324679 1.0724046474138749
