18
## STRUCTURE-ID: 64566f5abab4915be15fdab4 ; CHARGE = -1; SPIN = 1
I -2.607880018455161 2.0473775311020646 -0.6061564725263426
C -3.8190857473347695 1.128483721079489 -2.1843931208969343
H -4.673521830269703 1.778785776800741 -2.3344151957025088
H -4.092457679747322 0.13790113512817226 -1.8342376045612812
H -3.1880970632833807 1.0581746763669309 -3.0619788977175046
O 2.5037145585203984 -3.2114325781824036 1.546479898754827
C 2.5649426799653208 -0.5197530949244059 1.6496452922049087
H 3.4108867402354246 -1.1853231989151363 1.7255597139063235
H 2.2411863408462747 -0.2094619068830454 2.6375293598508804
H 2.8068551640987445 0.346280157726496 1.0403274425170328
H 2.183454786992927 -4.095750646212145 1.3704915457317326
Rh -0.4943613519250088 0.4358767866331389 -0.03074593433228996
I -1.5809311672702007 -1.7009059135123579 -1.0953996179959127
I 1.0277963684785152 -1.6004447279728014 0.7178621607072593
O 0.7282221462255374 2.042339622178758 2.1708308639226797
C 0.2415408679011631 1.455675176982716 1.2920353587710631
O 1.9345781825756094 1.1753026420842565 -1.406016134989843
C 0.8131570224454986 0.9168748405195781 -1.5974186576442948
