12
## STRUCTURE-ID: 64566b6d4748603f2e2726bb ; CHARGE = 0; SPIN = 1
O -1.0049778927876667 0.2649602383805868 0.5289757212618964
C -1.0468639971421823 0.49439778627070996 1.9229438328146615
H -0.18916552206625686 -0.019021445028490114 2.3530873300824515
H -1.9621222363831945 0.08974190791676849 2.3621707015244118
H -0.9735285147788763 1.5610088034429574 2.1514351182571745
H -1.7603187743106776 0.7045969573159419 0.11970160600163363
O 1.5055095773768563 0.20952869798107213 -0.8447470464536587
C 1.2245652825292068 -0.7170433978349305 -1.8676582419137535
H 0.9486801873704793 -1.6934348867619344 -1.4574427604238291
H 2.132925910318525 -0.8236702020745775 -2.4597390588782218
H 0.41707186947357405 -0.36247411780669364 -2.516534623140257
H 0.7082241104002089 0.29140965819857734 -0.2921925791325164
