12
## STRUCTURE-ID: 645668c7ba9cb207380b5361 ; CHARGE = 0; SPIN = 1
O -1.3763516427752576 0.6502537333529717 0.10717153325192112
C -0.23451993049884345 0.9643605584356119 0.7742373520597778
H -0.03137981938127426 2.0188844963904162 0.9167254172791222
H -2.3321001234831287 -2.5600962585163085 -0.4692749643917751
H -2.179037455284696 -1.8035117608496651 -0.3655236270440224
H -1.8390992250730462 1.4465440889905807 -0.1785342210370885
O 2.0867788918457184 0.24919803548938957 -1.735432090131809
C 0.5989979523911979 0.03886622188911592 1.2244030604346925
H 0.39073771403851754 -1.008691960206676 1.0957901553496745
H 1.4874286508068288 0.3134770586780774 1.759085334350524
H 1.7212200531628346 0.1372704003965448 -0.8497451018198086
H 1.7073249342511585 -0.44655461405006297 -2.2789028483012084
