13
## STRUCTURE-ID: 64568c2707107902e5493a6d ; CHARGE = -1; SPIN = 1
I -1.4542002457505334 0.25102966029564944 -2.579006844316204
C -1.3980401259120834 0.08930655938786698 1.2560539532244344
H -2.26000519411493 0.18118979860295023 0.5817794655994576
H -1.281267026288499 1.023471529107055 1.8033856041766039
H -1.617816509067662 -0.728131682124354 1.9416507655045503
O 3.0712483674893774 0.44240672068764797 -2.414304717483444
Rh 0.07390375963338794 -0.3025468482719897 -0.38514978180669074
I -0.4322230407570629 -2.906354006759434 -0.3413080699043747
I 2.1296395223892843 -1.0915561483124656 -1.9372079406390323
O 0.9427609664770583 2.4845159399712897 -1.0356534059104026
C 0.5774312653663985 1.4528827349958138 -0.7162522411408873
O 1.0462956942541481 -0.48565074900067634 2.440604500813973
C 0.6022725662811206 -0.4105635085793579 1.3854087118820246
