16
## STRUCTURE-ID: 6456769180cfea671d33a73a ; CHARGE = 0; SPIN = 1
H -2.8260800266688 1.125982657881812 1.1262595593812463
I -1.2959695006451921 0.8260425686667682 0.5455291503895632
O 1.011996100983793 -0.1270730150105429 2.429915257635796
C -2.4362533864427953 -0.09649945202290143 -1.0644253164218331
H -3.2894021829450906 0.5473567394722801 -1.253905228852775
H -2.730351640583618 -1.0862366010059694 -0.7267372275238447
H -1.798076666804467 -0.1429592993433869 -1.9409603880632487
H 1.3444189349172853 -0.3774718360851933 3.312820171923744
H -0.15856969972758808 -2.4736913033485948 -2.166565149977435
Rh 1.3141053061111838 0.12714115079601504 -0.37587928500119716
I 0.49327138174557067 -2.3827471718964084 -0.7053804891709217
I 0.8165194454770869 0.8499846046800469 -2.899548003862981
O 2.592504455698075 2.6856872524890862 0.46242892180426315
C 2.057722365479242 1.7249723126525192 0.10820583105905773
O 3.0023670433839773 -0.8383252071657972 1.7057706795595844
C 1.9017980700213384 -0.36216340075972975 1.442471517120988
