18
## STRUCTURE-ID: 645670c80bb08663375fdaba ; CHARGE = -1; SPIN = 1
I -1.943005314470293 -1.770689273320395 2.8441091915862735
C -1.4343589078301289 0.7014640713418362 0.3495894527292171
H -1.440451893719757 1.452587769330582 -0.44830750155166527
H -2.211228107898232 -0.04330864171701124 0.14907192116700302
H -1.6508428751969975 1.1917512842390492 1.3003538587844101
O 0.33734941316774614 1.3708525513959269 2.769904817267235
C 0.4056756187572362 -0.24827957559368047 -3.7052780664801284
H 1.4533610640129278 0.030031947511596727 -3.682461322877008
H -0.2223751770886815 0.622682803010237 -3.5579735736897
H 0.14890317133355618 -0.7817349750037867 -4.61238198658443
H 0.7844027707835 1.605650245014388 3.608068684336984
Rh 0.41678403858724644 -0.21606076349190137 0.35557215657107016
I 1.8596801751788972 1.673889422972236 -0.7986593654070708
I 0.04210179758630515 -1.6066597395147832 -2.031630590911783
O 2.0523975264003624 -0.034602604642041505 2.465834558459199
C 1.0026828743554193 0.46102036454964107 2.0698853466653553
O 0.5420345655632876 -2.6889370517728053 1.5150592945295727
C -0.1431107395223871 -1.719657834308988 1.4092431254052833
