18
## STRUCTURE-ID: 64566f5bbab4915be15fdac0 ; CHARGE = -1; SPIN = 1
I -1.9898060337239367 2.3472832761198252 -2.337407478124274
C -2.974264694527415 0.5748654254480938 -0.7699169442317321
H -3.507875748464632 1.3164745709544892 -0.19549778812914775
H -2.5405902863100662 -0.20087950108465386 -0.13542496432146525
H -3.5552049197261297 0.1447725460682412 -1.573333603145556
O 1.857972732431441 -3.1128772171885073 1.4046715034800716
C 1.745911172901232 -0.4192946810038933 1.7010079494726438
H 2.438721168415783 -1.1074949560737959 2.1593982801517413
H 1.004920376128108 -0.0889164355492336 2.4199355017320907
H 2.2698538366308343 0.4288573788443193 1.2718573194378628
H 1.6845990834139688 -3.9819377414196935 1.0449843041200957
Rh -0.39398164759836984 0.610531053048419 -1.073533266406701
I -0.7899036333112698 -1.4068046094548674 -2.7499875642876996
I 0.793425025376828 -1.4788192238681608 0.14527136897108606
O 0.07063699518729757 2.313770273610506 1.3307626255850558
C -0.13192920982858064 1.6495284156658587 0.40700140781153515
O 2.4979927031118963 1.2779462325404427 -1.220849535390371
C 1.5195230798933614 1.1329951933425864 -1.8289391167253055
