12
## STRUCTURE-ID: 64566b55bbdd8c2e726a603e ; CHARGE = 0; SPIN = 1
O -1.1026451695586568 -0.046723688936294215 -1.0686570110055484
C -1.9349725944873122 0.05230630131810736 0.07132171047943686
H -1.935497877889804 -0.8802195609356598 0.6424908112802314
H -2.959443575035606 0.3109327137919369 -0.20549974931312479
H -1.5248652248887542 0.848324604713497 0.690175520476179
H -1.4814913469103632 -0.6934087247908542 -1.6765995354788006
O 1.4445000417940688 -0.8720223770628378 -0.12785304010892778
C 2.0855448647994232 0.24886957913660546 0.43257270784115726
H 1.4821244618699463 0.6994847368387768 1.2274311792411836
H 2.3010932232898873 1.0090829716805636 -0.32528280366372864
H 3.024682961434803 -0.10190226311455293 0.8583137488371417
H 0.6009702355823696 -0.5747242926392822 -0.5184135385851937
