18
## STRUCTURE-ID: 6456706ef341864b6062319e ; CHARGE = -1; SPIN = 1
I -7.297831431751432 -1.290520465288477 -0.14807276785080367
C -1.8908717275352647 -1.2066175495307758 -0.13357893275812985
H -2.1823594524333676 -0.44575674831093054 -0.8550685810843816
H -2.3913022976054994 -2.1332892604651885 -0.40572089201372513
H -2.2526129734368547 -0.9044169974336452 0.8462162421636644
O 0.49599420626094 1.5311321716360786 1.6381283082558595
C -0.3873880615721849 -1.4161220358210653 -0.11186571264707276
H -0.026996440831190044 -1.7492705106885595 -1.0964960434839546
H 0.09550170622963103 -0.43341852622545046 0.1942098986441366
H -0.11309967767055615 -2.1624322400229277 0.6330801496079765
H 0.30603179688300197 2.1517140584133134 2.378260190611039
Rh 1.588867389696151 0.3837455393273923 -0.4978310063888264
I 0.058066852539137646 1.7330296009165593 -2.13676813702537
I 3.092664549448521 -1.154943623358507 0.9761847801403908
O 2.296321526235686 2.717154319573342 0.9476606367551151
C 1.5176731440869817 1.8202339763567381 0.8946154893227284
O 4.007671926149667 1.4830038015066598 -1.8197095828857612
C 3.083668965306502 1.0767744894155453 -1.3032440393628528
