18
## STRUCTURE-ID: 645689bde989cc75ed0b3f60 ; CHARGE = -1; SPIN = 1
I -3.3458903440106518 0.22917402324410593 -0.6595444584957495
C -1.8134503447488406 -1.1455580883146705 0.056284862939595864
H -0.5352294246892938 0.6822432200203116 -2.4389958059742978
H -2.2539285393914037 -2.128941430887553 -0.10452839411958172
H -1.794575418785233 -0.9196005027560811 1.1220301037143925
O 0.23666316393204098 3.0643453876319975 2.161977105235578
C 1.7028934708888486 0.8364585787214106 1.5595409093392962
H 1.6677043299242453 -0.2473194048639293 1.549442333332645
H 1.560556327738547 1.2379535878129857 2.553222339697392
H 2.629079071059831 1.1941084976793184 1.1261649745808497
H -0.30294690396432933 3.8379691585872777 1.9987511917974803
Rh -0.09499488407798178 -0.4327488594529676 -1.4069550534095945
I 2.516532290260669 -0.0035813715847648137 -1.9071938447888872
I 0.09093202295981925 1.5863487443395428 0.3817703098442831
O 0.22788153273909084 -2.4510482682465007 0.8407976817447348
C 0.01879667805596653 -1.6687491882385983 -0.006468503494799159
O -0.2329070484295098 -2.098704181144064 -3.921538338199888
C -0.2771159794618764 -1.5723499025477863 -2.9047574137434276
