13
## STRUCTURE-ID: 64566c4706b85020535eb01a ; CHARGE = -1; SPIN = 1
O -0.41477692933617866 -1.502851932746942 0.7393955812244697
C -2.369755573036375 0.8768594333155489 -0.033483795004371625
H -2.035545914326088 -0.05960152219216469 0.4058567492083391
H -2.735957567994975 0.7277121652346947 -1.041776375239304
H -3.099164019719979 1.3724154497098533 0.5928174423251679
H -0.772793083156457 -2.1925306221631615 0.17109846000785817
Rh 1.179137701256331 -0.5205674301479296 -0.12325233972391343
I 0.3355899517351019 -1.2055606434625281 -2.513417015126235
I -0.6280598397478429 2.1392685423901416 -0.15254230098676325
O 2.3768174666293493 -0.25002009410328047 2.602597424329536
C 1.8857294338908788 -0.33454271381241246 1.5618639401528642
O 3.622736937069925 0.6897705551201849 -1.3386381531069447
C 2.6560414367362983 0.25964881285799013 -0.8705196180606922
