12
## STRUCTURE-ID: 645668be17b6d85640224148 ; CHARGE = 0; SPIN = 1
O -1.6536737298733881 -0.5440821947100661 -0.6990561753671095
C -2.0292597747743133 0.4075802854156484 0.2693711291380842
H -1.9539954039703582 1.427403911118429 -0.1221803541285999
H -1.4143463397610074 0.3261169754644127 1.1712254484136932
H -3.0673772166080666 0.20378133412311464 0.5293996613585189
H -0.7172638250509975 -0.39775968543188933 -0.9136377214799765
O 1.143476386881049 0.11432181393957276 -0.8211863177560476
C 1.8760672970472654 -0.4697576806694283 0.23611487315843804
H 2.0490305619481237 0.24792246622803724 1.0432987189954546
H 2.835054424262672 -0.8610050377282448 -0.11335793889481459
H 1.275897910887623 -1.2945150987143204 0.6165129834922407
H 1.6563897090114066 0.8399929109647382 -1.1965043069298866
