12
## STRUCTURE-ID: 64566674154c7451432fdd89 ; CHARGE = 0; SPIN = 1
O -0.07696575754194594 0.5896938231105684 -0.06327744365087867
C -1.0351767397594789 0.6093231156151238 0.9815187165451715
H -1.7751010515028323 1.3910640896001096 0.8041628535063928
H -0.49751106440883774 0.8221961564945758 1.9030328422268559
H -1.55765183333021 -0.34632053224983933 1.070293370946681
H -4.562785343879921 -0.4042967008708505 -2.0301360987263037
O 1.9804511733916763 -0.8537196932152413 -0.874950651640527
C 1.315490282680716 -0.9267321932205248 0.13093601843578012
H -0.5301008424520126 0.475103194085434 -0.911068694287495
H 1.6431376840901488 -0.46747207232823274 1.0749540232787025
H 0.5120786756028963 -1.669941162368497 0.24510482129435038
H 4.5841348171098035 0.7811019753473771 -2.3305697579287403
