18
## STRUCTURE-ID: 64568ad819052112006cdb43 ; CHARGE = -1; SPIN = 1
I -1.311045025761608 0.9672566324832123 2.996274080425493
C -1.9503464815159364 -1.1699101149767344 0.2705032123903454
H -2.285481913229462 -0.36345854127381555 -0.3982096854340618
H -2.7339585122479995 -1.320021588441651 1.0155127711892091
H -1.8632808733908615 -2.080976535269533 -0.3249172970276416
O -0.21121074289201777 1.637426977111458 -0.19029269404036878
C 1.1103154941773326 0.5196884407244532 -2.70829509598046
H 2.1216821351290274 0.817634122426594 -2.9603305692644044
H 0.5862332954828758 1.3130980020140035 -2.178755320725629
H 0.5551520078693657 0.15796758697481622 -3.5655206250737157
H -0.7222929292927094 2.360517544029575 0.18240473351582556
Rh -0.07324565614080118 -0.1417100787504061 0.9082640491690134
I 2.7844405582140754 2.1068213081003093 0.32684459063274124
I 1.2413498225105468 -1.1053343485453435 -1.274249483532626
O 2.2118557452137715 0.3206917724129552 2.594796768779876
C 1.6488033940964648 0.6212873412748443 1.5941245890926223
O -0.6898959693657798 -2.8323700313855227 2.094573721279123
C -0.41907434885628464 -1.8086084889092193 1.6172722546046485
