13
## STRUCTURE-ID: 64568c4d3a9dc507eb12b08a ; CHARGE = -1; SPIN = 1
I -1.542725214206448 -2.778045942218263 -0.2943063756631184
C -1.4614273830209623 0.6329701849903224 0.2678958142468977
H -2.0514549218821023 0.7082299461193697 -0.6518586673274054
H -1.1264821100331308 1.6338815184861457 0.556940724051004
H -2.119955986273769 0.2595130835475173 1.055454512978502
O 1.3078257473865569 1.2397162810242126 -1.6791270217503744
Rh 0.14179875863039354 -0.6869304938453975 -0.11455160650491514
I 2.4045173825261794 -2.0686718870243705 -0.7993372807610208
I 0.18988627395543795 0.07687208454477074 -2.8454095888437743
O 0.6561609863531573 -0.7817813695767247 2.7940835884674016
C 0.4428139888172358 -0.7261757668041896 1.6722249634264155
O 1.8935709389378217 1.5913472421313353 0.40245590753207644
C 1.2654715388096245 0.8990751186252752 -0.3644649698516851
