12
## STRUCTURE-ID: 645665a2249d6d250d071020 ; CHARGE = 0; SPIN = 1
O -0.4002883125179158 -0.233323886438992 0.4750266220458971
C -1.7896122420590594 0.11337117581864053 0.265691158498062
H -1.8848944800250034 1.0039227945364617 -0.3562619712787059
H -2.2478098083396136 0.27372844583752387 1.2392367508876063
H -2.2603975986483644 -0.7332927055263445 -0.23126762881666857
H 0.08631243796759827 0.4857420021758157 0.9323318240831575
O 2.0247568046671236 0.28698006308799623 0.15996089233913754
C 0.4127665107187579 -0.4795327715685866 -0.7103949855838889
H 0.30040663758021086 -1.5224041742853767 -0.9933651537688806
H 0.1545535845932103 0.19863005814782883 -1.5181378192000943
H 2.6152770142611472 -0.4030287452642823 -0.14318495356931957
H 2.9889294518019076 1.009207743479315 0.8803652643636916
