12
## STRUCTURE-ID: 645669497925ba4d10230d78 ; CHARGE = 0; SPIN = 1
O -0.12709017284456928 -1.151867570678245 0.13104732798686608
C -1.275074555758401 -0.5351076669613111 0.7117466289713844
H -1.9186839968374785 -1.3466239228815249 1.0384130944470833
H -1.8024161804245402 0.07410299407590082 -0.026021021617927687
H -0.9974333609971267 0.08453079591928657 1.56543747039749
H -2.454237818246982 2.972233188758759 -3.142794365314502
O 1.6595555140392897 0.23971670650415047 0.6711738690374702
C 0.7684956974818856 -0.3276866348654558 -0.4340183882889347
H 1.4020390431657728 -0.9083321778964274 -1.1091124936334817
H 0.34112951160099597 0.5582766441230993 -0.9167645176758558
H 2.050962396996923 -0.5021606377868795 1.1957621467422865
H 2.3527539218242337 0.8429182816886229 0.3151302489481402
