12
## STRUCTURE-ID: 645667884790aa6be0333be0 ; CHARGE = 0; SPIN = 1
O -0.5339315518041727 0.051771380120694245 0.25786265844306056
C -1.49967655796021 0.14807629179871362 -0.8163980314468892
H -1.9365349839108597 1.142878382581114 -0.8038280555787412
H -2.2689755160311975 -0.6136093146937336 -0.6870277221054297
H -0.9666765878572341 -0.001120378206067481 -1.7545941367599753
H -0.6741054811266711 0.585702856689846 1.061357892113554
O 1.4543600369816363 -0.4319458613576411 -0.8425390027234174
C 0.6119870324555096 -0.882560382670153 0.1104829253700312
H 0.18631425696525883 -1.8306522338435152 -0.23325793470942618
H 1.040399079801552 -0.9683433935967748 1.1130916106538233
H 2.5536007798076676 2.519909238389813 3.1291385262294544
H 2.033239492678725 0.27989341478769386 -0.5342887294860607
