18
## STRUCTURE-ID: 64568995986d0b7f9d6b0e0d ; CHARGE = -1; SPIN = 1
I -2.7376573094185344 0.8333043490995579 -0.20846766059893015
C -1.6940068428692283 -1.9831516311132806 1.6674485977732545
H -2.4698255879010174 -1.4637452760080776 2.2271865605639727
H -1.0456387503932811 -2.51812950938408 2.3602202940870427
H -2.1833637816394424 -2.7071248470177833 1.0078814147090536
O 1.7039552540737832 2.2732218497459975 -3.0727350698733513
C 1.3343507582094911 2.1220873614633025 -0.37170674903168816
H 1.949844863255289 2.846495686301161 -0.8845329374059044
H 1.8982481169383434 1.5788707644841635 0.3802493743926112
H 0.4622846250602132 2.5946066337368596 0.06842055754421877
H 1.5756079051777154 2.1005138971601496 -4.00536335900691
Rh -0.5989150961854591 -0.7758259624989733 0.0853411320646248
I -1.0882454632870429 -2.264364668637926 -2.1159864657461482
I 0.6605821633950276 0.7262514998762343 -1.8325163484181115
O -0.4504264762385451 0.3479372203359948 2.8518944687719583
C -0.4944977344294445 -0.08645556703147902 1.7852236072482988
O 2.1095613050364674 -2.0513798922437885 -0.0053082170052705544
C 1.0681420512156792 -1.5731119082680294 0.06275079993129556
