16
## STRUCTURE-ID: 64568d83566bea56f14609da ; CHARGE = 0; SPIN = 1
H -1.649253148871542 2.244923789744221 -1.4031122109610723
I -1.1535374832562493 1.284250076703863 -0.1388101533317633
O -0.7659420943940439 -0.23436503927739796 1.5622668958818602
C -2.7468936520898235 -0.021862650313627024 -0.6670867640708682
H -2.554512530733772 -0.38420185425854814 -1.6703099710914935
H -3.667271636119578 0.5467033296515187 -0.6023810577357683
H -2.7250579645437765 -0.8390244956949003 0.04189204804994712
H -0.8979797540011719 0.07460481521027353 2.460599390731675
H 1.3810056019892267 2.5184106560553885 1.8428829487443708
Rh 1.1736803981604143 -0.6524004089853342 0.4524951327987459
I 2.32443431425332 1.241429746599878 2.0273485464362215
I -0.025014256795598114 -2.6368210142907067 -0.7666176326894079
O 2.243160268667772 0.4212858265741835 -1.9948342307356677
C 2.3758959429732256 -0.3239516236784666 -1.0671447996929269
O 3.7827167291710793 -1.9887574708380973 0.14694139453880892
C 2.9045692655905233 -1.2502236832022664 -0.22412953687265974
