19
## STRUCTURE-ID: 6456b7f12f36c963593288c4 ; CHARGE = -2; SPIN = 1
C -1.1282055055600442 0.530174149817447 0.9098349156712137
O -0.7287799035337313 -0.26452234323406887 1.7597513417591657
I 0.4601410612282524 0.7273204908992081 4.768542402366115
C -1.0812499930782227 -2.4804677738512906 -1.762902995675004
H -0.7728190344554039 -2.9828202530136854 -2.6766570710154407
H -0.5255329790507683 -2.9101925070502634 -0.9290434197326538
O 0.30646270674194837 1.7733191212496535 -0.6041068096363934
C -0.767123681195822 -1.0077938628157639 -1.8260047690702825
H -2.1436932879691777 -2.6485658167270065 -1.5983038921852462
H -1.0854042178647076 -0.47739869936000745 -0.9233897866254435
H 0.2913362100541361 -0.8222598273782071 -1.9833896794459709
H 0.4919504540491448 2.6928946709367962 -0.8619016980297094
Rh 1.0302694994486084 0.6596206124323983 2.1035645716227944
I -1.7827739059440668 -0.04377560688478456 -3.442066306661898
I 2.222092888072035 -1.3189086898513005 0.6420056029904503
O 3.499912378548314 2.303925764170859 2.345498824689428
C 2.51588940935184 1.6805940048939774 2.2321268823872624
O -0.5364386377329876 2.83837879695132 1.198814623325506
C -0.2660334611093782 1.7504777688146997 0.6476272632661371
