8
## STRUCTURE-ID: 645663a9b1fdfb3b63399e40 ; CHARGE = 0; SPIN = 1
H -0.7964382655017791 -0.04092119885035342 0.025724098298465913
I -1.9143940246055209 -0.2815382846567098 1.81264878991358
O 0.554844961225716 -0.08833947203845764 1.0568995959736587
C 0.058236989475299664 0.09149197737933355 -0.825796138802456
H -0.2918293655116871 1.0556053315869873 -1.1913943063153856
H -0.23221257844740048 -0.784759475366501 -1.4043599926454868
H 1.1461667071229276 0.12650510639169021 -0.8431848955155363
H 1.4756255762424504 -0.07804398444598297 1.3694628490931215
