12
## STRUCTURE-ID: 645668b2d1086e72a93288c1 ; CHARGE = 0; SPIN = 1
O -1.422745208614233 -0.45209685331457783 -0.25845823274577673
C -2.270772408237267 0.6299200954618239 0.06297156296422181
H -2.1053816556517195 0.8612040282253981 1.1135669365654846
H -3.322177635272109 0.36740002339707634 -0.07826075104149748
H -2.0386230562005085 1.5127475646577726 -0.5396712078826862
H -1.5837892479647688 -0.7140066624912932 -1.1738910444750283
O 0.8459545503543563 0.13570200362302293 -0.356627322346676
C 1.4229288106627018 -0.1383319330380883 0.5810791594826089
H 1.8412745668497776 -1.4829368492569721 0.661158530780135
H 2.0274019625357664 -2.3600745352820254 0.6323517044866028
H 1.790964855099851 0.2475867527034013 1.5286756181165155
H 4.814964466438166 1.3928863653144599 -2.172894953903908
