12
## STRUCTURE-ID: 6456b829d4c8e83d806cd4ad ; CHARGE = -1; SPIN = 1
C -1.608237624887581 -0.5702225156126207 -0.6973968857546315
O -2.658886477615673 -0.9835723200738791 -0.4921111550247353
I -1.0405819190156722 2.512162943402644 -1.1451845185719653
C 0.1873964524464044 -0.015308252172233625 1.7307403088247435
H 0.9412949074923167 0.006256210310526105 2.5175172015740084
H -0.31197759432161776 -0.9832466621153005 1.7139379487625297
H -0.5620813678389287 0.7548523173093129 1.923424734466117
Rh -0.022563052119810356 0.05871654988996684 -1.3580866456101672
I 0.8109142046619431 -2.4745194560685966 -1.4150341613442243
I 1.4534558184534874 0.7226348000347304 -3.4633136664536694
O 1.959152892751758 0.6933977634204372 0.2557361050045025
C 0.8521137599933731 0.27884862167500846 0.42977073412749
