18
## STRUCTURE-ID: 64567441b0314d2be80b535b ; CHARGE = -1; SPIN = 1
I -3.4964007629807154 -0.9204945513777164 -0.5587967370357863
C -2.3149892186233942 0.30728923108868045 0.7217213538058717
H -2.473024705326138 1.3425388899857864 0.44636030785888414
H -1.2484746063545664 0.007639596578731043 0.5916368215918837
H -2.6140172822189487 0.12479003232165788 1.746057951478861
O 2.270223245030686 -1.4727698498881752 2.3024003531645736
C 0.7164270050575284 2.058677620627954 -2.9388944277119995
H 1.7623897757232534 2.227013221153336 -2.7103407461704108
H 0.08933457615784955 2.6868789593355524 -2.3168895065721378
H 0.5058800181312478 2.196935102523916 -3.9922112233984683
H 2.352291740779985 -1.679942528384317 3.254012528534897
Rh 0.724341519590281 -0.5935746047853545 0.11961261884806591
I 0.2621676317467629 -0.024735594820743872 -2.458887237809108
I 1.44993924685975 1.833882902805176 0.7532969278125353
O 0.37469094671068653 -3.554349576741614 0.1414568106958619
C 0.47686342312636093 -2.3995852088954326 0.024197190715074486
O 0.15747818434612293 -1.0633935908794936 2.8835521123034806
C 1.0048792622432359 -1.0768000506479245 1.9917149018878995
