13
## STRUCTURE-ID: 6456887d57105d4f856b0e0d ; CHARGE = 0; SPIN = 1
I -1.2350600121280657 -0.32037090843568594 2.430560556802725
C -1.3701585758893589 -0.022860701540922235 -0.9752224299185928
H -0.9401701911951756 0.21756549567426262 -1.9515371874597243
H -2.1419991718748927 0.6946129225666365 -0.6926739098438094
H -1.7722537432247296 -1.035777424813985 -0.957242369222512
H -1.0012795022563803 3.2633052783193874 1.563389179509345
Rh 0.22237600979716715 0.16665740875476295 0.3539899193402383
I 0.16493940299670493 2.936064925188268 0.5355784581642452
I 3.242407662735973 -0.5167855068453964 1.2166356666156593
O 0.5399536291102527 -2.8489058108073153 0.24255857963994015
C 0.7790984613169077 -1.7137092176791315 0.037524098962716974
O 1.7071415715049303 0.027895231415328063 -1.3254479896603735
C 1.8050044591066663 -0.8476916917962048 -0.47811257292986026
