12
## STRUCTURE-ID: 64566874f029967f89610ab0 ; CHARGE = 0; SPIN = 1
O -0.7163028911869851 -0.5270137233245539 -0.2612539364211864
C -1.6335816142927804 0.144807478894156 0.504079315844757
H -1.5046668373867549 1.2389683283761335 0.4576770804810591
H -1.5817955329422158 -0.16492761771944772 1.5611256593139158
H -2.648421698352514 -0.08591345015468267 0.14730878595614305
H 0.08670691034263701 0.16999323468699673 -1.2077270338566524
O 1.043574392370076 0.5007030281768595 -1.4416795253278156
C 1.2631951877173355 -0.23579428210164172 0.39782277791777215
H 1.2523859857983766 -1.3110030452772405 0.3954107209606553
H 0.7464878881077983 0.2254706144982797 1.2220515858549734
H 2.2354557578164687 0.2078315297149688 0.23075694747495304
H 1.4569624520085611 -0.16312209576984074 -2.005572378198572
