18
## STRUCTURE-ID: 64568ad17484064518630f10 ; CHARGE = -1; SPIN = 1
I -1.4748656587552729 -2.3033073306016494 -1.586362161164212
C -2.553410640803254 -0.44229265979801385 1.1836206786507748
H -3.052933944517629 -1.4099501289114797 1.2394524135343044
H -3.099363016545304 0.19089471061712585 0.4686976517911938
H -2.5753152539507296 0.03842218208686392 2.162218719019176
O -1.2528906882778101 1.2005363761987429 -2.091658625097208
C 3.381333141543102 0.5519057214219956 -0.07797147278006447
H 3.185976829223023 1.1213849159099716 0.8230968503720097
H 2.9481369830602127 1.0370144785514575 -0.9446854768490719
H 4.438484138563537 0.3647349761501366 -0.2134569904060161
H -1.0282850294287373 1.6583409161956029 -2.926025913360478
Rh -0.6976850269723035 -0.3794059762806258 0.11999909825583294
I -0.035595355655937064 1.9923969177472356 1.1710760221437175
I 2.4006272184919224 -1.3597131640824047 0.119911729661712
O 0.8870782732917172 0.5737560192385602 -2.1457723836257068
C -0.19355814481074138 0.5378168981153715 -1.5746280548443048
O -0.5726882324262039 -2.008685901692634 2.608380824394185
C -0.7050455920296107 -1.3638489508662677 1.664107090304172
