9
## STRUCTURE-ID: 64568ba9dc184c763e333be3 ; CHARGE = 0; SPIN = 1
I -3.5448952440391084 -0.9671651568500065 1.1229672664490273
O 1.8117550874785604 0.2634875377085524 -0.1496404011025776
H 2.4851192958540893 0.8472241656269247 0.2706577770465573
Rh -1.244295044535717 -0.41720030281214615 0.3707273748790787
I 0.1578394209140922 -1.8978255613288024 1.9064402472522257
O -0.15660958138881545 -0.18043474754774935 -2.3717335546894125
C -0.3155122465697824 -0.15362296664009265 -1.2143381124551957
O 0.20078027500563778 1.7895502186469257 0.22378385550903734
C 0.6058180372810408 0.7159868131963952 -0.1588644528887383
