17
## STRUCTURE-ID: 64568b6157df0f23787ffa83 ; CHARGE = 0; SPIN = 1
C -2.529291578705227 0.4617338040591483 0.07549643224776774
H -2.7070818741429905 1.5141329900245215 0.16610157867732644
H -2.646376053145222 -0.008019051718009896 -0.8811395364388275
H -2.615507125421251 -0.15385565029104145 0.9480233900620726
O 0.1920923846440405 -1.955042045422788 0.4870440351196162
C -0.17361084078322261 0.7409208088866935 -1.8147034424672719
H -0.6885174358194679 0.6296292257452895 -0.8431558068862693
H -0.38452871101468966 -0.10633784606808097 -2.4593026568002188
H -0.45907716815726535 1.6741083266543384 -2.2898268253142406
H 0.08058289834478337 -2.906717407002081 0.2737695143913233
Rh 2.123987720768935 0.15545589308068775 1.131213705108888
I 1.9762466986836824 0.8079962482703168 -1.5142560697271576
I 4.259871226560904 1.374579906763729 1.9980232268559734
O -0.6828289699025808 1.0022750297370724 1.5828066178868945
C 0.4274342507597461 0.7066418357324301 1.6359655728438802
O 2.4030399445367006 -2.3312119743325774 0.752504442168623
C 1.4235646327931177 -1.6062900941196436 0.7514358222716218
