13
## STRUCTURE-ID: 64568aa7bd41dd2ffd0b5350 ; CHARGE = -1; SPIN = 1
I -0.9441529178618205 3.5218007344082665 0.7301224427019827
O 0.9689222836643087 1.2475852171684938 0.09203547728145679
C -1.9539920534991526 1.891506786598366 -0.15196335231126376
H -1.462163542286153 1.6529296730855363 -1.08842698881336
H -2.9977736432701336 2.1550489273003572 -0.2805173058059127
H 1.8385592167633376 1.5188441950795566 0.3964804191575019
Rh 0.5417747608837047 -0.8047884912319065 -0.010820879541269096
I -0.49942397831465113 -0.8688073559147507 -2.5033472962479353
I -1.8693646759768863 0.10586561762487853 1.0778538780934892
O 0.581645728075756 -3.4962989058546405 1.3534721689437652
C 0.6913965047054557 -2.519382178885379 0.6901132174107572
O 3.0367411336262653 -2.5109492448627053 -0.2982904180567414
C 2.067831183489982 -1.8933549745160645 -0.006711362812478454
