12
## STRUCTURE-ID: 64566796c207a51408051b88 ; CHARGE = 0; SPIN = 1
O -1.2213670511877304 -0.17390819753390768 -0.9053367443734324
C -1.8374485731555812 0.0011950309885700799 0.35517751309788476
H -1.9413628302212673 1.0614533473720318 0.6023614785986428
H -1.1899714508066268 -0.4738754591821631 1.0899691487270935
H -2.8191986828153786 -0.4774992646314584 0.387427680447729
H -1.790419462051715 0.20322495745444732 -1.587305586199099
O 1.5608516485607573 0.5024806674319131 -0.9085257426069688
C 2.0464142580402944 -0.11227298510695766 0.2612637140293492
H 1.92789311197994 -1.1998868886081895 0.22096457476949416
H 1.5391767462407786 0.2695484724048542 1.1539557169720684
H 3.1072959309738546 0.12613263546688194 0.3304416279338258
H 0.6181363544426879 0.27340768394398157 -1.000393381396594
