12
## STRUCTURE-ID: 64566806edca5c7bf60b3f68 ; CHARGE = 0; SPIN = 1
O -1.1972091347989526 -0.8862783563709326 1.0901963548116078
C -0.5209047836499333 0.2347873919990563 0.8801347085272345
H 0.04770505932312089 0.5242476391842701 1.7658760041053354
H -1.0420446004147335 1.060849473187963 0.3933143979525768
H -1.9359941621187973 -1.032075823701819 0.4774214160565999
H -4.887783490036391 1.4139805217101555 -1.5590136593510104
O 2.424712899074854 0.3964943114704535 -0.38330477502806326
C 1.3681674095754754 -0.314106774559299 -0.7325015701619666
H 1.4097227004840183 -1.3982988603134932 -0.6029677631387959
H 0.9653481207090868 0.013582689168310519 -1.6922119578531767
H 0.3989956687856041 -0.009786868413434084 0.044530547428952856
H 2.9692843130666517 -0.0033953433612276657 0.31852629665071264
