21
## STRUCTURE-ID: 645674e44ef9d70e5a1fea8d ; CHARGE = -1; SPIN = 1
H -3.4341181503442897 0.9951045622800337 2.426487242094382
I -4.325444144135234 1.119991656341239 -2.5107339900816665
O -2.5474014871683406 1.3370197512022637 2.2831294990537616
C 2.1180647149755005 -1.0487953809490838 -1.667294863870833
H 2.9066716439446303 -1.0969733321349433 -2.414368877770821
H 1.6008422472903892 -2.007513823494337 -1.652548728380929
H 1.4034197867215021 -0.2887431814744454 -1.9889494610376957
H -2.309596602272185 1.8470536695771997 3.0688442658009714
O -0.9923918816223918 1.7716584181543835 -2.4142479895762166
C 2.6914496969685606 -0.7191661282207428 -0.296032382221465
H 3.4006194060593593 -1.4819833296674996 0.01267539644607483
H 1.889062734770931 -0.6794062229878857 0.45644204126760096
H 3.196397976955031 0.24350980493690869 -0.31238968859387267
H -1.959088094491455 1.6872117430570062 -2.422954025072941
Rh -0.4999945152283946 0.10837868365488129 1.0959329816424699
I 0.809506344248272 2.0743678609276843 2.2254339030248844
I -0.3787178971665027 2.059129713127356 -0.5922154366738804
O -1.5838514176226395 -1.7747496434709356 -0.9472408975643938
C -1.205777835963942 -1.0943590689228089 -0.10773275263703606
O -0.37078628217025966 -1.9113380580117467 3.296954318825573
C -0.4088662437485021 -1.1403976939245497 2.460809445326039
