18
## STRUCTURE-ID: 64568a672b1d8f1f734975aa ; CHARGE = -1; SPIN = 1
I -1.6211708520842674 -1.767766806045361 -0.019334358797973135
C -3.1300486564147842 -0.5797208682144179 -1.0261015494537893
H -3.5275132879567255 -1.175279340972042 -1.8373540385564413
H -2.649807001938412 0.32313114771870316 -1.3897173255021193
H -3.8916563427999855 -0.3330363962785531 -0.2959107354751052
O 1.2061825035145963 -2.2236792153059453 2.080176615896265
C 1.9722922009908752 1.3957136594846027 -2.2145897478915293
H 2.6496762597751933 0.9363795759212739 -1.5025084946982168
H 2.36471354280153 2.3343462999406075 -2.583703773938443
H 1.7323551664125747 0.7162554815753887 -3.0226034167994054
H 0.6256918229480377 -2.629163117968478 2.7483657682088016
Rh -0.04766124407833623 0.5483907326979096 1.167054323076352
I -2.2475966049748584 1.873464303461242 1.8915700850985102
I 0.15115870014748214 1.8200684652755825 -1.1332611633901826
O 0.5953047539419096 -0.323771236316437 3.179426171997759
C 1.2117443141713742 -0.8680581043996884 2.2225901586060814
O 2.8507742084856424 0.03098875609000709 0.6005769310002936
C 1.755560517058133 -0.07826333666439587 1.13532455061914
