12
## STRUCTURE-ID: 645665d68071303dec07102b ; CHARGE = 0; SPIN = 1
O -1.2124736316818088 -0.012745155635561587 0.043503627033181134
C -1.8056650344774594 0.4754819019025337 1.2290547977549946
H -2.139912515296046 1.5095124159461668 1.1080469074359085
H -1.039483405071408 0.43808523847277603 2.000859382291044
H -2.6510500671315054 -0.14634594663285036 1.5355713384382215
H -1.8691226119630793 0.0015366101689777533 -0.663106653848301
O 1.5604269571634655 -0.8619133247074126 0.06893415823634323
C 2.031070243912211 -0.29097859622649236 -1.1300034901724372
H 1.8684674492546196 0.7910507290246381 -1.148139226052076
H 1.5469255439891256 -0.7394680494064366 -2.003296108325133
H 3.10096151122569 -0.4901419723109128 -1.1779385138248812
H 0.6098555600761827 -0.6740738505954267 0.13651378103313624
