13
## STRUCTURE-ID: 64568ae29618ea07d23ae5dd ; CHARGE = -1; SPIN = 1
I 3.3293571613631276 -0.009860836336272587 1.3938964538241605
C -1.3730177247401405 -0.030201725419783495 0.3547316322367621
H -1.8607698770612238 -0.9290410134186706 -0.019001017658859774
H -1.8315507200868517 0.8507805486467134 -0.09141965966632905
H -1.5679098573672396 0.01224839988097972 1.4443628432952942
O 0.07826520043934362 -1.3264851324408915 -1.5437345581576127
H 0.09683841522985993 -1.342622948585136 -2.5202024881459066
Rh 0.7524073350651841 -0.07947484296800611 0.785529407844522
I 0.4977858540248393 -2.590955108057072 1.5046389250873562
O 0.012764432101474096 0.8910260195465658 -1.7939364623395089
C 0.038729169319995364 -0.07772261346963777 -1.059201987642767
O 0.9578489769513863 2.8882003961874156 0.8009080359210778
C 0.8692516347602378 1.7441088564338147 0.7434288754018176
