12
## STRUCTURE-ID: 645669e343b7c46e853d7d80 ; CHARGE = 0; SPIN = 1
O -0.9063610396151534 0.41425486068685724 -1.561548372263009
C -1.2958034067654043 -0.20037459483078335 0.29362579793423954
H -0.8516567356509159 0.31760159052473164 1.1263664360420917
H -1.291664521766269 -1.2731256577088892 0.3673183020317228
H -2.246997078252062 0.22979437473371958 0.010099270758343252
H -1.2733126824511667 -0.284745724402729 -2.114904537365728
O 0.7316049288480262 -0.5423066901656164 -0.1651840033428921
C 1.5831814843406042 0.164190197046624 0.6431759310003934
H 1.4287642565250287 -0.08301145085322124 1.7067191307166498
H 1.4754583538914923 1.2551036709782548 0.5226375060044732
H 2.6234086561475194 -0.09626401789507734 0.39690550431122995
H 0.023377784748311873 0.09888344188613014 -1.225210965827513
