34
## STRUCTURE-ID: 6456cd64be136e653776344d ; CHARGE = -2; SPIN = 1
Rh -1.5640130258784142 2.0560842582196517 0.5149235004336642
I -1.2630798261598788 3.8714710711481497 -1.3583429775997113
I -2.4158218782348886 3.7142238035531805 2.3776603814614536
O -1.4528947996072599 -0.4005310966680899 2.1804283299534974
C -1.5766392521490045 0.6185316306112196 1.6352817273412932
O -1.3450472359091876 -0.445961611435167 -0.9406439312089994
C -0.9363363917097233 0.6384239169117986 -0.6510747153710791
H -4.508967878329353 3.5573690600627548 -0.2668664046903169
I -4.317321251015872 1.9748139649175775 -0.30757809368776223
C -6.5022878068184475 2.0381892941293565 -0.9675477144748738
H -6.820742422617071 1.0091673131254384 -1.1008474322752815
H -7.052937412959322 2.531745951091784 -0.17196717621924468
H -6.522424315675674 2.5867673126666135 -1.904829154333264
O 3.0608240208387554 -3.822921322071705 2.1096056400294874
C -0.09383541147383322 -3.101640818310422 -0.35374597323619394
H 0.22022083482705412 -4.136648311996075 -0.2948375854276897
H -1.0057155301294673 -2.999366662254141 -0.9303043687566492
H -0.23055574221098418 -2.6936774607933427 0.6453055666965664
H 3.7743862984688805 -4.3323345041197925 1.6926842543886524
Rh 1.0811613831104965 0.6720112638638008 -1.3849259989591396
I 0.30093058629717645 0.5861216289026846 -3.9057880101063187
I 1.46373396827493 -1.9806977877385208 -1.279086918969409
O 1.1217191713709902 1.2771393665611936 1.4922645977546602
C 1.7411351322007567 0.8495397201947659 0.515275519322292
O 2.1265709329321765 3.421000121242575 -1.0857787174859794
C 1.5474228081187438 2.444569381632146 -1.2950420196565922
O 3.077124895362756 0.6257899530686692 0.690429977428184
H 3.364924745348735 0.8722653042882055 1.5920759479200517
Rh 3.737549861929131 -1.8546137099870947 -0.041003719605042906
I 4.187796723089244 -0.4845074201397373 -2.321345769612586
O 1.9809653519404222 -1.9020679325497165 2.0379583045033605
C 2.880183443162303 -2.5905223618033726 1.5464853179477749
O 6.508337405960155 -2.396154947674554 0.9554965323008877
C 5.433632617645272 -2.2035783686543824 0.5756810841912219
