13
## STRUCTURE-ID: 64568c26350c58099a32badd ; CHARGE = -1; SPIN = 1
I -1.6731137234006237 1.176817757524647 -2.1548523936770443
C -1.2834503820328536 -0.8620124120368152 1.074198431143147
H -2.2013278971175008 -0.5989852342791325 0.5317478976764513
H -1.444112501542067 -0.5932448288174358 2.1175416620442657
H -1.1161452181290505 -1.9338506637271817 0.9790912358748795
O 2.849037762619596 1.1783758300192522 -2.4408135119200582
Rh 0.03772758920169682 0.47053123478631315 -0.14723690689348956
I -0.47558117514138476 2.5587724791216586 1.4067105626054865
I 1.9457207279531195 2.1116680815897175 -1.106714592931173
O 0.8660531579559079 -1.3990178701629579 -2.3298754046301378
C 0.5214398440194044 -0.7546196415999722 -1.4547665445242515
O 1.2543780197840844 -0.9354808560684578 2.1992804814702427
C 0.719373795829681 -0.4189538763496393 1.3256890837616966
