12
## STRUCTURE-ID: 64568f090c16c633ee610ab0 ; CHARGE = 0; SPIN = 1
C -1.2228660007560672 -0.2593572283326771 0.5239115555613889
H -1.1067347016423217 -0.4279195064718987 1.593149910057834
H -1.6334220571763316 -1.1658243233554486 0.07445785708625204
H -1.9682587938393628 0.544931180774253 0.333328786941267
O 0.32424956704665103 -0.9873278168641998 -1.4971364547835653
Rh 0.25003200294453104 1.0369202419368406 -0.3595820848686163
I 1.1175571195434177 2.7979404893766997 -1.9490808272766316
I 0.8132030459315972 -2.7566592726435446 -2.5708235782724844
O 1.0624100215761825 -1.6591092402489702 0.5419026967384527
C 0.4775369716271071 -0.941428504499307 -0.20556771337379667
O 1.1351720222841406 2.1256745177255874 2.2465341624769977
C 0.7511208024604533 1.6921594626026608 1.2689056897128976
