21
## STRUCTURE-ID: 64567c2e7630ac0b202fdd88 ; CHARGE = -2; SPIN = 1
O -1.1715254948861085 -2.619546530893081 -0.6346095010110071
C -1.1527537023053192 1.0513213342331311 2.092988023295633
H -0.7438023527645091 0.3874679909768509 1.3152164210608306
H -2.1851329444069636 0.8001786442438179 2.3032443316251014
H -0.5463821032324184 0.9997833738243356 2.9896509168521366
H -1.9477350209616733 -2.8876134935804894 -0.1301645057488326
Rh -1.2611989634345258 -0.756935565281097 -1.3740906955525258
I -1.0783988677728946 3.0391893112836312 1.3534796754049243
I -3.6013204621380845 -0.4362253232958233 -0.3146221867307905
O -1.1997154367586134 2.022000089172165 -2.45415808854728
C -1.2587120600333188 0.9488014853915839 -2.025844137963721
O 0.9728621012370157 -1.3053858829248224 -3.283489075998699
C 0.15075075009892747 -1.1325894905536176 -2.487118524857
O 1.8287757585557975 1.7573828892712056 1.3497798099033829
H 2.1062021505400814 1.74321928168843 2.2733811858322457
Rh 1.7240619478812225 -0.06145250112996298 0.4951270331214553
I 2.014684323082568 -1.2059234774167 2.79429511821936
O 1.842193093593405 1.3457021964867573 -2.137217714339296
C 1.7370903353597704 0.8016565502973335 -1.1215669033575237
O 1.9890296451960467 -2.770224109210839 -0.7235201127519396
C 1.7810273031495765 -1.7208067725828018 -0.2807610684564226
