19
## STRUCTURE-ID: 64567ae4be23556154230d84 ; CHARGE = 0; SPIN = 1
H -3.62313734881248 2.1439097841806354 -1.524242091378677
I -2.1710479985551823 2.753921386343155 -1.5740274122852762
C -0.2365592191284809 0.09981047856137726 2.857590975037795
H 0.4792259757104484 -0.15317525934155926 2.083232921860954
H -0.05694311410553304 1.1160532967541563 3.185794272875212
H -1.2453301628863334 0.01697648757033694 2.4736541957099387
O 1.9099540352837803 -0.6555431225007452 0.2785688889932616
C -1.2256373464065737 -2.5982380908836453 -0.15012329692516949
H -0.10727904889163214 -0.574350426964897 3.6939581862490773
H -1.1611235406376486 -2.7987260478055225 0.904333899948967
H -1.2884756866518141 -3.3847239441134054 -0.881182114885363
H 2.3435374020975273 -1.5011607300682708 0.1200314343482442
Rh 1.343117211657969 0.3464529955292095 -1.3568708388286927
I 2.015317473826956 -1.6609462774294526 -2.8987292036007624
I -1.1504039826133203 -0.6926107471549853 -0.7642477395965466
O 1.1829382997216582 2.6228860379833394 0.5787755580378393
C 1.1929249383823564 1.7960682426188992 -0.2003322358088301
O 0.8298486775045525 1.8294518848731216 -3.912202579515446
C 0.969073434503756 1.2939440518482554 -2.9139828202364897
