13
## STRUCTURE-ID: 64566e20909c4d2f042abdca ; CHARGE = 0; SPIN = 1
I -1.5877138278603227 1.3382262170945665 -0.3795833425778336
C -2.658931276434158 -0.5556278228728869 -0.2645537362390076
H -3.7165675850914344 -0.32127563087478295 -0.30464692048190667
H -2.3950454688328633 -1.0254713829212183 0.6781646631020335
H -2.3531246583796723 -1.1542534306719112 -1.1164812473218915
H 0.6876439338847159 -2.8630046798922817 -0.48708611111582506
Rh 0.9464379360595473 0.8129855487005468 0.3970841218535451
I 1.0061524420473202 -1.7249527320233877 -1.5368162411647965
I 0.1809507088844344 -0.6789155329745904 2.428345981025507
O 3.5863511088945073 0.6909081958421314 1.786415541527961
C 2.5897356711618675 0.7400970022065797 1.2261487580461352
O 2.0919970796735776 2.7414946425423645 -1.5811869207750062
C 1.6221139359924628 1.9997896058448712 -0.8458045458789082
