16
## STRUCTURE-ID: 6456765b9a7290782641e594 ; CHARGE = -1; SPIN = 1
H -1.7882234237996635 0.29461830643284354 2.2919052803744395
I -2.338369308877494 3.334555953759837 1.061102663182584
O -0.8333456863551051 0.15025984578088475 2.2530336926473247
C -1.0352702918195584 -1.0369164342866413 -0.8576550399688491
H -0.6803140740573449 -1.6245741259063802 -1.715265096531115
H -1.824217970062552 -0.3754423965966236 -1.2300139866821778
H -1.4983664063935247 -1.7379778980782314 -0.15462500853858682
H -0.4766611849152289 0.5570423612354717 3.0532658189162984
O 1.027621168297132 1.415787785300402 -2.14720574272875
Rh 0.5322714507797118 -0.011940992132552522 0.09664939372279882
I 2.6176916702425093 1.2281233373428944 1.267584066739516
I -0.44087084317998515 2.2966620407445157 -0.66413411020442
O 2.1176263655613052 -0.5284394947057353 -2.173538794347802
C 1.3687603246532374 0.29855985715153216 -1.686402101767874
O 1.9092991812887732 -2.627931713086305 0.32749507691257895
C 1.3423690286378058 -1.6323864329558728 0.2778038882740838
