12
## STRUCTURE-ID: 645665b6b42a833a1d2648b0 ; CHARGE = 0; SPIN = 1
O -1.1379965276962283 1.3955944698853355 -0.4281278228434978
C -1.1717810684829888 -0.32965514338617097 0.5698844384904722
H -2.2224266891635933 -0.19044852739963075 0.35357535031193343
H -0.9042636181991074 -0.19927459367734227 1.6031704057619915
H -0.7784393849507689 -1.2165884783742626 0.10338258878399406
H -1.3863962063738542 2.0498888764776777 0.23500986388372522
O 0.8183415834241675 0.3084550382839003 0.3060332117158942
C 1.5568925931184554 -0.5636955775351651 -0.45031274901690393
H 1.1790866424900972 -0.6556339768439682 -1.4822377065828665
H 1.5795763277516515 -1.5699021238739752 0.00033726266345998255
H 2.5970978052813902 -0.2099075542692096 -0.5074663146797102
H -0.12969145719921774 1.1811675907128005 -0.30324852848848355
