18
## STRUCTURE-ID: 64567258c099543f2264e488 ; CHARGE = -1; SPIN = 1
I -3.0385640878516087 -1.121050050544445 -2.8636214564112183
C -3.01309027100913 -0.3959027665753696 -0.8526298822734144
H -4.005830875155473 -0.04312138211656738 -0.6074556187771245
H -2.2885260780712926 0.4080811416692623 -0.7988668540273558
H -2.716981167246445 -1.2094480326199617 -0.2014413428874898
O 2.0660981121273543 1.2199648606208302 -0.48939089636510463
C 1.4157773004759118 1.319689797855973 2.6483725844797936
H 1.94734116505524 1.5764648725264636 1.7376186375566094
H 1.9844592981698583 0.6159709757763946 3.2439428436127216
H 1.1401509718240679 2.2008801209267532 3.2116933557671414
H 2.907027296309578 1.2131449565535108 -0.9536375265820788
Rh 1.0455442748710333 -0.6220886376515533 -0.5717183647909252
I -0.39300882614308136 0.3376834154016172 2.0325462039044275
I 2.9039091042378224 -1.820464458302999 0.8632435000319458
O -0.4385053670183776 -3.173951902349304 -1.0071479172323756
C 0.12610221865627147 -2.1812336092011635 -0.8228773482904462
O 0.0520507647171959 1.2434956006514863 -2.6738009738059407
C 0.3060461660510123 0.43188509737908526 -1.894828943909128
