21
## STRUCTURE-ID: 645679b2bc184063c90b39d9 ; CHARGE = -1; SPIN = 1
H -3.2919240331896176 1.36279315841468 -0.22885404807501708
I -3.2457724766687726 -0.1396910409126167 0.30549461507460274
O -1.9676965118653296 -0.6702067039105573 3.591923177925381
C 0.29636663794205603 -0.015512560989113603 -1.5383819974538273
H 0.34086805450374474 1.0467903020466314 -1.743692808160744
H -0.4805586524105443 -0.48220496868237966 -2.13058073452216
H 0.07860422596556688 -0.16947170298209355 -0.455815376128555
H -1.3709228656443972 -0.7854324235226108 4.333161013048555
O 1.9812958310902158 -0.5262750108435048 1.6155657231862557
C 0.7818467409673422 1.6485435684740701 -3.8882547729361137
H 1.2522168077345015 -0.47583767423341405 -1.7518588331961824
H -0.24583799121050512 1.813020771565917 -4.1483690686557715
H 1.3491043624603067 2.4725536784103634 -3.4989965818535063
H 2.8623707457053067 -0.5502369399592694 2.0426657765053555
Rh -0.78834655720091 -0.399182958297825 1.6514155729262805
I 1.823231170220183 0.4497372437929968 -5.226303948242769
I -0.4789492811062964 2.1994126200415773 1.8204860817121733
O -0.4450941599001161 -3.358492307257855 1.5701845545482152
C -0.6149185293957287 -2.2193412972192235 1.4790867517967785
O 1.185733875269406 -0.6533165640836573 3.696705955346334
C 0.9783826067334833 -0.5476491898519343 2.504418947154794
