21
## STRUCTURE-ID: 64567948742a9f2dd41f8bdf ; CHARGE = -1; SPIN = 1
H -3.7910102287513974 -1.4647389499827974 -0.9524036961845284
I -2.8453909469465315 -1.5069505280619833 0.33482813370139436
O -1.230516739855251 -0.7136191359788174 2.881144548922699
C -0.6685517972655325 0.8504360320424503 -1.1587979427069137
H -1.290116325156926 1.6339121867786441 -0.7453287590864163
H -1.124834601856247 0.31121034504240813 -1.9786265324196066
H -0.30787015446574867 0.1304925550480532 -0.3140031740595112
H -1.5258839716796535 -0.8590790829795525 3.800507477648452
O 2.003437831893133 -0.3106096836808698 -0.8887476248579044
C 0.5890602864539513 2.156987038654955 -2.132397270517621
H 0.433241409565724 1.145588235913238 -1.41149001930997
H -0.16400890477016594 2.3795211644223166 -2.876745888335367
H 0.7764107191531382 2.954040445975287 -1.4183706293525806
H 2.6640370417250874 -0.9782846017046563 -1.0770942601633773
Rh 0.9185982058785968 -0.6641618878564853 0.9928645410961198
I 2.360908765629183 1.5024850937710539 -3.042116449887225
I 1.273203439306745 1.8381093539216495 1.6951608208442892
O 0.7026808267854963 -1.3778556745848536 3.7540828468884193
C 0.1134100000418534 -0.9742495369933115 2.7439841590562155
O 0.4646120486651897 -3.602226803461191 0.9572898669362169
C 0.6485830956491326 -2.45100656628544 0.8362598517873205
