13
## STRUCTURE-ID: 64566dfb94b9ec1de4750eea ; CHARGE = 0; SPIN = 1
Rh -0.4528660420456829 -0.006477186584590061 0.17525647306039224
I -1.8043270524430022 2.2324728501931785 -0.49976681960069164
I 0.28356812338567366 1.0810079633812355 2.5283655651178303
O -2.9840980379542437 -0.3733764961968831 1.9307490031402108
C -2.062767557808735 -0.46363882717765553 1.2783817267460529
O -1.1537724443692647 -0.9262202674204029 -2.5804357375488256
C -0.9048534635324973 -0.6262932043380021 -1.514988748787365
H 2.0518788867661986 -1.8578166475227402 1.8914259742288453
I 1.0148117393288254 -2.352656340890625 0.7935142471889257
C 1.257986641914261 0.7220206983484074 -0.8677980937335094
H 1.036720077288573 1.5408591865730803 -1.5547279302919792
H 1.9743982581306145 1.0977382491708674 -0.13193414637069606
H 1.7433208713393251 -0.06761997753576313 -1.4480415131491988
