12
## STRUCTURE-ID: 64566b944a82cc1fd2230d76 ; CHARGE = 0; SPIN = 1
O -1.228008354291897 -0.7218723530424205 -0.7276783223159339
C -0.33204168760742886 -0.8100235152915586 1.3524381126028868
H -1.366043383636928 -0.6126384333622193 1.5776532329412634
H 0.34812528797505643 -0.5509261591260337 2.161173752926267
H -0.15165461272136868 -1.7828841807242053 0.928292696722878
H -1.84647683086815 0.010427427725576484 -0.7092221962076585
O 0.9204583248460795 0.921347471754288 0.2676611167692536
C 0.9039574062395025 0.8824080981203993 -1.0955080560176973
H 0.09672417283135094 0.13994793280658208 -1.3553876686568944
H 1.8484211929557355 0.5191082328139965 -1.510074438106451
H 0.6060517429194576 1.8433986764615837 -1.5249627783715711
H 0.20048674135857805 0.16170680186401185 0.6356145477136543
