12
## STRUCTURE-ID: 6456674af5f4ff27b44efcc1 ; CHARGE = 0; SPIN = 1
O -0.15055452919849707 -0.9703898651485938 -3.017824231154607
C -1.5690915456857133 0.3487979872528565 1.8346968871674982
H -1.0591685352609854 0.26198044106376844 2.7852806502036604
H -2.202117616211693 -0.5162378801442284 1.6861107111242994
H -2.1763023592645827 1.2445007157536647 1.8319318607378552
H -1.0945532469490018 -0.8050122887369388 -2.9572561737289638
O 1.0756909079416697 0.18995606206055504 -0.5985015059365147
C 2.221194574804434 0.15477807797427648 -0.24254841200149935
H -0.8409731035106739 0.4036022430845017 1.036020376168245
H 2.5673027182101604 0.6789911104124315 0.6583713479382194
H 2.98847593960468 -0.4031338215994155 -0.7960451763588743
H 0.2400967955202171 -0.5878327819728912 -2.220236334159326
