18
## STRUCTURE-ID: 64567086cb8b913c903ae5e6 ; CHARGE = -1; SPIN = 1
I -4.538737406299183 -0.20329258356638175 -0.08666748265390377
C -1.8845448665032218 -0.5290131361083094 0.1275189991939342
H -2.0227862398504315 -0.10612961441620085 1.1074245627376853
H -1.852633422113907 0.11866104294088041 -0.7360296970314747
H -2.1041557309469563 -1.5725971759372896 -0.022659774848734354
O 1.8042949685932077 0.07261410510287705 2.5052048062889694
C 1.3477560205317094 1.9178866979922737 -2.6715545103682605
H 0.429570168775501 1.609391736337618 -3.1592462918044215
H 2.1580514223406366 1.2433602498132976 -2.925577440851817
H 1.5938379231054527 2.9491029997525477 -2.896274237966977
H 1.8915757103874784 0.4066794004473474 3.420363286238301
Rh 0.452644429340118 -0.6868406315976375 0.2502769465925717
I 0.8053818328449432 -1.7221320053110938 -2.1663968254953394
I 1.0283043540332057 1.7886061385856096 -0.5090427653745497
O -0.3833718227715892 0.31406159992157845 2.8724300936400495
C 0.5106712835450835 -0.008592403776300864 2.109636221307122
O 0.3813503801988919 -3.292449642076489 1.6845727585908812
C 0.3827909947890672 -2.299316778104314 1.0960213518059698
