12
## STRUCTURE-ID: 6456685c4c665644f6324931 ; CHARGE = 0; SPIN = 1
O -0.9665828107185774 1.018208211116841 0.18772486805077052
C -1.1158529531863945 1.1490386300596722 1.3769233291229237
H 1.1124065308597446 -0.3196358602831388 2.1340424359643864
H -1.5143961225807088 0.34508154867204993 2.010026967619313
H -0.978177244719973 2.1130147680769853 1.8839706846849336
H -0.2620106495535732 -0.4723013595589744 -1.6510344523137417
O 0.9284896622324366 0.6200427889107187 2.2384127410494234
C 0.19034007472019357 -1.203803479884743 -2.308498038661592
H 0.24362425503549387 -2.1606074785404243 -1.805567095893524
H 1.1873270388700867 -0.8805618191396348 -2.5781821809630734
H -0.4095962545084047 -1.3017509654279502 -3.2037665656595706
H 1.5844284735496614 1.0932750159986124 1.715947306999781
