18
## STRUCTURE-ID: 64568c0d44b4e432345fdaba ; CHARGE = -1; SPIN = 1
I -3.122397271835785 1.212156502709613 -1.118371433935087
C -0.5141881814630688 2.3275936720457007 0.8579522714604793
H 0.24225133038432076 2.528542024948292 0.10082009809343301
H -1.4158614978907154 2.907095172580342 0.6836494958857694
H -0.12364027619527322 2.4690927224051045 1.8600650743997638
O 1.1772925039680995 1.0334410868389012 -1.3319312360689746
C 0.6367019306599051 -0.1587926274527235 2.0565632348742096
H 1.5439165670765203 0.2909853655852126 1.6664225215649566
H 0.7541472936442181 -1.2370436674343501 2.1063221929244214
H 0.3876622448153204 0.23402243181991791 3.034784308735294
H 1.6202003068587931 1.2987817173522913 -2.1413924579443444
Rh 0.4019242929768021 -0.8757538577950253 -1.280101701130339
I -0.9500402703574367 0.23896329923772283 0.658395822670405
I 2.1926660349432407 -1.77455284223714 -2.9417446159504297
O -0.01158802045252654 -3.1720208203540805 0.5216179420246112
C -0.22981802307370372 -2.5651959777344264 -0.5169970164789766
O -1.6674715568576113 -2.4594385559356087 -2.578741066704389
C -0.9217574072011518 -2.2978756465797403 -1.6373134344207863
