31
## STRUCTURE-ID: 6456f61f9de82c3c8a324931 ; CHARGE = -3; SPIN = 1
I -3.7871191868364478 -1.0347794958533951 2.213756651087185
O -0.9308626160522764 -1.2253973793826436 -3.298465523548568
H -1.1343071415552397 -1.0090135952257784 -4.21983474010498
Rh -2.578814274488382 0.9046194898070911 0.9805857488248158
I -5.710745424496539 0.7775049494806352 -3.294645332970753
I -3.852463357899295 1.1684339538264197 -1.197707757495335
O -2.0093558420986604 3.402597218466468 -0.37356280957490084
C -1.8027389115397168 2.178123047732501 -0.28877165115723663
O -3.5316096855673815 3.408957478992987 2.222965966213963
C -3.2619290185235896 2.3595571826451742 1.7930505166334016
O -1.3797595535344698 -0.45398137980071024 -0.3420368010871963
C 3.3292638283537306 -4.105533666287367 2.3310276660728237
H 3.070297909027763 -4.76854201544969 3.1525256082838404
H 4.402461443135328 -3.989827546325401 2.2179156553737958
H 2.853642626982372 -4.389744689344825 1.3936247872844918
H -1.0592438981743393 -2.1850741041829425 -3.24298939647578
Rh 1.9473940707520567 -0.3346045227155322 0.9986062727321132
I 3.4525390599513597 1.4619723616212932 2.260421299240534
I 2.53422038206681 -2.10455558839165 2.8970796692339906
O -0.20910447291405485 0.12923953067991797 1.9955509092719534
C 0.18837586911920212 0.7908170786290171 0.9622874703593343
O 1.9917873546331097 2.028159727296069 -0.758766128593821
C 1.8147539494393465 0.8979717994870158 -0.4065245189325554
O 0.319694102247203 2.2112662610859473 1.19396058486785
H 0.715058323405995 2.3386500877295044 2.076166580330288
Rh 0.858182457170445 -0.16232307790755726 -1.7612924098531377
I 1.776364564213671 -2.4140714921764492 -0.8346328575671201
O -0.7980767088313966 1.690085010304672 -1.1039572596276988
C -0.4440223517733603 0.4511709030388285 -0.36748034566205806
O 1.5101880083797394 1.5391061968096345 -3.75770828732135
C 1.7259284954073082 0.4392162754102849 -3.441149565838162
