12
## STRUCTURE-ID: 645667c620b15752d640f201 ; CHARGE = 0; SPIN = 1
O -1.1341866018998499 0.23724837394185008 -0.49447506298536587
C -2.2489588723198333 -0.1792147985458563 -0.3396292359574308
H -2.8873975436653208 -0.4687934753347652 -1.1851102258837334
H -2.693888854652456 -0.2946184021820496 0.6578998145615812
H 0.7556148293457234 -0.058248619125991496 1.172085222067299
H -0.16422696616648055 0.5832401416382086 -2.185921393642974
O 0.28781271513095835 0.7338273165007196 -3.0275238838945366
C 1.5325283235947857 -0.3267844400115076 1.8758325900115738
H 1.138511929067147 -1.0263388787721015 2.6014579788311987
H 1.8814878706768765 0.5621175787753326 2.3847998738706417
H 2.3567172279491917 -0.7852719304516237 1.345145907192383
H 1.1759859429392674 1.0228371335677737 -2.8045615841706355
