12
## STRUCTURE-ID: 64566bb3c52ef6125a3eaddb ; CHARGE = 0; SPIN = 1
O -0.13041688980346666 0.7590635863399058 0.5687648643240134
C -1.3803714467945434 0.07317236779781465 0.3016654110985347
H -1.6230473074594993 -0.5224575643567619 1.1802084398241994
H -1.3273102758215012 -0.5547526422151292 -0.5865110939544762
H -2.143524941331801 0.8362508465909372 0.16146011512540243
H 1.241236820165439 -1.3587330153987607 -0.6106360031167638
O 1.6539325758828738 -0.5714985042984289 -0.2280913541940726
C 1.0396626802514861 -0.11993645770231089 0.889502501340985
H 0.11522060868355302 1.3137589970560044 -0.20824440776688233
H 1.728758995268287 0.5466111005343245 1.4172007840236818
H 0.6444775965862397 -0.8921860393686887 1.556271771217298
H 0.1813815843729529 0.49070732502104847 -4.441591027921913
