12
## STRUCTURE-ID: 6456b65499a92f7d7c5eb014 ; CHARGE = -1; SPIN = 1
C -2.512096353195361 -0.0449543260929901 -0.039877660470882495
O -3.6161382701814873 -0.24639945053691487 0.13615653091296231
I -0.1867647558333366 -0.4039046952257292 -2.701182687180047
O 1.9854251939863925 -1.3304967792707614 0.3260798458384556
H 2.964292904420794 -1.3324384717715014 0.3716106669968032
Rh -0.5393369600932223 -0.0033232796483699204 -0.05438778097754453
I -0.41066740623845166 0.5768906144895248 2.5827778638632393
I -0.9696635369621776 -2.6197437983980425 0.40940921995420754
O 2.20672328803646 0.8342376518099689 -0.1065996357974319
C 1.479948610602498 -0.13246378764959774 0.05680964799006829
O -0.10722930161627314 2.9022219648102925 -0.5922404440631138
C -0.29449341292582365 1.8003743574840194 -0.38855556706666655
