13
## STRUCTURE-ID: 64568b36348f9b52bd159870 ; CHARGE = -1; SPIN = 1
I -3.1893658528828155 -1.211124701187882 0.5700161527535424
C -0.9899295960892496 0.7302654508637739 -1.265193813162552
H -1.718895229532397 1.4934802415795525 -0.994961936204951
H -1.3783908287768858 0.13383264630489117 -2.101806161616074
H -0.04640806570049423 1.2056654139338383 -1.547198173628379
O 2.0319899067681417 0.1609430642530362 -0.0655793895531117
H 2.9583304779002018 -0.1568566970840946 -0.0070245514311363276
Rh -0.6517767654982531 -0.6925512878481 0.2151271066859617
I -0.005690344899235234 -3.046887618958832 -0.7680653933234762
O 1.7093527018078654 -0.8550950326404569 1.9087929531579588
C 1.282080258307918 -0.22127622791161508 0.9586392485017862
O 0.06816922253040136 1.7168756375118277 1.8778934850766764
C -0.06946588393521189 0.7427291111840094 1.2193604727439493
