17
## STRUCTURE-ID: 64568d01b7f68970144dd530 ; CHARGE = 0; SPIN = 1
C -1.4869659268191806 -1.1198242836312386 0.6712551096458764
H -2.059945627386041 -0.2158399401217465 0.48999178685135253
H -1.5987299230945742 -1.7878959536493702 -0.19621593495343487
H -1.85224856807852 -1.6258029426789073 1.5633963067410934
O 1.8001639771874196 2.465069695633189 -2.1297073850780053
C -0.6591253586859283 1.98022054404027 -1.001968479915707
H -0.4506850987148496 2.8396512961331153 -1.625274049549887
H -0.6199006056894611 2.242592929131705 0.048096268739894324
H -1.600507450406646 1.5157900631652423 -1.2701271580778424
H 2.609280101554556 2.2947369581184516 -2.612237382395124
Rh 0.7394858056056188 -1.1670133748602638 0.49043517502380235
I 1.5862342412427601 -2.8816600226673943 -1.3382899614013055
I 0.9041876751756907 0.5822972015758316 -1.4184748315071927
O -0.4320893629055104 0.7057191542879263 2.489428615389183
C -0.06925964948157728 -0.045746256707154626 1.7009444840208345
O 1.772321317167642 -3.339415471841653 2.3708333010879534
C 1.4177844533285737 -2.442879595928029 1.7679141353785397
