12
## STRUCTURE-ID: 6456686944b715305a662c68 ; CHARGE = 0; SPIN = 1
O -1.6195621458662788 0.9713987014111929 0.5061293321896261
C -1.8240934423417978 -0.3747683630506575 0.8667730726188403
H -1.5893120071047766 -1.0517116994894955 0.038847278732453944
H -2.8782879279063973 -0.47942365340004656 1.1206695400126738
H -1.219706029620972 -0.6526795857538791 1.736144796540263
H -0.6807765156127101 1.081243048308531 0.27876734998173647
O 1.1972807584656935 0.795934468554131 -0.06795150981868994
C 1.6012720038444188 -0.13832954179619664 -1.0475288583378328
H 0.7382659887930099 -0.3178164835101053 -1.686177720605446
H 1.9105753002926502 -1.0833939021494756 -0.592005575271123
H 2.417440261350689 0.2544258677260301 -1.6594268787998867
H 1.9469037557064637 0.9951211431499686 0.5057591727573952
