21
## STRUCTURE-ID: 645676a72520743d8a4d3041 ; CHARGE = -1; SPIN = 1
H 0.7298056409671894 2.0012371053566516 1.7712184329879166
I -1.0089192590418394 -1.269843134798348 0.20820086063442245
O -2.1188687345772617 2.0807856163161214 -0.9618644579912814
C -1.9839671856971497 -1.414817941207974 -1.6907025404044587
H -1.581803826929549 -0.6313591959831455 -2.3254655332662506
H -3.0446882957255927 -1.266108807495826 -1.5358413492901346
H -1.7797182849871167 -2.3928147841672462 -2.10711106958803
H -2.781637902156729 2.648961211899923 -0.5211574248101978
O 1.32870691783244 1.3141926101441306 1.4394703304127396
C 1.8326208694097945 -2.336075290287446 2.2922332243238404
H 1.435111027107461 -3.2239213706041077 1.8204322087618798
H 2.68231413942719 -2.55783497812876 2.922941899102221
H 2.0829402370603645 -1.593699642189631 1.5466604399451183
H 2.230537344368456 1.5999449839784314 1.6301335888259716
Rh 0.534981929888237 0.9517397286417258 -0.8327802689574048
I 0.2844985205846559 -1.5157893245853538 3.518095166111686
I 2.72847010274152 -0.472300134316375 -1.3473747196558044
O -0.0014169881741984468 1.6768609297292991 -3.6743841956395613
C 0.2199846991971358 1.4174969873294474 -2.5555119748034216
O -0.8581947581610959 2.857512683418254 0.6975218129489874
C -0.9307561931339081 2.1258327469503624 -0.29471442964820654
