17
## STRUCTURE-ID: 64568e7f4e17483ccb4b65f0 ; CHARGE = 0; SPIN = 1
C -1.9651202447844103 1.064094750792832 -1.5161248695534546
H -2.2982099975437333 2.0080442952179323 -1.0940525555599083
H -2.4655508194946467 0.21968767273350048 -1.0257983093369247
H -2.1581266192698023 1.0356726244665058 -2.585301902562403
O 0.048689730845575145 -3.099523770580893 1.7624077866453285
C 1.6266954982347823 -0.9505082695314442 2.17954336713155
H 2.131684113956147 -1.805178314155089 2.6090485173893607
H 0.7838207714558306 -0.6768959556331136 2.8013901161768415
H 2.307370165438088 -0.12276189752354975 2.0194156425490672
H -0.33589814257450656 -3.851540015854349 1.3146461539522731
Rh 0.10466241642662884 0.4992111528087699 -0.9717983654525483
I 0.4111712625117056 -1.0304866638403323 -3.097029923369462
I 0.8669145744737299 -1.5843566073691904 0.2916987823761513
O 0.2870367311031674 2.025402930564766 1.6075114623159183
C 0.2385391965763281 1.4733917185703875 0.6125451286701056
O 0.23868131376899052 2.837698937896117 -2.812696421608064
C 0.17764004887569526 1.9580474114376614 -2.095404609763441
