18
## STRUCTURE-ID: 645689dfdd17fe0a3f32dfc4 ; CHARGE = -1; SPIN = 1
I -2.5800912428640506 1.0797791809392239 -0.9368026023556252
C -0.990183042114977 -2.3791062843491027 2.530495240164723
H -1.1367491178014586 -1.5071665866022175 3.1671785480816723
H 0.02388979587216474 -2.7381189648288764 2.702590052480285
H -1.716026469656931 -3.1538307900273566 2.7621217295968243
O 2.2824944959479003 2.80363001739782 -2.770766803541368
C 0.7491593156935948 2.5364738616519236 -0.5412762717729468
H 1.656890481519801 3.123903652183013 -0.5275812600598806
H 0.6192136593802234 1.9722425616900034 0.3751262947486417
H -0.1164397608764004 3.149838630879872 -0.7586893198737399
H 2.6772175025674176 2.612432463120767 -3.6226819183995547
Rh -0.6712777098138306 -0.6356060359310942 -1.2073224216230711
I 0.7701587980790306 -2.4603639987206747 -2.3384488615943693
I 1.0101529460002605 1.145991921072324 -2.124735471703103
O 0.659296034914358 -0.28005519393860095 1.2487316204558898
C -0.1904761019663104 -0.8786320646690734 0.6200729206344833
O -1.9291998981633653 -2.4300414263617163 0.31516307353002165
C -1.1180296867174204 -1.9613709435062279 1.1068254512311237
