21
## STRUCTURE-ID: 645675d902b1205c303eade4 ; CHARGE = -1; SPIN = 1
H -6.332898980273708 4.120183667847949 2.8935045135672053
I -5.2057769332545725 3.6679556133843283 1.876502151535625
O -5.059826366910824 2.3253744101458556 3.805855747227107
C -2.12676671198108 1.5945978838383845 0.7980297041375456
H -2.041447876908161 2.377265503856162 1.5490444947880289
H -2.0165568800745906 2.050049510095149 -0.18294582635357096
H -3.1180229858664177 1.1504759364095392 0.8632862093441437
H -4.326593194062987 1.7202007375986714 3.7006164511960087
O 4.891802473110508 -3.783280909675572 -2.094013394685044
C -1.0563034749623732 0.5352503401682385 1.0104144293148647
H -1.1504579744841847 -0.26157402638742167 0.2753482349704762
H -0.06361220220190361 0.9683637030531835 0.9053385059868214
H -1.1327483080082914 0.08944384833953856 1.9997044737020506
H 5.739777711617203 -4.117317887767677 -1.7296476104602583
Rh 2.867447710425208 -1.7366165275318117 -2.084148330605777
I 1.6326168839664688 -2.9661175529350965 -0.16626436014530444
I 1.9840248684938744 0.7433205268380575 -2.088973358088948
O 3.4216766960471734 -2.044214372141619 -5.0001540569757585
C 3.280433711049085 -1.8856700046237282 -3.864735047703901
O 5.252618652373039 -1.9534058608722293 -0.8481789112569385
C 4.5606131819065 -2.5942845396399217 -1.6185840194944388
