13
## STRUCTURE-ID: 64568cf60149e672305fdab4 ; CHARGE = -1; SPIN = 1
I -2.609554328666248 -0.8328244529145539 1.0391680712853784
C -0.32196882103932833 1.8946882086897892 0.25111101403024655
H 0.24190821694648787 2.7646065126512704 -0.08388732199550217
H -1.3767564324549977 2.0412933566889153 0.008644246287782771
H -0.24089617046783393 1.7872264677941496 1.3307047561179863
O 1.7888421562435108 -1.7600746927457835 -0.2601345172487666
H 2.4843891396831355 -1.4490948483650254 0.3276469905819746
Rh -0.07144941735631095 -1.098112548892217 0.32392526780870473
I 0.8943508420541176 -0.6938808574595835 2.7161937131567084
O -0.9529330451582461 -2.330192851941795 -2.235052195546327
C -0.6506260759559996 -1.7950787510748896 -1.2693013589837023
O 0.6552186530729252 0.7691078362767019 -1.6176695504616347
C 0.15947528309879233 0.7023366212930297 -0.5313491150328573
