19
## STRUCTURE-ID: 64568edb2acfbe3d9e62318a ; CHARGE = 0; SPIN = 1
H -1.7811628787123028 -2.3470785337528906 -0.24485952141405037
I -1.318249269522814 -1.8282445616071326 1.1797303916050828
C -2.237512730448874 1.8545016283200835 -0.5307322845634155
H -3.0756712655289435 2.5409392482813793 -0.5789385345326074
H -2.372492082306428 1.1311738085497107 0.2713710129145215
H -2.170195992665355 1.311337408794028 -1.4748420881172932
O -1.0756711149137153 3.8940275644138054 -0.6152838211332023
C 2.133163445993277 -3.536158633377267 -0.22177876445041958
H 1.7174110186806808 -3.350464878847694 -1.2072358797672518
H 1.3626278596567278 -3.7964572038791182 0.49640838481695704
H 2.906624485974734 -4.294039870114108 -0.2595511663903501
H -0.24102550309057522 4.388814417857084 -0.5179739762941703
Rh 0.9254342955607107 -0.01697472614622826 0.396022458854447
I 3.070691940920313 -1.6923762910583084 0.4591501246752275
I 0.5264426124427067 -0.4635776864496668 -2.1582253681680243
O 1.3193527147745232 0.9384324027823956 3.177307814060869
C 1.1872836002277822 0.5095461554608468 2.1141202777353945
O 0.09292888620302014 2.1433036966677275 0.048644614282276434
C -0.9699800232454767 2.613296054105369 -0.3333336741139759
