18
## STRUCTURE-ID: 64566ec3858dca2a7b1fea70 ; CHARGE = -1; SPIN = 1
I -5.215853865912432 0.11841408165288148 0.5626632628002757
C -2.5700420946073903 0.27521607256833935 0.6863516822518396
H -2.6883199359262977 1.3144800463287287 0.9018127355346494
H -2.5656435368988775 -0.05930179365256691 -0.32840573496869035
H -2.6190489646814594 -0.4375143814197068 1.4799632581875057
O 0.9106640038437878 2.2329122525863556 2.064698027750843
C -0.4906754472089436 0.35954481193354554 0.7560699291572409
H -0.6006518065146006 0.7114245606170702 1.7598011367809192
H -0.4672842605541584 -0.69328061184698 0.5514833196906291
H -0.5590195267247126 1.0616046904491931 -0.05008607220330827
H 1.5887901545022831 2.8045003185141297 2.4251972305970546
Rh 2.365984395263158 -0.9488481124866476 -1.2023650132109245
I 4.723538122759906 -0.9933813871555072 -0.17209425256123137
I 1.9190578785135715 0.5891618178714689 0.8492442566797423
O -0.3748317125108187 -0.6750012221572592 -2.3593390016289923
C 0.6651451860575003 -0.7898932910764664 -1.8811836352969933
O 3.12244378894547 -2.8026876756216117 -3.438564594207979
C 2.855747621653971 -2.0673501771049834 -2.605246535352556
