13
## STRUCTURE-ID: 645688781149da0da00b39c4 ; CHARGE = 0; SPIN = 1
I -1.5447554592967172 1.70649644865412 -1.6588427073595808
C -1.2726766978091686 -0.480243387554149 1.0273327279807665
H -1.5477205018344524 0.18805075986036904 1.8477970841366813
H -0.9748496919617367 -1.432428825364584 1.4728278224169948
H -2.177411724774268 -0.6432308711234441 0.43502848899658964
H 0.7289910258419668 -3.161918449409816 -1.3303089175082121
Rh 0.2622337476355007 0.21671218258237385 -0.27889487864332213
I -0.17460822373103974 -2.002682991650982 -1.937853473407557
I 2.1562360270548884 -1.0588140962586339 1.1605570728388184
O 0.3476071147348442 2.3372719543986333 1.7932346968232984
C 0.32460648705515815 1.5339359654620714 0.9919467142157367
O 2.258369778230775 1.7833686390610672 -2.0227067187700554
C 1.6139781188542583 1.013482671342975 -1.5001179117201588
