19
## STRUCTURE-ID: 64567a33b4610644dc293428 ; CHARGE = 0; SPIN = 1
H -5.11116655169182 1.5829351360022648 -0.3625899390293587
I -3.571320037163503 1.219764981124857 0.03895919367884779
C -3.8993929850970606 -0.8342886458934865 -0.5288442846848882
H -2.956361623492746 -1.3327691985328947 -0.3272070968191644
H -4.699776290067221 -1.2147739124349946 0.09863086848802768
H -4.140319107840102 -0.8399075826740031 -1.5877894819782914
O 2.9827857506069977 1.275748500013426 -0.11745860070256013
C 0.061728865558794754 1.0570552159043367 -1.4237898923118546
H -0.11340586930712994 0.3358641536726032 -2.213881290439746
H 1.0928143042394112 1.3935994793341837 -1.4414154434319308
H -0.6258467370561138 1.8937337127595204 -1.4589279246994484
H 3.488665094004155 1.9626227509191738 0.3188078349230828
Rh 2.7328540304485065 -0.5747841398824105 0.8169108418499605
I 2.5940766981987675 -1.7449658649124096 -1.5534377368234458
I -0.17934227878712136 0.03778964562008615 0.46681096850921455
O 3.675091516298911 0.9586095679115524 3.1987540931628176
C 3.2659822401938436 0.3038080012258312 2.337678245229833
O 2.728270932504718 -3.2583385649635432 2.1244848155437137
C 2.674662048448704 -2.2217032351941053 1.6143048295351514
