12
## STRUCTURE-ID: 64566921af7f8670e219eb66 ; CHARGE = 0; SPIN = 1
O -0.9293866997291594 0.07300180073934641 -1.303423471005718
C -1.0949283083251258 0.15765021213089517 0.7942903027127733
H -1.129147205483747 1.2310418602801794 0.7173427403211485
H -0.778345225951836 -0.1686912655542735 1.7835458287510961
H -1.9972818421785206 -0.34772398496053136 0.49506609419654996
H -1.2705046971408545 0.9375834040990932 -1.5334971870237923
O 1.4894154332038234 0.32245816426342144 -0.9913927337485597
C 1.3919570541387698 -0.46285229749805135 0.11734740450046145
H 1.4993874113087924 -1.5360235778272013 -0.08279577904944421
H 0.2644393875164718 -0.33837127671515516 0.4540117620455166
H 2.0520965106736506 -0.12551698261513786 0.9179488504930847
H 0.5022981819677428 0.25744394365740847 -1.3684438121931206
