17
## STRUCTURE-ID: 64568b1de6822b454c3ae5da ; CHARGE = 0; SPIN = 1
C -1.3551114863039961 -0.2347661755731393 0.556382361187793
H -0.9590540747636718 0.8396236915701738 0.6502313676981188
H -1.770156363487042 -0.346991551728266 -0.44332050026908726
H -2.1221357158954186 -0.3508691661653229 1.3196152662863978
O 0.35701017012143016 -1.6131384933922286 -0.35260022524120094
C -0.14419759760187298 0.4982546173423649 -2.859070820091552
H -0.2507250429048538 -0.544789524492899 -2.582683423348046
H 0.24399371287315785 0.5949048658045937 -3.8665945115913125
H -1.0700487718097265 1.0517082570848955 -2.749488834372342
H 0.988186190880043 -2.342814472854171 -0.21709709460152032
Rh 0.8121927063125854 0.9058400631693858 1.0189906128853625
I 1.337927412191143 1.3730283790924793 -1.5249572627587467
I 3.271561965291991 1.6069567039611534 1.6253576103582803
O 0.42345822962057794 0.8156873200376367 3.9637809242116986
C 0.5540513842660683 0.8389204912585528 2.829467533265457
O -0.05745029539043327 -1.8365489221892928 1.8416006247249563
C -0.25950242339998103 -1.2550060829259289 0.7903863716557216
