12
## STRUCTURE-ID: 64566661d9fb2d1f39230d81 ; CHARGE = 0; SPIN = 1
O -4.099470112732022 -1.5601843930612966 -2.848422019149933
C -0.10262139711289131 0.513148084193977 0.3404441393466435
H 0.09154178689577469 1.5079150369112442 -0.025787781897183067
H -4.343674081090008 -1.5824439803291415 -1.9196352623718496
H -0.3524932621319236 0.43547474106175 1.3859996672184585
H -3.8972202616075498 -0.6456453551464262 -3.061978410259847
O 4.280635700416544 1.4642637164545182 3.0523508257286713
C -0.03691744298848467 -0.543706004495239 -0.4425175252078825
H 4.680864142990438 1.758629243291262 2.230065134855437
H -0.23219717355524247 -1.538751577417988 -0.07760554506814088
H 0.2131186352026504 -0.465790675328035 -1.4879528916775338
H 3.798433465712726 0.6570911638653589 2.8550396684832036
