12
## STRUCTURE-ID: 64566a79c4aa9d18341aaa10 ; CHARGE = 0; SPIN = 1
O 0.04769544704585052 1.5870546813720163 -1.0238392131701266
C -0.5859363677720695 -0.5731409898650182 1.4487666695647365
H -1.5941475226552448 -0.40862193332473445 1.0300211101957342
H -0.32635788002302446 -1.6362549564538216 1.3101788366978937
H -0.6463647297489185 -0.39577789359957966 2.5332656520165955
H -0.8518851047349525 1.4961693311478585 -1.3601580642074502
O 0.36237691992414933 0.24997090036651845 0.9015122490455707
C 0.8029693438842005 -0.2537166310468638 -1.10405036652581
H 1.7451172321409023 -0.42207053847885145 -0.6140712577254764
H 0.9166799060130071 0.0636146030782404 -2.131698837157504
H 0.06321930003649875 -1.02243264638823 -0.9619745183719666
H 0.06663345588959496 1.3152060731924737 -0.027952260362188255
