13
## STRUCTURE-ID: 6456892d77fc196cbf7ffa7a ; CHARGE = -1; SPIN = 1
I -3.240324913602289 0.3948756205940948 -0.7342940248586065
O 1.4495907594027393 2.793775710605135 0.32006882541115517
C 1.2244956516881662 -0.0759482856584361 -0.0844926442083037
H 1.957313259906566 -0.6462125355335091 -0.6546962418249963
H 1.6472588401304753 0.28349416813193556 0.852245933646387
H 1.281488463491962 3.7303885634700475 0.19656210934095283
Rh -0.7973105908958871 -0.392291730556946 -0.27132731747860944
I -0.01427211760435429 -0.2758761539809672 -3.1978745772255315
I 0.7294657679210726 1.683420638701038 -1.207961445102699
O -1.1515432489606754 -0.8452550739301639 2.645516462652962
C -1.0392350848290666 -1.18292687853171 1.4854155001462328
O -1.0347006235017013 -3.3082522991932506 0.137468692548793
C -1.0122261631468599 -2.159191744117233 0.51336872695215
