18
## STRUCTURE-ID: 6456b71be0e41762a30b39d8 ; CHARGE = 0; SPIN = 1
C -2.53919199709084 -1.1318433473161686 -0.25948563970686156
O -3.321116335649883 -0.7988924800695879 0.4927884123234994
H -0.3709977990560835 0.8009901619020129 1.228083355890193
I -0.42195329636597834 0.8483592542074851 -0.355748809972071
O 1.953695048301348 0.2638541502982411 1.6274387904646732
C -1.9238068431822422 2.4820848771954105 -0.0394358332965421
H -2.793317733806266 2.0431320418970476 0.43742064755192017
H -2.176052941704469 2.8799402010601955 -1.0151825745345222
H -1.457653175474474 3.2383797737864732 0.5806273009846473
H 2.536272007731286 0.4957004279643578 2.3775582336887013
H -1.6559762489425405 -1.8953500442345694 -1.8445452185515252
Rh 1.2076617554188216 -1.3785463369943385 -0.518732789060025
I -0.3281152500086367 -2.284550659179729 -2.6952375292620556
I -0.3427964087504419 -2.6232151545496225 1.1991075210893982
O 3.338748812459622 -1.4668892932569293 1.3337476680636973
C 2.3455112670716027 -0.85225198026981 0.9873127758115691
O 3.4311261882835127 -0.07069016386781446 -2.0227935157765757
C 2.5179629507656567 -0.5502114285726444 -1.512922795708115
