18
## STRUCTURE-ID: 6456705fd484446ca873b9da ; CHARGE = -1; SPIN = 1
I -1.4170822406837433 -2.6769976823115695 -2.157998446731577
C -2.4292139326295854 -0.20145612408600763 0.2763795663807849
H -2.7654903302255116 0.7380762596329999 0.7217613895978339
H -2.959146212245828 -1.0245005005589713 0.7611925301234762
H -2.691262680866499 -0.1903800061919316 -0.7829082054894239
O -0.1725566827699494 1.4986008744466248 -0.2361665254074406
C 2.9521413884104803 1.4173082219773967 -0.5383764366368397
H 3.5407695583742678 2.133438701383559 0.02135764850255547
H 1.9635853599718116 1.8040738500383824 -0.7734946025597956
H 3.463051310043178 1.0744644301016186 -1.429607835972852
H -0.5968993213033333 2.2036194781298133 0.2628931502283753
Rh -0.36123655102485885 -0.3668264013166878 0.546543285179965
I -0.5516660037095678 0.5955365352539607 3.067523755871791
I 2.6185248698279486 -0.2922418103946397 0.7315019929346634
O 0.6965738300206021 -0.5822146672073176 -2.0842113159243576
C -0.10189814982936347 -0.9466759553463048 -1.3019691875156174
O -0.6658372304400137 -3.1134061832568114 1.6853608162500844
C -0.522356980920016 -2.070419020294087 1.230218421168374
