18
## STRUCTURE-ID: 64566ea3883b726f2c4efcbe ; CHARGE = -1; SPIN = 1
I 0.43749768121518945 -0.8243595221362388 2.4109154978827294
C -2.5151657436749804 1.8370427441665362 0.5447753144830961
H -3.0168810636164487 1.0645323409525977 -0.03323588787181848
H -2.2841615145822627 1.4307653920535468 1.5270602346307087
H -3.185589694864561 2.6831221352117023 0.6673214666931251
O 2.409800220348791 -4.651791713014496 0.3147398310099238
C -1.241260773636125 2.2682385075528275 -0.16333234395253807
H -1.463994321221303 2.6923790159897107 -1.1388821492028602
H -0.5871761080349921 1.4033588215454187 -0.32230374306402954
H -0.6928178659337991 3.002680831286777 0.4246682614257639
H 2.1704359208569617 -5.195161495731598 1.0668312807687308
Rh 1.2931596862345318 -0.9029857190137135 -0.0822191751060265
I -1.3691467634625631 -1.7520161053527965 -1.2832061771745746
I 0.8033515750514372 -3.524098422727634 -0.28797112616705
O 2.868787621002707 -1.1844547404874293 -2.605608615398698
C 2.2347879106143727 -1.036989264981991 -1.6570574997273009
O 2.2708281083029167 1.869715311116243 0.4232372178421378
C 1.8675451254001743 0.8200218835705135 0.19426761292866535
