13
## STRUCTURE-ID: 64568aa7bd41dd2ffd0b5344 ; CHARGE = -1; SPIN = 1
I -0.3668674660361427 3.317521931623911 0.6099930501027391
O 1.0273972857130138 0.9048412456063913 -0.6750119377576774
C -1.7393362656803995 1.789683854958641 0.09506525066359353
H -1.4674112501103997 1.4177897356337303 -0.8857521292868814
H -2.7416065588976117 2.2007415336613736 0.1183772253134821
H 1.9293971262134364 1.2148259186257122 -0.5711270221223587
Rh 0.6125538932788348 -1.0958000971787558 -0.2824519326326198
I -1.0369792758425807 -1.141805114435175 -2.3417111605144414
I -1.6845096360452958 0.1280255963768013 1.4619897266092834
O 0.154021852475197 -4.022269124607381 0.09179088755640138
C 0.3103412066979658 -2.884309275177871 -0.026386526829242616
O 2.9659030385300933 -0.8269546474685704 1.5331137079257173
C 2.037096049703902 -1.0022915576188085 0.8721108609719982
