10
## STRUCTURE-ID: 64568d9fa66bcb5bc967f9c0 ; CHARGE = -1; SPIN = 1
H -3.212830692344263 0.486370449322022 -0.2802732598449379
I -1.9638045453954123 -0.1914170824897586 0.49673294241015026
O 1.2011759037182956 -0.24162244397248683 2.5685122638513858
Rh 0.33281740391958226 0.449523281949908 -0.8124671367623482
I 1.612420005400794 2.678221302089766 -1.4988485917692795
I 1.5468287603529196 1.2216636809041548 1.3167991644183732
O 0.5469727391523835 -2.3705260947488607 2.424410533754219
C 0.5753692127322599 -1.3494446226679553 1.7390599955105215
O -0.44582358945064593 -0.5620256147636005 -3.491540805279925
C -0.1931251980859279 -0.12074285562317515 -2.462385106288169
