17
## STRUCTURE-ID: 64567b18a582fd4b4a5a8517 ; CHARGE = 0; SPIN = 1
C -1.9654214253494797 0.7336022671599487 -1.128774218777855
H -2.086779634584491 1.816726365387078 -1.2561204319721848
H -2.556648331167292 0.42356024302858547 -0.26587110028271194
H -2.376704980513817 0.23621940579098638 -2.0077441239663534
O -0.2047657408929096 -1.8517264216221285 0.5654045556540134
C 1.5687418286822916 0.7535018267292607 2.847521424864849
H 2.3711672267156207 1.3739536485593713 2.46288529833431
H 1.7860909498735122 -0.2983093915569224 2.698518018134001
H 1.350320742936055 0.9762724135124597 3.885763218822687
H -0.31945102026023225 -2.808876297324746 0.7510642710310458
Rh 0.07950413692681703 0.4091251740789328 -0.8377066606936134
I 2.74820046075417 0.2726333406847342 -0.6551518812146444
I -0.22316987825832707 1.206512625224154 1.711059655590822
O -0.5099025374415354 -2.2600263201699278 -1.6231961153199563
C -0.295650622138719 -1.523128228079279 -0.702148086736022
O 0.38905260441931594 0.252830590981735 -3.7875517728941848
C 0.2454162202989744 0.28712875761580847 -2.6579520505741114
