12
## STRUCTURE-ID: 6456672001e09b0c5841e583 ; CHARGE = 0; SPIN = 1
O -1.3911592706227005 -0.8805886239886639 -0.16427426445436766
C -1.3956004227177432 -0.6744498846681408 1.099794227336936
H 0.05310500252802528 0.8591725243318222 0.6841606527602703
H -1.0188299240651502 -1.4855583475712462 1.747850624081969
H -2.2882775688052406 -0.1922452268887997 1.536389551985668
H -0.5017265723746807 0.22850538589906302 -0.7757334757992864
O 0.23798490760204943 0.9379419555942509 -0.7072187138052997
C 1.4609574695375636 0.334572644520573 -1.1171363976644573
H 1.5969094533709551 -0.645543790413528 -0.6609264648277878
H 2.2721195647303656 0.99943139624185 -0.8239166218721313
H 1.4493475250537486 0.22684771520446073 -2.201797968034684
H -0.47483016423718927 0.2919142517383737 1.382808850293154
