12
## STRUCTURE-ID: 64566a0648d8710feb67f9d1 ; CHARGE = 0; SPIN = 1
O -1.159220709974671 -0.18837834299468245 -0.4360301582219594
C -2.2634042346624152 0.2442617730430485 -0.2527457202339318
H -2.7229809418005826 0.2631106170013931 0.7445020988694193
H -2.8771241500724662 0.6453916352637318 -1.070256443798803
H 0.7633242381090524 0.03352447717148209 1.113515423105751
H -0.1894916615717106 -0.4971700456602064 -2.1375035709607446
O 0.24116808747736906 -0.6748571941980469 -2.9848365352442072
C 1.5811390352776142 0.2661926481413903 1.7827616218250084
H 1.9186668803059215 -0.6394953342564617 2.2692995771445137
H 1.2468627915582091 0.9739767364638912 2.5300171891404135
H 2.397186638979549 0.6977696393007184 1.218274859056741
H 1.0638740263741386 -1.1243266092762592 -2.7769983406821837
