12
## STRUCTURE-ID: 645666d28b2f186b585ede0b ; CHARGE = 0; SPIN = 1
O -0.9408962873510278 -0.04319192437424675 -0.5074215571268926
C -1.647213977787321 0.04713075711684165 0.7514692280897969
H -1.4137055618716283 0.9710789600707426 1.2795161463003024
H -1.3532133922045924 -0.8060204812817117 1.3599521951670208
H -2.7112100366632594 -0.013357198355843173 0.5315988497325655
H -1.2277433114114926 0.6828907617432043 -1.1150475934146071
O 1.0494018473836604 0.17795608621138265 -1.640883462605956
C 0.5616993420641534 0.026659480972724216 -0.39469938493197587
H 4.877177161339025 -0.393382415738224 1.5246852736305745
H 0.848734725544316 -0.8930182446285414 0.12261104499774696
H 0.8210563371040177 0.9041245763244045 0.20689414948249485
H 1.135913153854103 -0.6608703580608128 -2.118674889321055
