12
## STRUCTURE-ID: 6456686cb38bda60d5293420 ; CHARGE = 0; SPIN = 1
O -0.5371307933111608 0.6750408550025084 0.3368137386913766
C -1.6412642513504574 -0.12270376816204674 0.4868642682849435
H -2.355180281886782 0.36322701649809663 1.1685497765889943
H -1.3962890089209075 -1.1110071306473652 0.9104092811515246
H -2.161339360624319 -0.2773716950595588 -0.4731570628259517
H 0.7032039486608155 0.33055418241219836 0.950082203089554
O 1.6757971948855606 0.005959475159438433 0.786995214525288
C 0.8593914201527415 -0.11817510479044385 -1.0266554418804934
H 0.7348373991910233 0.8528699825974512 -1.4713370103600323
H 0.05134637153173358 -0.8081736824751744 -1.200016453264419
H 1.8248410360830918 -0.5746084690238599 -1.1987917759575122
H 2.2417863255886665 0.7843883384887478 0.7302432619567285
