18
## STRUCTURE-ID: 6456706ef341864b6062319b ; CHARGE = -1; SPIN = 1
I -4.667598257565351 -0.3239293376697893 0.8197869050907272
C -3.069078342683625 0.057371994342747215 -0.5385452317876462
H -3.3140621317747994 0.9433507956646512 -1.1087920883878981
H -2.9638452579635515 -0.7980385455771766 -1.1919815082155503
H -2.1605300483672734 0.21208022002194485 0.033575051041682624
O -0.20478994569026424 0.5391262537405922 0.8970667735971775
C 0.8376682596707496 -2.5143864822954347 0.5022238702000605
H 0.7103921951403632 -2.985197422313199 -0.46473297193293883
H 0.09827307329525538 -1.733891324868213 0.6515361135908323
H 0.8239715442115425 -3.2344040658647106 1.3096323944341695
H -0.25411034878799665 0.8872856831488134 1.7900784446634592
Rh 1.3451650389067717 1.1910104613819166 -0.32818226380392934
I 0.2334263598516652 -0.03547395468961467 -2.3703044014891925
I 2.761557839698138 -1.542822707289076 0.5103465354037208
O 1.9545487525532272 2.9314243755473375 2.0162693683954833
C 1.8024865794758131 2.27104332388022 1.0806039022435467
O 3.428131004386579 2.292469151439609 -2.1612580284569005
C 2.63839368564282 1.8429815813993748 -1.4473228645868579
