13
## STRUCTURE-ID: 64568c03e8fab35c651aaa10 ; CHARGE = -1; SPIN = 1
I -0.8892451644906877 -1.7467358238277966 -2.2173433296635277
C -1.3331658249351088 0.7860644610085166 0.6990398471999436
H -2.0873538448528626 0.26351806004045597 0.09460636304878862
H -1.480063312952388 1.8565993690254687 0.5661693500707963
H -1.5009445530658183 0.503110184148914 1.737884111005904
O 1.0377331570741202 -3.6994948804905543 0.6958266818419787
Rh 0.37463286574647087 -0.19311371427113888 -0.36429912630526456
I 2.9595367352016484 -0.866825561588911 -0.9836060326489717
I 0.24833141715605195 -2.1898442663704687 1.4433873321767197
O 0.9725579508846242 1.7075067914202653 1.8683833840976205
C 0.6378111591446533 0.9977169213160021 1.0314592448393451
O 0.5921256814601668 1.6011349951539124 -2.7580445274757874
C 0.4680437336294505 0.9803634644350576 -1.8134632981873284
