20
## STRUCTURE-ID: 6456b6e0a544281fac3eaddb ; CHARGE = -1; SPIN = 1
C -0.6345037192976655 -0.3351784176792145 -1.110978776806116
O -1.694799267535715 -0.568215802005096 -1.4944458147930195
I -0.6148525427540776 2.8340205638175315 -3.152469556992641
C -1.733071429969589 3.8843953769675164 -1.6465628626127515
H -1.0253414535989478 4.381393083687302 -0.9961640637849498
H -2.296715120685887 3.1521740889579113 -1.0842645432680256
H -2.383846537479197 4.585054624669295 -2.151438486508304
O -0.9980920479017737 -2.712633412972681 3.385039296439257
C 0.2815991495784134 -3.2403333907404246 1.0934906769327493
H -0.6647751248831171 -3.7293393769868457 0.9036932451705093
H 0.8087223040159245 -3.767396752374355 1.8769818399488651
H 0.877786145976027 -3.1574878529979324 0.18911460619472564
H -1.4234701848370674 -2.221522816707512 4.087177241653861
Rh 1.0239944418125992 -0.018783904358478043 -0.3121085560961071
I 0.17921840004330458 2.1300540379732795 1.2455338027198553
I -0.12275753352051887 -1.2659948820253282 1.7890700299667055
O 3.422583167072471 -0.5994646303794928 1.4249794637140243
C 2.5546599094524916 -0.34708315974810394 0.7094415492957571
O 2.5109474403045375 0.5869673193927688 -2.8657425643461965
C 1.932714004207712 0.40937530350985823 -1.8903465268282986
