13
## STRUCTURE-ID: 64568b40e5793253d576344a ; CHARGE = -1; SPIN = 1
I -2.1445747424824115 -1.922001694437589 0.6550341301910982
O 0.1319740559823258 0.4966977043147104 -2.124655968197805
C -1.4727052092441073 0.1454607560943996 0.7789749215074616
H -1.784346917271081 0.4713102675789648 1.7798324836581123
H -2.09540977575567 0.6604624351182911 0.04427583287699212
H 0.1450043890838574 0.1388268198545426 -3.0382219721874177
Rh 0.5412515179524573 0.5693727516559359 0.528029931137042
I -0.17080508812016945 3.066097075437956 0.2021223855145872
I 3.1788409536834967 1.1069104666981502 0.3598398801022836
O 0.7971870617762347 -1.5200773293188203 -1.4045129743980531
C 0.5056166626947999 -0.37014549463891083 -1.2013523492138662
O 1.344284455913412 -1.8710664645541797 2.025791834460247
C 1.0236826357868423 -0.9718472938034592 1.3948418645493
