13
## STRUCTURE-ID: 64566de6668e585b363eadde ; CHARGE = 0; SPIN = 1
Rh -1.4832301817469107 -0.23858678943925246 0.08631521807357505
I -1.4112463585975574 -2.0670558435571227 -1.7880207971211033
I -1.8244005564881751 -1.944574197081873 2.051247832109635
O -2.0929974990705835 1.6896653776641901 2.296794576088873
C -1.8237953290781177 0.9882519083486878 1.448202043462545
O -1.8487388644337457 1.5771767155928489 -2.2619623190146916
C -1.664801365418687 0.9216379692687924 -1.3558937479839483
H 4.436598568615872 -1.5573583797330002 -0.8812207704850914
I 4.3124010618837 -0.13770551597549233 -0.22349901047725854
C 0.5949308718853774 0.16897967989758883 0.14693768497870352
H 0.8297692517392405 1.0828620884015348 0.6908306894235553
H 0.9772826774434807 0.22505502480214973 -0.8730245464759167
H 0.9982277232660913 -0.7083480381890899 0.663293147421124
