13
## STRUCTURE-ID: 64568c5919274110d64efcaa ; CHARGE = -1; SPIN = 1
I -1.182209696931795 2.7033190954600395 2.826155400372324
C -1.0286838034415753 0.5349652704440598 -1.2315887181724525
H -1.8751443198000155 1.1177218184912745 -0.8716673068157152
H -1.1137434276880835 0.4408041529949675 -2.3108379063861446
H -1.0297794156180815 -0.469006022826437 -0.7724407767333007
O 0.4605205780361379 2.3994065377671516 -1.4014621286904485
Rh 0.7386836492272143 -1.0916542621403764 0.8994684331130927
I 0.2577306295724737 -3.0523112934098804 2.5624216542769984
I -0.5245818115656299 0.04861458245972281 2.8148189180887346
O 1.1046371321286526 0.7405702999832061 -0.11251297894098208
C 0.2724740076345847 1.2877320430724288 -0.9032166603167071
O 2.259042905162041 -2.6112330082354553 -1.1529058474237577
C 1.661053573284074 -2.0489292140607067 -0.34623208237163555
