13
## STRUCTURE-ID: 64566c43b6756b2e762648b0 ; CHARGE = -1; SPIN = 1
O -0.784930363532294 0.3415199724776814 -0.6869032389536036
C -2.3947007602381993 -0.3407899707824892 0.5922040033657837
H -2.3164049016164125 0.5880975931287238 1.1276403392264884
H -2.781848002902146 -1.1639057073646188 1.1640460790385352
H -2.7793399927694105 -0.3035997104581856 -0.41116062650645857
H -1.1075022181729344 1.2160003024330575 -0.9341419240067493
Rh 1.269847645313015 0.1677789207108943 -0.0903976352236991
I 0.9872302448801943 2.234141308386436 1.61068241545466
I -0.14596498259354393 -1.6799827325671586 1.5097712327515707
O 1.375924636888213 -0.8016201023284728 -2.922645536019769
C 1.4473362600126307 -0.4739234538021585 -1.8168789465623667
O 4.177999645549142 0.10299985890498531 0.5622092153170951
C 3.0523527891816937 0.11328372126141024 0.2955746221184232
