12
## STRUCTURE-ID: 6456672de4796142a132dfdb ; CHARGE = 0; SPIN = 1
O -0.016485970633041004 0.32373170827057446 0.07911345941769585
C -1.3558537099506827 -0.11554647962321457 0.15735325770635167
H -1.9245289150584173 0.493921067292448 0.8676115507184671
H -1.4059744517106418 -1.1652041346263622 0.46638154398435305
H -1.7790922236523494 -0.008578356703625042 -0.8386628747976532
H 0.7386936247460045 -0.23353353243468186 -1.5925039104995682
O 1.0779067244239113 -0.43979752591796273 -2.4762909675382105
C 0.6709256440851049 0.2080534832962186 1.3064141558169047
H 1.674328442645083 0.5935064347438548 1.1416248256868937
H 0.726472810113567 -0.8381022131293204 1.6269879096243844
H 0.1752746164919884 0.7944974953537318 2.0873324061449856
H 1.4183334084994785 0.3870520534783414 -2.8253613562646023
