33
## STRUCTURE-ID: 6456c37e9c51bd7a2d30456d ; CHARGE = -3; SPIN = 1
Rh -2.5113324466791034 -0.30694288023374083 0.9127090813305663
I -2.245525228385315 -1.4019319551028337 -1.4972727074554506
I -1.563915538392643 2.076351873027678 0.08245859070730756
O -5.128088233623026 -1.2366945742861113 0.8129493988857324
C -4.499085036525415 -0.2710136902470731 0.5001929914779394
O -2.3388627884007467 -3.019717067079643 2.102651713875008
C -2.562255466889557 -2.0013890454748844 1.6163268017117394
I -3.1590370179269307 0.6702617898457879 3.315558487249705
C -5.047767485419132 0.9511595208610754 -0.15882262011385473
H -6.116036948730026 0.7948562626106781 -0.30258462682122117
H -4.879265182928506 1.8332356514534274 0.4612136784087618
H -4.558776298139035 1.1259434992581077 -1.118671962262906
O 1.6290673390687191 -2.988373066073498 -1.6197607229918427
C 5.271984341722394 0.4246559849543168 -2.811343964908321
H 4.925818726013202 0.03663169481475614 -3.7612114740748854
H 6.3523245798460595 0.48579836735034904 -2.764849427249921
H 4.802554470778754 1.3737753867436593 -2.5711281546691467
H 2.0757650858553918 -2.5956485545980397 -2.389833938295679
Rh 0.8078608150933985 2.2106858406936354 1.6565071600384509
I 0.6878218631708174 4.8077645762313495 2.245401648231977
I 4.646903252538607 -0.9993978528172575 -1.2581457842709436
O 2.182522320460258 -0.3333972306721938 1.4887637065834303
C 1.0529616959091017 0.25366619659327116 1.4246169506650277
O 1.0298073008752722 0.6880332989913991 4.211083904779068
C 0.9173369982446914 1.4505732689650053 3.3125295388581635
O -0.04067143213001587 -0.6013850776119075 1.7304882767625391
H 0.24773300404167906 -1.458631275570351 1.3091312466448755
Rh 1.881964350877948 -0.2068641706913053 -0.6845610484447069
I 2.650622787849436 2.394479286196701 -0.4228854781113978
O 0.709048031759325 -2.6273771722297248 0.32270990230867047
C 1.2852201082052228 -2.0949527814394666 -0.6463464761134633
O 0.4503968646630756 0.45470171929492226 -3.21485704373116
C 1.0429051671961043 0.11114217624186419 -2.283017649003981
