19
## STRUCTURE-ID: 64568da2f0eeae714719eb5a ; CHARGE = -1; SPIN = 1
O -1.2525792697456293 2.5533791876692358 0.7618784060310689
C -1.3386864187746197 -0.07192390484989064 -1.1618222826832274
H -1.2635695630254673 0.3430067875347581 -2.1731276917034537
H -1.358468610399572 -1.169336888723255 -1.2598663948149997
H -2.306118406119869 0.24540541002444707 -0.756041527581051
H -1.4945224027284303 3.4990589591157453 0.7375001811091715
O 1.6549309276186313 -1.1516275426121825 -1.410790874079911
C 0.0507694163522508 -2.2790715398014028 2.0388219251908684
H 0.8283445681563498 -2.2088216289635065 2.791240991278017
H 0.48033970165801276 -2.186637718684029 1.0394758926976644
H -0.5220273509092477 -3.1929562982227715 2.132642593705042
H 2.2523940825171747 -1.3984085585523476 -2.141265293561828
Rh 0.21841355271385493 0.40934926935308685 0.10769816076950761
I 2.3341202515545003 0.7954725978565067 1.6882124947420167
I -1.292750967054628 -0.6081548678382562 2.3342532903772133
O 1.7356852392422768 0.8984880539764177 -2.324653083224524
C 1.3275235465216089 0.1739533601912967 -1.445154591500143
O 0.21648398934239843 3.0928001742634534 -0.8439859642499729
C -0.2702822869195873 2.2560251482627023 -0.11501623250155993
