16
## STRUCTURE-ID: 64568e238af3d2628d41e580 ; CHARGE = -1; SPIN = 1
H -2.7221905873031718 1.876874507761868 0.9707201131135473
I -1.8870456599796679 0.5006272485579455 1.5385023633267496
O -0.7125275131409654 -1.2221867780730702 2.2642748208159347
C -0.7017033662445035 0.9311910723105793 -0.3105179300895492
H -0.6184581595512176 -1.7507221302145548 -0.7024178566881729
H -0.38594649858121405 1.9430000183499214 -0.06626531669919854
H -1.5130889484469268 0.9392979277404108 -1.033852385814621
H -1.254596568364951 -1.9478410454569661 2.5747051035354875
O 0.11508051683252585 0.11518097837244139 -2.534379552700399
H 0.6902122968059244 0.4124744469744265 -3.2633821084502608
Rh 0.45156880407648475 -0.8944590925096993 0.11014061133811419
I 2.2201204316235295 -2.893754132819814 -0.11684251849788863
O 2.396555141742612 0.30900721874183756 2.026916960606373
C 1.6760476965666693 -0.06442513679298612 1.2073430112418029
O 1.6083839059635046 1.2532106611595055 -1.325841621508437
C 0.6375885080013649 0.4925242358981484 -1.3391036935294363
