10
## STRUCTURE-ID: 64568ddd4e842c5444462264 ; CHARGE = -2; SPIN = 1
O -1.39203375684318 -0.38238221976549047 1.1589137394956817
H -1.583819303073864 -0.2976927499068326 2.1136619426363916
O 0.2673785581998002 2.004603346292029 -1.9832634264157911
Rh 0.2893015245318295 0.5753080223643764 -1.0027244441732461
I -2.1157406905351417 0.023695728470499364 -2.0504715234975484
I 2.927141173272767 1.001112240706539 -0.6520569757999545
O 0.5800384634584652 0.39879157679406974 1.815271975476705
C -0.1269429927758254 0.025275396404209144 0.878853210803322
O 0.6675552361766456 -2.22821331447286 0.06391353277145946
C 0.487121787588502 -1.1204980268865392 -0.34209803129702104
