21
## STRUCTURE-ID: 6456761a6a67df272022413d ; CHARGE = -1; SPIN = 1
H -0.5266518074871495 -1.6419814723442017 3.834120673713787
I -0.5354996799236224 -0.28663694008742074 2.788239062930001
O -1.7082999207264808 0.30365472843203645 -1.989252098790271
C -1.5923603016202657 0.2525399970434221 4.840952417133279
H -1.914896811206205 1.2852036538525562 4.72476207768829
H -0.8236052715668885 0.14531173537178374 5.6107803350837235
H -2.4373667055201533 -0.43689135041597527 4.9296803681786985
H -2.5762635615859497 0.43345788534116064 -2.4150071027390236
O 2.815442974420695 -1.2538053129780153 -1.0961449939333823
C 1.3316429530890652 1.9518072836348703 -1.2034367056778754
H 2.230386423640278 1.4495969722183477 -1.562626263852308
H 1.58718454389222 2.9614689592382573 -0.8851459912537109
H 0.5923982604400454 2.0030576548655237 -2.005358147945636
H 3.1299783567855077 -2.1081413622866743 -0.784490372325329
Rh 0.6884428181471804 -1.176900514417179 -1.765910276093067
I 0.5617428906134383 0.8609463547387951 0.33250647031716696
I -0.1560874158208087 -2.7794458379074016 0.04876754021589795
O -1.6602304989096115 -1.4003107729330078 -3.4361843395915685
C -1.0775288269436212 -0.8511919305724506 -2.490212002303862
O 1.041692196087966 0.47053518379827264 -4.235100696419331
C 1.0298793841945784 -0.1822749145932427 -3.2409399543357695
