21
## STRUCTURE-ID: 64567c65b5e11f0e8f33a734 ; CHARGE = -2; SPIN = 1
O -1.4840655826549276 0.024473546558677794 1.8801832611969767
C -0.0669993263789823 1.6851005909546217 -1.2598399089288739
H 0.21450341487253233 2.6110869121787226 -0.7487217594093857
H -1.1482148685175448 1.7426030772012273 -1.4356204142147158
H 0.42780850439907436 1.6744736331047427 -2.234406087927172
H -1.9407626618259612 0.4528698845278662 2.635691491576765
Rh -1.3390393326146135 -1.9451808815888674 0.6600448315052371
I -3.024373780065523 -3.168198958665487 2.22134343572768
I 1.4211387553861121 -1.940440772715442 1.7490518906626877
O -1.821021744637162 -0.6409553265892226 -1.9202912271781967
C -1.1487182535720504 -0.759051512983573 -0.9651877286297699
O -1.142096350496621 -4.226575815074552 -1.209415988483612
C -1.2322784341745614 -3.3398267353211795 -0.4789093905976868
O 2.7760125804982345 1.635521920696606 -0.7984419910610213
H 3.5522793635184846 2.153316001283586 -0.5013384956087209
Rh 0.5108555483889089 -0.022680349384801114 -0.14076931063988904
I 1.8054315743642715 -1.2754063329212701 -2.1938575733493355
O 2.4513597626748425 1.4018908344773344 1.3787320542827763
C 2.0871945605279265 1.138176181035661 0.24260954461233897
O -0.400271274224288 1.9581756939966568 1.7921771678301814
C -0.49874245546812723 0.8406284092287244 1.3269661986337373
