21
## STRUCTURE-ID: 64567c66b5e11f0e8f33a740 ; CHARGE = -2; SPIN = 1
O -3.3772974307495023 -0.3313096194426545 0.10584349079961328
C -0.6226186924553585 1.2390255812545579 0.3082242188084096
H -0.5969031553694957 2.174646607424749 0.859341048155766
H -1.6514573018846799 0.9441208592977218 0.1220058374436648
H -0.10664064382979002 1.2852780327960431 -0.6691487345058079
H -4.054627095090137 -0.44064057357163344 0.7819649026494541
Rh -2.2114073167304173 -2.0359434821416054 -0.0817104713855462
I -3.6027407465142223 -3.274957615547217 1.7604225356942167
I -0.37727473346564616 -0.5770497982158511 1.9238550403275876
O -1.417191714501238 -0.7136913128289611 -2.6396130011347263
C -1.6522213047123113 -1.266412537369922 -1.6542099484939894
O -0.5924284849121364 -4.51933724175866 -0.44569183451385097
C -1.2025844212504688 -3.55054964343202 -0.30915756431038943
O 2.487243360172183 2.2143518812258454 -1.3811536420078705
H 3.1581140234424407 2.630358003595162 -1.9596431219111672
Rh 1.6389861824327785 0.5685650468956743 0.6232425599399453
I 1.9280924918716444 -1.4825072024532493 -1.06981780297358
O 4.284745761477656 1.3887687781215534 -0.3593141773236316
C 3.067872817685659 1.4395434038127353 -0.42390299156401073
O 2.7091968191732945 2.520202277097801 2.6189527755902637
C 2.191141585209762 1.7875385552398357 1.8895108807155825
