12
## STRUCTURE-ID: 645666f82be70e0fc34f734b ; CHARGE = 0; SPIN = 1
O -1.4707863431108754 -1.0069723232969863 -0.2557098677864231
C -1.6887242388707717 -1.1784016745395194 1.1256861075749498
H -2.077231448061565 -0.26328714398143443 1.5847913279819885
H -0.7699908059156846 -1.473248874151955 1.6412281058928937
H -2.428738112204236 -1.9702459575651299 1.236209386571327
H -0.7612334078452743 -0.35166315107635615 -0.3648099399360611
O 0.689517833432771 0.9037486789272061 -0.16019097055323325
C 1.7619882158135731 0.90461724688781 -1.080128140333994
H 2.7150481564219557 1.0901461906799603 -0.5768296858636551
H 1.612431962157322 1.652943459925553 -1.863385065660484
H 1.7881370329493498 -0.08388324370178818 -1.5345729930508771
H 0.6295811552334528 1.7762467918926357 0.24771173516355868
