12
## STRUCTURE-ID: 64566a0648d8710feb67f9c6 ; CHARGE = 0; SPIN = 1
O -1.424700618975373 -0.7374612497226373 -0.8579212887923332
C -1.4479634038086584 0.2451802210380536 0.08521966397808568
H -2.0356830094840563 -0.039536013823477226 0.9593073041297542
H -1.7333476876819867 1.2311262736596311 -0.3017026810433373
H -0.31202915075177196 0.36848006211807466 0.3938387574062545
H -0.4661653780960541 -0.5868478851318816 -1.279792098041714
O 0.9182542964581627 -0.16624055251735137 -1.3032236122088012
C 1.1123680540167802 0.17396884004312418 0.7662930295143553
H 1.3236320924079483 -0.8747303423599541 0.8882725995550542
H 0.7547972718529414 0.6266755432564994 1.6896761194889476
H 1.9158195494964887 0.75213571982445 0.34276419789124446
H 1.3950179845655821 -0.992750616384534 -1.382731991877519
