12
## STRUCTURE-ID: 6456697984ce8c603a051b80 ; CHARGE = 0; SPIN = 1
O -0.9969029351832113 0.12251434167080545 -0.5041714236371905
C -1.6574428690422391 -0.02492451413904891 0.7669104948894907
H -1.336144093196476 0.7999176387469225 1.3991427762608388
H -1.398852681880253 -0.9690857236369153 1.245660021810399
H -2.7307240358971305 0.04098736090338545 0.5983341080502534
H -1.2865064983639567 -0.5985569823146821 -1.102355001115351
O 2.903497564391762 -0.15932538364865415 -0.2692594888466516
C 0.5782406583867508 0.03436701124896326 -0.40284107493348825
H 0.8333131308379356 -0.9164068504211563 0.03486430745106175
H 0.9255188604935957 0.14015905505179865 -1.4163123891009999
H 0.8649575813808851 0.8640472100008406 0.22096713524404474
H 3.3010453180723363 0.6663068365377405 -0.5709394660724094
