8
## STRUCTURE-ID: 645663de72fdbd7da97b925b ; CHARGE = 0; SPIN = 1
H -2.7189299419350283 0.28765694712676665 0.5094091557526816
I -1.3445021976187186 0.5501736167014866 1.2914840071628353
O 0.04348464395259272 0.03929634627188028 -1.5691389811225849
C -0.06978734554295617 -0.7160464448007124 -0.5459410038564978
H 0.7793992806746178 -0.9258089123598714 0.10028765781925916
H 3.326251849943032 1.6127080686821005 2.4500424662544944
H -0.8257665207546353 -1.4934648394884404 -0.6474883236444698
H 0.8098502312810975 0.6454852178667871 -1.5886549783657167
