18
## STRUCTURE-ID: 64566ebade11612a8f3d7d80 ; CHARGE = -1; SPIN = 1
I -1.9615238952074137 -1.2863854347841446 -0.856407783002125
C -2.293000031171017 -0.14022106906627296 1.3832564778531782
H -1.9910945039675108 0.8970128407166613 1.2779393148102902
H -2.0586013855171283 -0.5805120293944122 2.350385580517314
H -3.353327210995458 -0.2422294251925721 1.204524298440896
O 1.0582652940887736 3.1526127287869943 -1.681239463504134
C 0.8654834441552446 0.5599971253805589 -2.3307288585686248
H -0.036061010937551985 0.8577540122105602 -2.8499261575851387
H 0.9620457105087941 -0.5200655248727455 -2.300873400274823
H 1.7240422269200981 1.0238960685060914 -2.7966847270850517
H 1.0373315893537969 3.9567123346467374 -1.1637695996918074
Rh 0.0985570667860793 -0.9646679776239805 0.9392503956361752
I 0.7175765550891178 0.8282854768732889 3.0427447750660863
I 0.7696155419473167 1.3025673767752912 -0.34915033640879645
O 2.8517504086339827 -1.3856943425059416 -0.28123071383083637
C 1.7803792124060718 -1.286503115488331 0.14319152500839558
O -0.05550970618671795 -3.596497588236302 2.3975798858809263
C -0.11592930590648426 -2.576061456731476 1.8711387867380933
