13
## STRUCTURE-ID: 64566c6c9c18bd399841e588 ; CHARGE = -1; SPIN = 1
O -4.191693414171247 -0.21625235519286476 -1.2289508868457595
C -3.942525759763065 -0.27011083400152336 0.15982734122211265
H -4.3616892656247055 0.602484593322068 0.6700248744080338
H -2.871576583200968 -0.32642377787427335 0.3772939453395443
H -4.43192332097503 -1.1693455750986401 0.5293776296626851
H -3.687370796202273 0.5173406051521772 -1.59922501016254
Rh 2.995400755366759 0.3268045222282805 -0.04824618548264586
I 0.4635523716438471 0.4487088947385588 0.5111331514627049
I 2.791381887711798 1.7944950724768984 -2.1877001795803497
O 5.9159787584285555 0.13332526661508035 -0.630927001726055
C 4.788511849156342 0.20568103996721185 -0.4068156443278933
O 3.3332072745316492 -1.3455359185221232 2.399732631636235
C 3.1987462430983125 -0.7011715338108531 1.4544753343939547
