12
## STRUCTURE-ID: 6456685cf7d2a479ad1d80b6 ; CHARGE = 0; SPIN = 1
O -1.0321434077940608 0.8083114900107898 -0.22202369295694896
C -0.968502671973875 0.7492300145531761 1.1390544625995018
H -0.06922866718209728 0.1068898901324669 1.3603066419823004
H -1.8484496147168512 0.2665296748263051 1.573329472000401
H -0.7766013924683877 1.7322111422421738 1.5790274158720976
H -0.2376428592220628 0.14750195641980765 -0.6259100161604917
O 1.3286610367559992 -0.5801501694322135 0.6769701924299241
C 0.38348814169641043 -0.7420350436500889 -1.3770768995398366
H -0.34725188942326474 -0.5525264677437582 -2.1606203601265106
H 0.33222559353128506 -1.735972649472208 -0.9667921366025762
H 1.379483117367122 -0.42015947887132193 -1.6284699223133596
H 1.8559626134297835 0.22016964098486633 0.6522048428154961
