18
## STRUCTURE-ID: 64568b19690673211b233630 ; CHARGE = -1; SPIN = 1
I -2.690732994190205 -2.4325534054616718 -0.8339253359251507
C -2.3687809619753857 0.4033836284276065 1.1634998541407213
H -2.9289043181914582 0.4166147473503878 0.22575876858932423
H -2.6185549153672856 1.3140887875018394 1.711392042004865
H -2.698559594245927 -0.4539428456107717 1.7704452333689369
O -1.1595840598969493 0.07100743667494824 -1.7320541606485709
C 3.290604991759442 0.8424308763187974 -0.2502950980479141
H 2.967326619766534 1.840564701389897 0.02788155047190057
H 2.897307206422399 0.5559596244095513 -1.2199910372602465
H 4.368749601861951 0.7509166673288378 -0.21589072362405534
H -0.8734277398125537 0.19893766652900208 -2.6551734584040627
Rh -0.3308864232124946 0.17349203881462127 0.8281169418871167
I 0.1492514604042745 2.5348657207563945 1.7456352042600718
I 2.465544970102237 -0.5427804516431526 1.1884838172828198
O 0.8152971279062001 -0.984515755599948 -1.5457630253660661
C -0.21453382627056733 -0.571992208700751 -1.004190179799975
O -0.21604755383937746 -2.4793440775342677 0.6927194411266522
C -0.854069591220846 -1.6371331509513 0.10335016594358068
