12
## STRUCTURE-ID: 6456664b6c40a56b63230d78 ; CHARGE = 0; SPIN = 1
O 0.21797055958868036 -0.17051216245745404 -1.1205604251580203
C -1.0718828530450333 -0.7221972595085849 -0.8599946643075698
H -1.4369096082428319 -1.094221204945389 -1.8129403918179496
H -1.7518327103989986 0.0453452079263695 -0.4830329454141345
H -1.0107813207113823 -1.5404622973615698 -0.141230740420233
H -3.1759504364519633 3.34688346315344 1.8969489017533963
O 1.505539184481201 -0.6903164424994008 0.7483344611984164
C 0.8377757838442996 0.4083087283523458 -0.08063223634776284
H 1.6243565969732134 1.0639846021297459 -0.4619044390776014
H 0.17522470408189045 0.9166223872086467 0.6286760943507598
H 1.997747468311742 -0.3256507827649829 1.5204362009223247
H 2.088742631569192 -1.2377842392331706 0.16590018431837797
