21
## STRUCTURE-ID: 645676291c4468363475cc31 ; CHARGE = -1; SPIN = 1
H -0.9906043748698868 -2.5456370503944568 -0.2543750940723455
I -1.2448917527254244 -1.1282954088412067 0.36771102844168996
O -3.1791198245516146 -1.7191504344891946 -0.009729592440388176
C -2.3385926106950325 2.0286425319041466 1.0266378938605256
H -2.6727988906551854 1.6672080972472616 0.056510355234048015
H -2.9596514420771864 2.871256150800795 1.3188692444560643
H -2.4660199818581656 1.2306639360527691 1.7572059272894291
H -3.808638815872427 -0.9949384284123439 -0.03807933626789083
O 0.8494070747835505 -1.2193021150907926 0.5945719365872043
C -0.8810084558569757 2.451965862694952 0.9468017921542188
H -0.2504670546223535 1.6201734005632773 0.6330072749678836
H -0.7487310980600026 3.248297757599333 0.21893774561494575
H -0.519092698743544 2.8035447862944127 1.909634257282871
H 1.0940541546275087 -0.7804905281570325 1.4126568903338428
Rh 2.6095716446972457 -0.9725250217070626 -1.3404102660657904
I 3.288692079224256 1.3982002778555709 -0.4323833987179931
I 0.6130705082331953 -0.07396829651607975 -2.810576905538575
O 2.020552145432542 -3.65761468276807 -2.496008598364738
C 2.255753891263676 -2.6161068380016124 -2.0534030556366814
O 5.163741436999733 -2.007637214506577 -0.19491991647955834
C 4.164774065326107 -1.6042867821281426 -0.6126581826387362
