12
## STRUCTURE-ID: 64566a7d2a311b5dfa1a5620 ; CHARGE = 0; SPIN = 1
O -0.914721211503172 0.25805201213469264 -1.5828316697948936
C -0.36297473135566466 -0.15681900413724925 1.6690459358871816
H -0.8318071661266462 0.8399354719795226 1.6190805813563038
H -0.9692358950317951 -0.7763763652969317 2.3464783188018643
H 0.632374116680752 -0.04807592597683854 2.1310843067865655
H -0.9008781981124867 -0.41123488792649515 -2.276575201972727
O -0.2834779179149373 -0.7641028987819891 0.44279327241835165
C 0.9596802642927241 0.27483583652739474 -0.9033223254319718
H 1.412838698507991 -0.6964569849291877 -0.9895435989195659
H 1.2015286464909887 0.8145814557029385 -0.003654728776454682
H 1.0487046468031325 0.8967992934347998 -1.7838000472489741
H -0.9920312527309181 -0.23113800273066998 -0.6687548431056483
