19
## STRUCTURE-ID: 64567a1b142c421fe6399e49 ; CHARGE = 0; SPIN = 1
H -3.723330414854548 0.6822730560327067 -0.9865275972978335
I -3.962452396568222 1.1081497071915487 0.5142030031245144
C -1.0969452535996242 1.1487680361794361 0.8526238416689538
H -1.2921561560124855 1.5153027403471426 1.8471638243837505
H -1.1892316286521485 0.07390424065354292 0.6667316167862092
H -1.1623395670143588 1.830981342016269 0.019304870954690235
O 3.383664009058022 1.8567395232606672 -1.056683414941841
C 1.5093949223152536 0.9512771956099554 0.7390909712026241
H 0.381309604959126 1.1675851874608838 0.915507562196053
H 2.059414087418516 1.8828808140627258 0.7831283620045378
H 1.832808901236573 0.2165339641066383 1.4675604584254165
H 3.6093979516166326 2.251958013552801 -1.8956368280667446
Rh -0.09492524577901044 -1.7477754071994211 -0.7844469412897688
I -1.586938763115209 -0.8124459983770864 -2.674141856873003
I 1.6507264647025204 0.1945188919443247 -1.2348905496714389
O 1.8671587027890915 -2.762540585711728 1.2310793321786457
C 1.0848063825122933 -2.3568737597053024 0.49591212935455575
O -1.98854974016617 -4.0440973782405045 -0.3806807925155009
C -1.2818118608462536 -3.157139583184609 -0.5192979916237758
