19
## STRUCTURE-ID: 64568dcc28a0d914d85c0b00 ; CHARGE = -1; SPIN = 1
O -1.4143064005435149 2.166132273641451 0.680263417887159
C -1.5124681578425705 0.6079183422956647 -1.4656180410230082
H -1.5031963769760741 1.1729753094911013 -2.395163435310009
H -1.4308655789037399 -0.4615752976758628 -1.7246832194286985
H -2.464906166545912 0.7420421561044432 -0.9573883682681614
H -1.5646493941477626 3.1153439010128667 0.8455101073276121
O 1.0857200710372952 -1.9360985605606884 -0.6728780552723561
C 0.3845252963592585 -2.3401710574558763 2.3897552335069516
H 1.106216912554341 -1.8935177663225609 3.064974426497061
H 0.8588260000675151 -2.6774098619884477 1.4715930721233954
H -0.1914872166585738 -3.124727054469319 2.8632809305622096
H 1.9789114113388682 -2.021969506820118 -1.0105133129742563
Rh 0.3908474472199056 0.26247699443598443 -0.337087029325692
I 2.437938575457242 0.9416163713075406 1.3131192048174924
I -0.976260105720979 -0.779813371294496 1.7669709658483135
O 2.2402724264575316 0.7030971962122559 -2.5966906528646865
C 1.4749152478466365 0.5943557329236909 -1.7423453897474033
O -0.2690499257114137 2.949028091899067 -1.0747970765904007
C -0.6309840652879735 1.9802961072632956 -0.4183027777653812
