12
## STRUCTURE-ID: 64566825b94152599111299e ; CHARGE = 0; SPIN = 1
O -1.3446717782135953 0.278592063711988 -0.48801761659855286
C -1.78356776284813 -0.050791245833831135 0.8149518889504858
H -0.9536896708390273 0.15701332910381038 1.4877455864848619
H -2.0467929214592133 -1.1091894427140647 0.8901727167971021
H -2.640351632579632 0.5596285996150375 1.1100445420051
H -2.065643524516609 0.12330338961367143 -1.1101747741582915
O 1.269825310157064 -0.6970203272964491 -1.0786128162982842
C 2.122388796356524 0.12585179667147506 -0.3186928200064611
H 1.9142117813827026 0.03762874339342188 0.7530590611951057
H 2.032088133279162 1.1763615521242567 -0.6126018289307887
H 3.1415342966409807 -0.2096859717196697 -0.5079242483067767
H 0.35466897263978303 -0.3916924866696406 -0.9399496911335057
