18
## STRUCTURE-ID: 64566ff1c7e5d636a02648c1 ; CHARGE = -1; SPIN = 1
I 1.8424417005651736 2.077901614838991 -3.9493203317784715
C -2.262993900467482 -1.5815363942549021 0.30087877946492625
H -1.4223065013583798 -1.022839729384533 0.7563053833699128
H -2.0339476515551955 -2.6386746549033093 0.3259828527718382
H -3.1633863161435873 -1.381819783115824 0.8665808493280738
O 2.538721725544882 1.7313039857776218 -0.6244140731152183
C 0.6247906789474924 -0.5411329509499894 -1.9715981307121186
H 0.3463942800863628 -0.5915583413753516 -3.010807173210363
H -2.4019404823303336 -1.2566697634003563 -0.7232839076728735
H 0.24366958317150256 -1.3158679046314479 -1.3285497177042584
H 3.019142322653369 2.161571826808252 -1.339222961828195
Rh 0.07963583699127137 0.759338729256852 1.2813866975627632
I -1.94471777633933 2.354101090565534 1.1005703958439585
I 0.5758931575354431 1.285492261532843 -1.1828921096526523
O 2.6095562353059925 -0.7916857657353407 0.9848780408341267
C 1.6305996274627008 -0.2167575949714212 1.1504819902144343
O -0.16475235441841143 0.4339390687461653 4.251542260865333
C -0.11680016565145536 0.5348943051962038 3.111481155418797
