20
## STRUCTURE-ID: 6456b80c059a1e30a2408608 ; CHARGE = -1; SPIN = 1
C -2.509671436061477 -0.5986829219947796 -0.23716132471468893
O -2.68165907049055 0.41334936890072155 -0.766331673439776
I 2.7499230717667715 -2.4402676540566346 -0.4291394203201953
C 2.35178789402594 0.8346021107088124 0.06119422878879681
H 1.9204295017142345 1.7890910661922583 0.3747264270924575
H 3.057779600960495 1.020717432522832 -0.7601935628972292
H 2.9023231475060216 0.4148980437377608 0.9046977788452341
O -0.7251932137208604 2.299221621095614 0.3123305760863436
C -0.9624163730461164 -2.503116730742852 1.9390936195323105
H -1.2723695121383303 -2.541565576567756 2.978600543737796
H -0.09333867868369916 -3.130391998864789 1.762269056224178
H -1.7760795273050867 -2.7457960091097227 1.2607442236151936
H -1.308826377585169 3.015320510013438 0.6380818576609781
Rh 0.9290947489097452 -0.49002104092114473 -0.7243887892028552
I -0.9063914721528711 -2.1422089791638252 -1.926733975774335
I -0.40031696002625866 -0.45261163770831714 1.5166013574100377
O -1.377979660283631 2.8777702365111275 -1.7503961896131297
C -0.7396345738431368 2.1729837953056146 -1.0035131645108395
O 0.6723122218001018 1.1344955320846464 -2.632823228043735
C 0.17022666865407443 1.0722128320570186 -1.517658340476578
