12
## STRUCTURE-ID: 645664925e6b8c3d116b0e18 ; CHARGE = 0; SPIN = 1
O -1.474273898824394 -0.09000581830280059 -1.3816825953984637
C -0.8809543646587387 0.022607926089463874 -0.12431228640045909
H -0.5093765800902091 1.0517669902521305 0.0796979251492087
H -1.533121415271408 -0.7594244431978776 0.5050472155921144
H -1.757121549484565 0.3147223894944608 0.678648182072027
H -0.9759868088725806 0.3711185632051446 -2.068122321048379
O 0.7793701295548325 -0.8829398149415242 1.447950233856864
C 0.428716752303463 -0.8711245387167146 0.100101380163744
H 3.0997790563838947 3.3772376630335432 -0.16148190042353414
H 1.2183828055701427 -0.471412983287826 -0.5410589577484273
H 0.22682232103902314 -1.902472201347158 -0.20167986053409384
H 1.3777635523505338 -0.16007373228082236 1.666892984719358
