18
## STRUCTURE-ID: 645673706aa8041c652b66b0 ; CHARGE = -1; SPIN = 1
I -4.236591549151492 -0.6853141291489835 -0.9549079879179913
C -1.8159998238186026 0.764781691929081 -0.2478866206023988
H -2.2442370993156007 1.434580194442998 -0.9723062565415647
H -1.42897302627649 -0.17225359985412234 -0.6121108253060351
H -2.3105557238510266 0.7267404503403413 0.7050074625995373
O 0.45836966189343986 -1.44746105195472 -0.8170043443437011
C 0.8547599517022081 1.6470831890856443 -1.7627627874789011
H 0.7416238283462016 0.5966301762272075 -2.0183551156934554
H 1.897419734560065 1.9496160114572527 -1.788825770742967
H 0.22329493162218214 2.2920825452958162 -2.3641198184469516
H 1.1364648724807898 -1.7969218900793855 -1.4034518597357917
Rh 1.1087831995821271 -1.0802683158178543 1.0811343028722342
I 0.18758393269664808 1.8097717377329634 0.27516168361396753
I 3.4984611233205483 -0.5419436345522656 0.16347587194293456
O 2.0669678986718423 -0.6961363638923845 3.883064949363799
C 1.6971274229956523 -0.8010954617153669 2.794132463748067
O -1.3707780099134579 -2.240738779514334 2.281624009520887
C -0.46372132554508816 -1.7591527699818512 1.7581306431483812
