18
## STRUCTURE-ID: 64566ec2c3a8b83008630f10 ; CHARGE = -1; SPIN = 1
I -1.4301289244824702 -2.387598655129372 -1.402698152933013
C -2.5775011075000847 -1.0708376183899875 0.4581866348606726
H -3.480324414928833 -1.5930642908984693 0.182647696376732
H -2.577541055553337 -0.044674470962840815 0.11225741318495201
H -2.3688071925978407 -1.2044517558063284 1.5155821599817834
O 0.10283114947979663 2.7755937953995256 -2.583548819768626
C 1.6742131383100929 1.9913128238694737 -0.48601909326696746
H 2.0014985118607727 2.6289079190003557 -1.2935333039781955
H 2.4536595444517255 1.2974403701969015 -0.19033174085315246
H 1.3420525532479934 2.586570735008169 0.35615991390561325
H -0.56143691064241 2.723241285515031 -3.2697828110914675
Rh 0.06656823785280587 -1.2066289074811438 0.4746014066479121
I 2.6690867912517127 -1.9823853547801997 -0.6740251225208648
I 0.04449104246271235 0.8688779163851003 -1.2236720822862384
O 1.1191191565363252 0.8262354024737408 2.4285820868785426
C 0.6222197572293499 0.05747927291253223 1.726039915429875
O 0.6395470225220216 -3.560098135709823 2.2670089228588384
C 0.260452700499671 -2.705920331602667 1.602544976573618
