12
## STRUCTURE-ID: 645665423eb0810cde2eaac1 ; CHARGE = 0; SPIN = 1
O -0.9869672613426472 2.131759752892433 -0.3163948011759286
C -1.826754720113114 1.2754087173843855 -0.26683577414890175
H -2.883044143753863 1.4838208204295198 -0.4840052179921587
H -1.5859203565744193 0.2369285587650909 -0.0025764621740580916
H -0.06103967301439875 -2.077529372716282 -0.775373346668828
H 0.8993584132189381 1.7110731558150152 0.05758594522172531
O 1.7589381249918121 1.294963752099287 0.2147523114877221
C 0.43864235354222875 -2.0065038728929205 0.1823400154637063
H 0.9141686213234232 -1.0381814475076268 0.27591635080512883
H -0.2797888171310017 -2.139972723453896 0.9810797194347547
H 1.1926430192098216 -2.7798429284598365 0.24904191034610346
H 2.419764439643205 1.9080755876448363 -0.11553065059926598
