21
## STRUCTURE-ID: 64567552d9e45841d61aaa16 ; CHARGE = -1; SPIN = 1
H -3.3257578367963747 0.10319175723354912 2.5555661752316206
I -3.4039534182302114 0.34060168189948886 0.9156457715167391
O -1.2821663553337597 0.578948897278769 1.502859445884197
C -2.3568144710880037 0.6309531991452462 -0.9638428539811229
H -1.928793055042932 1.6239835484830907 -0.9644097978587796
H -3.1006782146722798 0.5078199122565447 -1.7405445504151171
H -1.577817303111784 -0.11716086837540646 -1.0424150645504908
H -1.1290131386169286 1.057485076764744 2.3207749991102142
O 0.751729234624427 -1.6728475444919715 -1.086416571633992
C 2.0626689074285305 1.1044248999367472 -2.1763831762594394
H 1.6776330502636245 0.09420150348546336 -2.276132246774678
H 3.142180788536973 1.0960348093902532 -2.08792774118703
H 1.7290353974345325 1.7384768383476341 -2.986747522641246
H 1.3854183809454235 -2.3142502810929435 -1.4233750710073017
Rh 1.223310535060728 -1.0603815355156276 0.8719529117354201
I 1.2611055981446688 1.8782402806197496 -0.3423941083716618
I 3.8223049667302877 -1.2490837857602424 0.36660446156351706
O 1.7265123028493652 -0.4496692606236674 3.747170446570109
C 1.549077727970991 -0.6539464616948776 2.6159475377667394
O -1.6249522027259942 -1.8902235990395222 1.0638666703951307
C -0.601030894371279 -1.3467990682469493 1.1302002849071653
