13
## STRUCTURE-ID: 6456892f27d1ad06a86cdb43 ; CHARGE = -1; SPIN = 1
I -2.590948186754582 1.212821514227658 1.732281167547347
O 2.2401596753217192 2.1833073038866715 -0.7318578134886167
C 1.3379111547459999 -0.09545710207034894 0.18847344828036136
H 1.6673716608117648 -0.3805686476104787 -0.8002097684304904
H 2.140867439275975 0.19171615396107924 0.8560335368549422
H 2.442249009076682 3.050500461469043 -1.094940226581031
Rh -1.3889652527200673 -0.20941236943828193 -0.14037561820903613
I -0.9103168889700941 -1.1810279788686544 -2.563323610255691
I 0.1382665169480577 1.9083171178082783 -0.6548903654680471
O -3.1709878932261573 -2.5324310835545956 0.43634578816572117
C -2.408444509582696 -1.69260240952414 0.2631203880746825
O 0.19830667425602416 -1.600820384373194 1.7215410264939628
C 0.30453060081737426 -0.8543425759130323 0.7878020470159016
