9
## STRUCTURE-ID: 64566fc65a239478fe6f2c9d ; CHARGE = -2; SPIN = 1
O -0.2916765119861545 -1.1126154766990346 -1.528159074677473
H 0.25132995163734745 -1.5707705596075558 -2.200925758107635
Rh -0.30799977503701464 0.8127987328844399 0.6226049573557895
I -0.8869694248879425 2.3301876766322214 2.7225341508738445
I -0.8059183565134375 2.659897599892266 -1.157939912197196
O 1.7001863029926532 -0.23518525373605295 -1.0568326383810294
C 0.4892592251546961 -0.25720725076064643 -0.7904281615019748
O -0.004983441653492203 -1.8638850871802193 1.8930930341642105
C -0.14322796970665386 -0.7632203814254189 1.4960534024714633
