18
## STRUCTURE-ID: 645670350c99863a885c0b08 ; CHARGE = -1; SPIN = 1
I -2.2167027161421835 -0.25462711167823604 -0.4930293192387144
C -2.4742688926367404 0.7285987287923428 1.466683379374761
H 0.06980327664866656 1.1735720061281067 2.656947549296982
H -3.1119084219492668 0.0573188176074212 2.043418007361295
H -3.0212865834230835 1.648788493278686 1.256313001174617
O 2.5532821721883163 0.49373771727653676 1.6097329867048304
C 0.38839497206311396 -1.7050992546239374 -2.9577040994966137
H -0.6734890193891863 -1.9178934002519987 -2.952050600591312
H 0.8139917642851595 -1.843178854204356 -1.97193563781154
H 0.9110523196305625 -2.2986070406926458 -3.6953414905001627
H 3.4131612910616256 0.15968010336268595 1.2778849119237654
Rh -0.3700586313197701 0.5463348230401083 1.3601703513996926
I -0.4828722399802165 -1.812774220050432 2.609314658005213
I 0.6384765483916627 0.35589821468597854 -3.4733440133329148
O 1.7582087240022803 -0.6230553347067964 -0.13361379030137288
C 1.5247595765390336 0.0655069334420269 0.8550724183276592
O 0.297493205451487 3.0977892812942938 0.0040719351796299425
C -0.018037345421455856 2.128010097300209 0.5374097525241476
