14
## STRUCTURE-ID: 64567b22d3ff68071973b9ee ; CHARGE = 0; SPIN = 1
H -2.7081752794848852 0.5306860104508775 -2.984392345745258
I -3.4716214708376665 -0.5395069381073673 -2.130386970167625
C -0.7665727806085398 -0.4066732466680943 0.8646064209260915
H -0.7313502716631438 -0.7775097436196343 1.887803218523387
H -0.9405504064617114 -1.2251551217864844 0.15888989510069926
H -1.5304488270397347 0.3664038651030038 0.7535991962678135
O 1.544906874901494 -1.0006278063294187 -1.059963753918566
Rh 1.070815655670926 0.4314247941442396 0.2577446885432065
I 0.20390454131683028 2.024880525179835 -1.5614041681128676
I 0.742883588796184 -1.5471314732072772 -2.7696677763973905
O 2.6892211761255833 -1.6372885420596646 1.6703340494224
C 2.03173405668365 -0.8027107865720754 1.284181451161983
O 0.9196989930442548 2.7497000010206003 2.148261936277946
C 0.9455541495567502 1.8335084624514526 1.480394158118189
