13
## STRUCTURE-ID: 64568c070f0492043967f9b4 ; CHARGE = -1; SPIN = 1
I 0.008229104384724626 2.6975278764428654 -0.2864485114575052
O -0.7034155695825945 -1.4489734239974634 -2.9896896718999217
C -0.8593661348054629 1.0315475880793947 3.4730730487043733
H -1.829701544868751 0.5900994015867915 3.3471642999878224
H -0.7691610821232043 2.081770230195504 3.6776525908068587
H -0.48208573562005835 -1.4169503935609888 -3.9432574715523656
Rh 1.1311841049141862 0.3738477279795452 0.0007216439527220066
I 0.7071679247358204 0.09893426435354188 2.589037787394157
I 3.0978201426415146 -1.3198851892670067 0.09929840629518757
O -1.1215605175798824 -1.3085094751811606 -0.2244403544902425
C -0.21975087539967156 -0.7114276415226948 -0.7748150770363912
O 0.9690531079573957 0.011639056772158476 -2.71256752183133
C 0.071587075345961 -0.6796200218804843 -2.2557291688733563
