13
## STRUCTURE-ID: 6456898174f9862abb30456a ; CHARGE = -1; SPIN = 1
I 1.2663314468390554 -2.331950236679831 0.38899627622784366
O -0.2049697270479611 1.0485131997945092 1.3003700329335979
C -1.3281802123220423 -0.26860284876548995 -1.0560088107353132
H -1.3738347929731407 -1.29927132431338 -1.4112133628413168
H -2.078052319319415 0.35706121077855946 -1.544534654822525
H -0.1532278245863908 1.2856710218726681 2.2262803738531995
Rh 1.6742222986633524 0.19534987891876607 -0.18934782865716013
I -3.9001837886808994 -1.9152761172713024 0.4307631889815999
I -1.7021604922614877 -0.3138097166522701 1.0336958789964996
O 4.155272376424893 1.1051327508846214 1.2573168276091464
C 3.2549224511894894 0.6290790761010078 0.6885835636051353
O 0.3228495392875316 1.2346255025581256 -1.933011553168797
C 0.06701104478702075 0.2734776027740225 -1.1918899319819125
