17
## STRUCTURE-ID: 64568b42ff5c185279333bda ; CHARGE = 0; SPIN = 1
C -1.288850752331685 0.904645012488985 0.567704957807596
H -1.3392801790680202 1.6105736139187448 -0.2667729799780211
H -1.7990090695005254 -0.019690351223187377 0.3068965780288092
H -1.7870718577609035 1.349970886572263 1.4323057360522762
O -0.3132480068682302 -1.9029296009020311 0.10600393954626143
C 0.0006201126523747496 -0.11353863418126803 -2.768725442971396
H -0.6403212680286035 -0.6603894610861747 -2.085231926966831
H 0.5255342808766466 -0.777997287086638 -3.446115234185681
H -0.5507972077791847 0.6449467030392411 -3.313667871788459
H -0.17432367255773842 -2.869293615454605 0.004202720320391647
Rh 0.7568841594671109 0.6632781426791404 0.9862151737315303
I 1.4944945105148477 0.9218280735549073 -1.557778038740512
I 2.303732486668101 2.747876396868196 1.7074218218360582
O 0.09479852867748506 0.20457487975322222 3.8455479114667526
C 0.3188299912488283 0.3935428241751002 2.743140785407097
O 1.7158223005453388 -1.811055140992154 1.0492844637957557
C 0.6821856432441544 -1.286342442123762 0.6895674066383723
