19
## STRUCTURE-ID: 64568de08900c304e62cdf8b ; CHARGE = -1; SPIN = 1
O -1.1344526711570468 2.3844991878644897 0.13226927258396942
C -1.6316605531282935 0.41912880200986147 -1.83921719436457
H -1.5837986553938992 -0.6424036320316695 -2.0724605815454025
H -2.281632241594748 0.5924439568374079 -0.9870530810287318
H -2.030118328787439 0.9467917903702197 -2.705352992922796
H -0.8831341300916855 3.005220736154865 0.8383084248348792
O 1.6556599157673366 -1.5408091631710894 -0.4324012365162357
C 0.2510704763103496 -2.2514709107293567 2.4056708713342347
H 0.6859329575692402 -1.8873819514896233 3.3275696007356435
H 1.014417172169194 -2.3851022077389614 1.6487849094156493
H -0.3274361879937783 -3.152802221468836 2.55666291553082
H 1.711652537151937 -1.7537731756657065 -1.369831307582814
Rh 1.289660001229649 0.3910064108240322 -0.23869321816430247
I 2.805146216709415 0.5106299558919662 1.8803845343656644
I -1.072768898518657 -0.731225071264675 1.665166592070651
O 0.7588092046499465 0.6044706965930736 -2.2749666346868556
C -0.2538789993441312 0.9611682530072764 -1.582363242901112
O 1.0772158751698067 2.5290150152044375 -0.37632631062246147
C -0.05068369071665162 2.000593528802593 -0.5761513205355114
