18
## STRUCTURE-ID: 64568941f4fd5f69bf610ab0 ; CHARGE = -1; SPIN = 1
I -0.19403475382435273 -3.5593353919611395 2.0473613290844415
C -1.703651713892959 -0.9096979713782981 0.08402843348153463
H -1.2863622390791836 -1.3865382732418567 -0.8135139398736188
H -2.1180657239185874 0.0570915369050984 -0.1979734444004013
H -2.505787374955889 -1.5591205096063294 0.4349329580846864
O 1.1355332076797087 3.3699086483385976 -0.9846478440903861
C 0.3341758258668774 0.9619286304427794 -1.8795009926078945
H -0.7275196401629459 1.1405541256923666 -1.989415300165199
H 0.5850704380202315 -0.07740606162600824 -2.058471208651229
H 0.8965440717226131 1.6262263230457938 -2.521185627576291
H 1.443584428382557 4.060262935771888 -0.3963526401549921
Rh 0.3112648362413737 -1.0036469440960316 1.1147809227664325
I 1.9746130181101764 -0.10213337581212235 3.044577050392608
I 0.9156974692440868 1.4569497858682248 0.11560973473373017
O 2.6146395353343075 -2.0555864988337516 -0.5233973033923163
C 1.7111803207252825 -1.6566341241679285 0.066415831675837
O -2.1364568758404676 0.024962582744007904 2.5398072487194243
C -1.250424829652743 -0.38778541808522116 1.916944791973689
