21
## STRUCTURE-ID: 6456768d19477c33893ae5f4 ; CHARGE = -1; SPIN = 1
H -1.4342605469807488 2.6282400578827034 0.30598658343571483
I -1.620739595674958 3.433245836422582 1.6401080361395155
O -1.523381233483733 2.0816864486468045 -1.647078765994275
C -1.1364274430411963 -0.36840002336946875 1.6373039682561414
H -0.8477271894717181 0.09508970980426829 2.571575775748661
H -0.5039632089410386 0.035819311177512976 0.8237522421726341
H -2.1734082866307673 -0.14830930524447442 1.4190174709689665
H -2.083755813345164 2.572427138458582 -2.281232927511977
O 2.340031565163545 -0.651909422885873 -0.11317634748358152
C 0.838338779436539 -4.261326426676696 0.8907645242177106
H -0.9987900995580263 -1.440468711626587 1.6935698803912405
H 0.5734216032783623 -4.285421909906994 1.9318956571425794
H 0.17090685538176553 -4.677719620791032 0.15831274817667915
H 2.8760103567425004 -0.277904885788588 0.5898010890742222
Rh 0.7852702932185062 0.5632826458003933 -1.1309621871271163
I 2.2375548120984132 -2.9651240763681352 0.27965167656893686
I -0.24978462322849337 -1.570561471228509 -2.1182051111572795
O -0.1199224219649395 2.074867304139214 -3.3769706921305027
C -0.339807133849852 1.6940580157999685 -2.232841824958072
O 1.7720791016602953 3.285477169686085 -0.42871443825419525
C 1.4383542291906624 2.1829522160682258 -0.61255735767602
