13
## STRUCTURE-ID: 64566dea1ac36f24fc2fdd8b ; CHARGE = 0; SPIN = 1
Rh -2.237349495307393 -0.6554191908581992 0.18525862215403668
I -0.8339057115797914 -0.31528052769719067 -1.958826611424814
I -0.28678484772147417 0.02654497244915355 1.7166424272451835
O -3.8999526239772715 -1.1891514041741578 2.6051521476129293
C -3.251096744386269 -0.9658742432686253 1.6782969796145346
O -4.586133527879375 -1.3944402653570525 -1.5031730974509019
C -3.6696801667130696 -1.1122501329124415 -0.864127120908039
H 2.4136441218897304 0.8616619773431862 1.7454511208318284
I 3.866488309629579 0.9999557390019883 1.0993256729465213
C 3.1943264102423408 0.9439581563231462 -0.9530088894921703
H 4.082894829206377 0.8346118427201271 -1.568384261699499
H 2.5320132820287125 0.08686940098841325 -1.040779439333295
H 2.6755361645678994 1.8788136754416354 -1.1418275500963087
