18
## STRUCTURE-ID: 645673710b622512ac4dd53e ; CHARGE = -1; SPIN = 1
I -0.7206197875613146 -2.003020337837789 2.249309674588204
C -2.510261590314879 0.66386439817159 0.4729927704828128
H -3.1657190145021397 -0.20427927683459413 0.34317046296825365
H -2.7273658205105407 1.4053848059433798 -0.29555490089795033
H -2.685391342855177 1.095739281612918 1.4610365566408965
O -0.8681278152147658 1.9518288557016148 -1.7410947287947374
C 2.4204925669368507 -1.8071503682222627 -0.08535651352332306
H 1.7958750072455874 -0.9441165974425788 0.17576062136968207
H 2.096009964469443 -2.6912629816339244 0.45052628655436217
H 2.399377210000644 -1.9727295655293726 -1.1555947791148944
H -0.4315634617002023 2.485952422711055 -2.4367594588954873
Rh -0.5746221678789732 -0.10680284835997791 0.29879789282691477
I 4.41703964726985 -1.3563859728599175 0.49234900017457056
I -1.0453971056982652 -1.7595558504902935 -1.6863114800927337
O 0.43694084478680445 1.8137135319288986 2.3230478093588536
C -0.0007041850443846128 1.0789523105865733 1.5557534221986427
O 1.1814616342942308 1.1781778310018756 -1.328381581886917
C -0.017424583723677313 1.1716903615533554 -1.093691053956774
