8
## STRUCTURE-ID: 645664277d05d844cc230d7b ; CHARGE = 0; SPIN = 1
H -2.7219391837479985 0.3709416660097107 0.6180692978706221
I -1.3166787001177183 0.5944826041311022 1.3549469804026093
O 0.07373394789841763 -0.018911284960898857 -1.4724407262446602
C -0.12232022495571025 -0.7653396107914343 -0.4533287034033902
H 0.6953322510440149 -1.0500860769191998 0.20491974541103708
H 3.441956112557542 1.824470048813156 1.799153080348053
H -0.935829967546011 -1.479253716824247 -0.5773969315817624
H 0.8857457648674625 0.5236963705418058 -1.4739227428025095
