12
## STRUCTURE-ID: 6456689f2a0ac91d13071031 ; CHARGE = 0; SPIN = 1
O -1.3156756802449 -0.08609639090725016 -0.8071984773758177
C -1.8140004165841737 -0.19787288095778902 0.49344700229174215
H -1.4829937459321303 0.6321524685547822 1.1300787302337143
H -1.5254449060825854 -1.1468146156560073 0.960402715946922
H -2.902762282009742 -0.16151081233533318 0.41972355244615106
H -0.30566751454434693 -0.13135824305691562 -0.7828757160406523
O 1.1879625218848253 -0.14636532609128508 -0.5476934549158051
C 1.5679476419826464 0.4141846180202605 0.6185719759636616
H 1.1690186607747426 -0.12108892168666684 1.498345090857608
H 1.3159859888324748 1.4870067380557586 0.6793383019304373
H 2.6685366192122677 0.34605061573443924 0.6936630012297135
H 1.437093112710931 -0.88828724967399 -4.355802722567678
