18
## STRUCTURE-ID: 6456707b41b99a78295eb02b ; CHARGE = -1; SPIN = 1
I -3.5935264974306094 1.323918789530112 -1.0418233053167416
C -2.5171078901043886 0.4453749198663823 0.5704108625974289
H -1.4989984769781726 0.8162506971211559 0.5388929425287629
H -2.5409410807092088 -0.6292301671962776 0.44333120249575536
H -2.9937945354680116 0.7359207600924833 1.4972702679171401
O 0.6568306342138177 1.402554987447469 0.4318746351898356
C 0.1334850043285993 0.1382354189186273 -2.5175107888659585
H 1.0319218099776442 0.13561054716089255 -3.122256471150482
H 0.18096735341040204 0.916504751259813 -1.7615895965825186
H -0.7609716241582408 0.22336299943091312 -3.121085202194638
H 1.272751236979754 2.1062558040275445 0.20449900057850326
Rh 1.6049951126817328 -0.3594005358753768 0.982794925246763
I 3.6498049096474188 0.22680828136023523 -0.5587898583361891
I 0.05671709627646335 -1.7373800865540698 -1.459720890630814
O -0.49640160573417086 -0.5749392804744373 3.0970509292612523
C 0.3078977825978017 -0.5227128020648968 2.2704471808975297
O 3.038109998071142 -2.7805681113958474 1.982987178910118
C 2.4682607723980357 -1.866566972654698 1.5632169874542556
