17
## STRUCTURE-ID: 64568b341f7c0704a273b9da ; CHARGE = 0; SPIN = 1
C -1.6318336114229015 0.839348199391351 1.2022302634437574
H -1.939947198503738 0.7528998960642878 2.246484553832164
H -2.346691809415925 1.4778267286333615 0.6837472975743678
H -1.6161764984376155 -0.161063626966127 0.7635174450382983
O 2.3034852372928802 -1.9885614459123973 0.2515544085311445
C -0.3719880453277256 0.1293895846038102 -2.5591575899205194
H -0.6169474789333945 -0.7244927526150315 -1.9352601760019947
H -0.13537242469895486 -0.1716033940440708 -3.5730521959046215
H -1.1577052778348667 0.875531229564159 -2.5425201573677314
H 2.31213687468601 -2.933134783912944 -0.006580530921778764
Rh 1.2743463382585605 0.3956205237808193 0.8416989627881839
I 1.4195865303692434 1.0492907499694522 -1.7258409844824825
I 1.622237196459701 -0.20502638194253084 3.326221185047068
O 0.03559495835242174 2.61681881699564 1.3739709588360478
C -0.29934679446775386 1.485574146206383 1.1884596660233007
O 0.043362136024659076 -1.976655047356987 0.1144600206125216
C 1.1052598675994523 -1.4617624424592932 0.35006687287218463
