12
## STRUCTURE-ID: 645668f43b279374336aac6b ; CHARGE = 0; SPIN = 1
O -1.8436865874511634 0.20901755723957835 -0.6098124386088487
C -2.143246558218862 0.4990162152671405 0.7789440933684831
H -1.8924041462800776 -0.33903539409413525 1.4265757666987313
H -3.2011125089252257 0.736615361846899 0.8583565320274954
H -1.5598164991004446 1.3711716625395467 1.0642477428234096
H -2.4024046972248114 -0.5334340281404535 -0.9266530620818992
O 0.6335436284183769 -0.6404922461390586 -0.5322197267530058
C 1.763732206496804 -0.23233178938904028 -0.47267380673775455
H 2.6230157186713923 -0.9025570465558427 -0.3769132212365535
H 2.0051123294671713 0.8372221928601984 -0.5096599896691595
H -0.8578426362757235 -0.047062512424532243 -0.6848607595649527
H 6.875109750422579 -0.9581299730097875 -0.015331130267011368
