12
## STRUCTURE-ID: 645668f65b9a3a0525068a10 ; CHARGE = 0; SPIN = 1
O -0.575777387874645 0.5349227021525064 -0.20339152198835705
C -1.210814372764638 -0.32162921272689626 0.7372511286190586
H -0.46093025121174075 -0.524679764278189 1.5004542606233986
H -1.5396380918632717 -1.252602153739567 0.2724335169135475
H -2.056034017756717 0.20446482943403188 1.1806383222686174
H -1.2047256741882855 0.7400000892607649 -0.9266542506216815
O 1.568640722736694 0.5786002241881758 0.9378308076083333
C 0.8985023173762167 -0.26986042818012174 -0.9663136727801637
H 0.21961664115526344 -0.646687527895579 -1.7292718493226207
H 1.3668691372486113 -1.0520357335653798 -0.39941192618436794
H 1.5743101465249465 0.48384221154613366 -1.3233851647347872
H 1.419980830617558 1.5256647638041114 0.9198203495990377
