12
## STRUCTURE-ID: 6456672f6305d36084248ae0 ; CHARGE = 0; SPIN = 1
O -1.3039307092052428 -1.2456529608422136 -0.3985012277678062
C -0.9971085360327315 0.26640541113745453 0.8622008896931561
H -0.5479660591075791 -0.08004226044620857 1.775651736730845
H -2.0778542817693992 0.2247105074687194 0.8434917302363337
H -0.6253531764580869 1.2091455192540324 0.49850247819905513
H -1.463712023657696 -1.9986928995766677 0.18197516766981556
O 0.8398501322246542 -0.38882777374838184 0.06649010992939085
C 1.46596884605056 0.5735355151492411 -0.6820076581691621
H 1.6531630289037245 1.4860594546459653 -0.09168558902880587
H 0.8898263784103377 0.8544571592067409 -1.5793165419996489
H 2.443954354657769 0.19831562545879672 -1.0183473235194944
H -0.27683795401635214 -1.0994132977075275 -0.4584537719735939
