12
## STRUCTURE-ID: 64566578cb91ab11504ed2b8 ; CHARGE = 0; SPIN = 1
O -1.4502576538828966 0.7705878464998015 1.5451274163612554
C -2.2257691336512777 0.24626204030854193 0.4865568392560187
H -3.0272080566830812 -0.3971574738799364 0.8613809920233562
H -1.603752099435342 -0.3156922569080504 -0.21558086498346887
H -2.669998255631818 1.0966742922002228 -0.027784659173082836
H -1.0602988072782966 0.03223305295295069 2.0277343733389857
O 0.9629672056977475 -0.2303479607848844 -0.48821320706888116
C 2.284981702339772 -0.4033688875008999 -0.9487151546600321
H 2.6055652875429556 0.43122825222691774 -1.5790320942689668
H 2.2912248126491277 -1.3163428160570767 -1.541978365728217
H 2.987296134897058 -0.5164534940339094 -0.11676443863366172
H 0.9052488634360817 0.6023774049762853 -0.0027308364633094996
