18
## STRUCTURE-ID: 645670614c7e5a4e9e5c71c1 ; CHARGE = -1; SPIN = 1
I -1.8606045796162463 -2.260761458308143 -2.0872019433906495
C -0.767637200720419 0.5728482417385307 2.2216792230295677
H -1.6016464630053762 0.9343660572408333 2.8202708561878547
H -1.1681417299810926 0.0933573132284606 1.327574419785782
H -0.2209206492215834 -0.1741097330594584 2.7909050259253374
O 0.6252490233936947 -1.9190603023549917 0.3668540401799381
C 0.11864161368567301 1.740024034001068 1.8640517129675842
H 0.5769774581612311 2.1927015187666536 2.739543939331524
H 1.3766426522593473 -2.520016786896229 0.4310725005205306
H -0.4083697225357155 2.489453494704062 1.2768285922288016
H -0.15201348026608727 -2.467481628705781 0.1970026048040534
Rh 0.7925403370259991 -0.03292541440618378 -1.620305633656199
I 3.106996342038793 -1.15707132530149 -2.1878437813356846
I 1.8030128607317273 1.1043809357069831 0.6019227524505459
O -1.7724418286883494 1.4875141810758536 -1.4543654149435248
C -0.7806642336135576 0.8980764435663794 -1.471407905901502
O 0.05379369282963931 -0.5591982175887373 -4.469208939362363
C 0.27858590752210655 -0.4220973534078393 -3.3473720488211085
