12
## STRUCTURE-ID: 64566825d8c3ef08cf56edee ; CHARGE = 0; SPIN = 1
O -2.3533910115651264 -0.9126755511351254 -0.5917061047700874
C -1.3977652235750486 -1.4341981231252718 0.3077315127644217
H -1.2098210211924267 -2.4618173062336086 0.0011599083463079058
H -1.7752028313671868 -1.4327641523239094 1.3349331311792954
H 0.8109753121113312 1.9552217090466315 1.7397772920439514
H -2.525342352386301 0.00690389623564564 -0.35674111168344586
O 1.3966394330806136 0.5065738615503101 -0.2693356642988779
C 2.0758225568897184 0.6617129495948493 -1.244725241668779
H 2.9397831470346247 0.01893077706464741 -1.4661732901033813
H 1.8765201461854546 1.4565816508025642 -1.9776229657943494
H -0.4606469446523166 -0.8716019791479312 0.26730663896301454
H 0.6224287894366644 2.5071322676712025 2.255395895021941
