12
## STRUCTURE-ID: 645688424eff880337071014 ; CHARGE = -1; SPIN = 1
Rh -1.0686572869578401 -0.6755958858285465 0.5153210793176424
I -2.6583978414392764 1.1893938817684868 -0.5338905212919693
I -2.7651143945837644 -2.6441854356032706 -0.04930276993311281
O -0.36134876839073116 1.3049921186390607 2.6017554843802504
C -0.5303162019733276 0.5903677446631425 1.7190927584985773
O 0.10255886941104603 -1.0020049207608042 -1.8055918808648113
C 0.2979380788303733 -0.26067742587029746 -0.8880235338068951
I 0.6851519583293048 -2.3221287671014776 1.6618316393311505
C 1.367215834502583 0.7745805031362555 -0.7984431760120979
H 2.325311562021422 0.2525838153469514 -0.8406805092705044
H 1.2825901533357078 1.4090054422587877 -1.6823473176376056
H 1.3230680369145096 1.3836689293516955 0.10027874728938102
