21
## STRUCTURE-ID: 64567a2eab65841b87111df9 ; CHARGE = -1; SPIN = 1
H -3.528328416505551 2.0287386113923773 -0.48745080837404253
I -3.5095292445175352 0.8295334189195798 0.677546734533323
O -3.0354783878254223 -0.923457970073163 2.2326637138912004
C -0.9507012206395646 0.37310110954338666 0.3814299152576228
H -0.7628487815033831 1.3349247817043406 0.8289418695268139
H -1.1314789895539 0.3155721524035941 -0.6816438983231533
H -1.2200531170883926 -0.448075044371527 1.02161831421428
H -3.8282216206368656 -1.1492328198787465 2.7167331931828205
O 1.2377862796970611 1.7071426632946063 2.2337371313982692
C 0.8325523513534868 -0.9912981443832646 -3.8597056125454685
H 1.3647817952148595 -0.049818407125723094 -3.765420640448379
H -0.21644334914804583 -0.8293303643376255 -4.07877774129563
H 1.2968687935905805 -1.6418423287740098 -4.591280554474836
H 1.699007487591487 2.205229242932596 2.9377463616794333
Rh 1.3185641912258577 -0.25323351354999524 0.16461781996103814
I 1.93130643266854 1.7413589978774333 -1.3665350206944926
I 0.9478684565366515 -2.013415571098418 -1.9208025642029696
O 3.1989403001475787 0.6705967449225557 2.0143409058679818
C 2.041537524093863 0.8120583306448313 1.6419287633495316
O 1.1564445869894682 -2.2094272882374675 2.410218592735059
C 1.1574249283091795 -1.5091246018053042 1.4900935247616975
