12
## STRUCTURE-ID: 6456685a6b01f65b471a562e ; CHARGE = 0; SPIN = 1
O -2.00705936296068 0.4147365459316195 0.9416254464926714
C -1.5123574575936187 0.48584646252825586 2.261153956775713
H -1.0926048941508921 1.4825167102072085 2.3846237535955734
H -0.7249581055221366 -0.25475993443262734 2.4329986577139904
H -2.3091599365836273 0.3440297396157401 2.9968518026037194
H -2.4151929085570774 -0.4494886039234294 0.8094053874794327
O 1.9801789728862234 -1.2922425500573997 -1.5562093100608627
C 1.7664896060584017 -0.008526005641975806 -2.1023324991160806
H 2.7476183395059803 0.44935504604677123 -2.217333188263999
H 1.1580866965184493 0.6135768281911955 -1.4387075259918798
H 1.284680469625246 -0.06630696674584446 -3.083539840084057
H 1.1242785807737277 -1.718737271719522 -1.4285366411442177
