12
## STRUCTURE-ID: 645668f280323339267cab8b ; CHARGE = 0; SPIN = 1
O -1.4244884765796257 1.0468226696154441 -0.24779691853245256
C -1.6138153321273139 0.2153390498854083 0.8780280993964267
H -2.4688481823390696 -0.45363053246052915 0.742509853493413
H -1.7583399589094761 0.8052551478215144 1.7886508534815204
H -0.7111498062033695 -0.38449326710589293 0.9834292549043953
H -2.2223829469487857 1.571480525781016 -0.3846251769853153
O 1.8469737808405549 -0.7750830630743345 0.4034126491885441
C 1.5937504595060756 -0.5453472339630738 -0.9681457336658683
H 1.2250393660766097 -1.4841939537409585 -1.3777861474011468
H 2.507117611447122 -0.2600201982966792 -1.4987843377128263
H 0.8314614790965493 0.22619556540310326 -1.1080848567106694
H 2.1946820061407273 0.0376752901349762 0.7891924605439877
