12
## STRUCTURE-ID: 6456649b37dc9f631c6a6030 ; CHARGE = 0; SPIN = 1
O -0.5949373922618888 0.338612787796543 0.7017875371648831
C -1.5957357663772234 -0.29993941588464695 -0.018602676300016417
H -2.5243724273212296 -0.26092152924507084 0.5514504634109448
H -1.3344821436446395 -1.3605191559759806 -0.10110867135204306
H -1.7423179510772475 0.15004218417161463 -1.0046840291114854
H -1.3867386051176258 1.78483920338839 1.5553176515969558
O 0.8279952778338775 -0.5921309071381562 0.3377879635691567
C 1.627538775414502 0.07718144274306789 -0.6252142843982094
H 1.80064380187137 1.1186486812531011 -0.35509030395635877
H 1.1103153147023577 0.02305378076951717 -1.5812426809475602
H 2.5779827455297357 -0.4578617959004161 -0.6875918896516724
H 1.2341083704480091 -0.5210052759779676 1.2271909199754145
