23
## STRUCTURE-ID: 6456b88b8a2cf456e75eddfd ; CHARGE = -1; SPIN = 1
C -1.9475743461331418 0.9983417396102903 0.3657667711027817
O -3.028854498451042 0.6919924067239112 -0.06695395856170293
H -1.5993414341834644 2.0401237987947733 0.3764749232875457
I -0.10505401514601152 1.21727012868841 -2.129433515014508
O -0.7920211817747713 -1.5310082919503307 -0.7096239638462782
C 0.49837443803896164 3.330041654487688 -2.2865079930423686
H 1.2845334039875167 3.390477087455726 -3.0285638985092787
H 0.8554701910916288 3.637076477553832 -1.3078439542825293
H -0.37419392366838955 3.8979846013814528 -2.585116689512047
H -1.331926591970861 -2.297526927300833 -0.8986589723801738
O -2.516463189506582 -1.5165356496434774 1.4900568638519123
C -0.13181754505027543 -2.506298124183087 2.121867095171083
H -0.8371458907909087 -2.7867704164645586 2.894223564834814
H 0.8782652688897581 -2.4722558282848786 2.5196217389636106
H -0.18812072324459553 -3.2149819588683046 1.3042387919886937
H -3.144093964527139 -0.9730301015173027 1.0167100754596845
Rh 1.4843243415752985 0.0908105395125529 0.21251769441407395
I 1.1157879322148998 2.282875045602229 1.5305970574744192
I -0.7190492824433373 -0.5482802173431012 1.3920321744298412
O 1.617420556444855 -2.7604394097664513 -0.7073048897021187
C 1.426960325337179 -1.6592544686064108 -0.4154877917949266
O 4.326558779269787 0.3578926605336733 -0.71303971905949
C 3.227961350040622 0.3314952535842336 -0.3755714052730352
