18
## STRUCTURE-ID: 64566ee160a54e5bb6408606 ; CHARGE = -1; SPIN = 1
I -2.491947124172677 0.25784933751769484 -0.4271530019556572
C -1.765787776869443 1.6353526201223363 1.0373654473005571
H -1.9641837262707351 2.6439207951297887 0.6849714033675637
H -0.633147371183957 1.4869434640757386 1.0993480196790077
H -2.2399579250493304 1.4187205298881678 1.9902202251852281
O 1.747751722684614 2.7667605671476525 -1.0210449306240947
C 1.000669266157352 1.1153946992987704 0.9503106449487789
H 1.4572725854219672 2.075065216823656 1.1297656786333745
H 2.9624570289191388 -2.35723884342846 -0.31166487391933806
H 1.0809459251560884 0.35333314173302166 1.7089065322530421
H 1.6541829749214514 3.123748199820585 -1.9043289299222474
Rh -0.34996720188306685 -1.620981755969632 -0.8866076149754246
I -0.31894138777050096 -1.3674136595736262 -3.5028165325554457
I 1.1237214278834053 0.47970261940206493 -0.9783222196066128
O 0.6314157910915247 -2.2083973053967996 1.8836162722982535
C 0.2448968083890653 -1.933213441677507 0.8394665395212717
O -1.1316437733963114 -4.498324065238498 -1.2217890976099015
C -1.0077372440285843 -3.371222119674943 -1.070243562018349
