12
## STRUCTURE-ID: 6456697a7fc47e159b399e4b ; CHARGE = 0; SPIN = 1
O -0.28469727839726905 0.10032597086478368 -0.23745174250019987
C -1.1592889812945295 -0.5948447982624792 0.624332021945041
H -0.6065927773479789 -1.2873666422642525 1.2689245164731036
H -1.9038274894046179 -1.159091462275615 0.052718450012210684
H -1.658533346050612 0.15468080500280518 1.2336747708577729
H 0.5325122115968819 1.7867705026207945 0.3334172617103445
O 1.0444934907166354 2.523825954351361 0.6955870809756128
C 0.42160870643309345 -0.755222613173678 -1.109719248300568
H 1.0674994384958234 -1.4403215314246376 -0.5487194158437119
H 1.028036861200641 -0.11819002062287161 -1.749278228292229
H -0.26778613887833524 -1.3419638878025977 -1.7261820849422422
H 1.7865753029302598 2.131397722986387 1.1626966179048717
