18
## STRUCTURE-ID: 64568b60a372586db11aaa04 ; CHARGE = -1; SPIN = 1
I -2.544203732976293 0.9967301481769252 1.9841136529240608
C -1.8159409802451476 -1.8140996171617767 -0.504780386170999
H -1.5144356384232727 -1.9716647784875327 0.5246424589789817
H -1.6115367076233962 -2.688855984389471 -1.1100609581707677
H -2.8592987319703074 -1.5213487410841846 -0.5590427374251457
O 0.07755830462686861 2.54860496778086 0.5248324374831042
C 1.1227787609799034 0.9440451931045636 -2.084211409056745
H 1.7866507268619216 0.23383175102914838 -2.560777239568432
H 1.591653369556727 1.4312250698637765 -1.2370401594250782
H 0.7571300529524277 1.6832002590365431 -2.7883639238111897
H -0.7442978701046399 3.0443634673685938 0.5916459497878223
Rh 0.002534464341042369 0.7032693817988048 1.3863968283253405
I 1.5446390648689616 -2.1496792496762893 -0.6919666787239542
I -0.6917848588492784 -0.09583503088043671 -1.3875984333015603
O 2.9915888527966077 0.6871459383889614 1.3319166006024232
C 1.8416658069933618 0.6742042678597566 1.2922967842769941
O 0.050389286970274616 -1.8234780171488496 2.9774120889266262
C 0.014909829244248315 -0.8816590255793773 2.3105851243485436
