12
## STRUCTURE-ID: 645664add6e0ca1b701aaa10 ; CHARGE = 0; SPIN = 1
O -0.49172291328742623 0.5870119462206018 0.2738702562342457
C -1.345173136693347 -0.2617372808608807 -0.48318751101201846
H -2.2191654383573125 0.30708372605334466 -0.7999729540366632
H -1.646215977282235 -1.1405524694700049 0.089408113710787
H -0.7629968235520628 -0.5592232681866827 -1.3541664041644963
H -0.9606381376271255 0.8718193598585593 1.0860748470130106
O 1.3961771475282236 0.39838964589760967 -1.2455618721865054
C 1.044323790438191 -0.2869974166898083 0.8037552538495886
H 1.8259428777740312 0.428924166288355 0.9733736822147337
H 1.3406161896483972 -1.1356993888526743 0.2167604582642541
H 0.5004350355370273 -0.5628700990312947 1.7054588995615587
H 1.3184173858736452 1.3538510787728684 -1.2658127694484989
