18
## STRUCTURE-ID: 6456737c65382562866aac66 ; CHARGE = -1; SPIN = 1
I -2.7948149149025037 -3.000596733545081 -0.6361990514472479
C -3.4352520396186317 -1.0413397675543652 -1.2354033534378115
H -4.230274610102892 -1.1681613580837527 -1.9593135758451325
H -2.578275944530868 -0.5364758518515628 -1.6692642161794717
H -3.7813854771800823 -0.5309693843962239 -0.34567097990268486
O 3.422508813165353 0.30531465418977205 -0.8478441533618984
C -0.8578836498119706 -1.9703702270085934 0.6403166980662612
H -0.34207385147236946 -2.894600642147542 0.8080234920156455
H -0.6122911086894506 -1.3669845757943977 -0.21116941773263714
H -1.493340392145947 -1.5812882085113573 1.4104379606421715
H 2.953779321750865 -0.18204218167286948 -1.5346592024095744
Rh 2.1703539752105208 1.6010226856214944 0.22279044503539341
I 1.2166728935050197 -0.6807876565919132 1.900700764334158
I 0.1880534055232963 1.2235065381720314 -1.4920477048727119
O 0.625574369136533 3.7353183774990466 1.6171632692248323
C 1.1924777587324156 2.870316416910013 1.0856849763229155
O 4.650359884624314 2.8693175166728744 1.3369936839801333
C 3.705811566806379 2.3488203980924167 0.9094603655676694
