12
## STRUCTURE-ID: 645664aa06ea23230d763450 ; CHARGE = 0; SPIN = 1
O -0.49175230593177205 -0.5870254006707903 0.27382163113775615
C -1.3452386982660136 0.26176854834344665 -0.48314553786715275
H -1.6462078303434176 1.1405771516483918 0.08950028830683004
H -2.21927472490454 -0.30701536571998583 -0.7998758413728552
H -0.7631250496962435 0.5592594714729869 -1.3541630476022746
H -0.9606356331033902 -0.87188288099041 1.0860282670454549
O 1.3960575694386679 -0.39841448235223675 -1.2456314888873137
C 1.0442863372694005 0.2869974697319961 0.8036774706123172
H 1.3404722647469407 1.1357414758842452 0.21668686865918116
H 1.8259825419461542 -0.4288530550380051 0.9732532276754355
H 0.5004319175016021 0.5627984622447283 1.7054271835579016
H 1.3190036113426131 -1.353951394554373 -1.2655790212653204
