12
## STRUCTURE-ID: 645669766df9f82ef473b9e8 ; CHARGE = 0; SPIN = 1
O -1.6396176903513318 -0.9303284442478951 0.4871435769370112
C -1.5920103382046158 0.24053425380897328 1.268690829072575
H -0.8392613767392044 0.16348302442650575 2.0598464476593983
H -2.5740553654492726 0.35843405707243225 1.7251974649636956
H -1.3768719011793353 1.1225921189056205 0.6567699825000033
H -0.7684733525063546 -1.0488252204127675 0.07177339201415557
O 1.0565523085876984 -0.8367832050327606 -0.5149258551184622
C 1.4146426540314159 0.31028964404324033 -1.257742396039543
H 2.1232190990761795 0.06417397734329171 -2.0529675890423977
H 1.8449622758454096 1.0828455434161908 -0.6136429002928135
H 0.49962899533577926 0.6917187995085202 -1.7074289999186292
H 1.8512846915536125 -1.2181345488313646 -0.12271395273503377
