12
## STRUCTURE-ID: 6456697a7f332057c04efcbb ; CHARGE = 0; SPIN = 1
O 0.0582142708906061 0.08306334557664484 -0.06609232473065106
C -1.2897726959226283 -0.06903242540983275 -0.45419753726994133
H -1.8819921624934026 -0.05721795112528654 0.4577730695081396
H -1.4401621787235048 -1.0182863511412252 -0.9804198263987539
H -1.605164314859722 0.7529172146574374 -1.1060641514977296
H 0.4563911965193755 0.3062365972900215 1.8447798072576957
O 0.5760738128184603 0.2253402823670424 2.800862832736065
C 0.9451836233529107 0.11565635747976245 -1.162431410416646
H 0.7067642027180094 0.9476097436587182 -1.834258309515574
H 0.9032942222470828 -0.8223536517172415 -1.7275961001243012
H 1.9434702505029093 0.25276734785027116 -0.7537737644416205
H 0.6276997729498903 -0.7167005094863139 2.9814177148933316
