19
## STRUCTURE-ID: 64568f31f2e4fb36a1493a6a ; CHARGE = 0; SPIN = 1
H -3.946974134662127 0.7644650734753672 -1.1646428089093153
I -2.6486256445193286 1.1454650000177433 -0.22300081728842658
C -1.4487244179987853 0.8509332148844516 -1.962013672597345
H -1.7890171625407503 1.5478819508503008 -2.7183546701166934
H -0.42217366437263115 1.0562906488229156 -1.6832523142963576
H -1.5743138042428206 -0.18143623332585643 -2.268070614902713
O -0.6424563488868668 1.7018938804189532 0.8662546263123871
C 0.9199186155868975 -2.3317319667800387 -1.4384184504101871
H 1.7409154097616821 -2.953365235997508 -1.1033166354777864
H 1.2888262018133894 -1.3945161552632275 -1.8407599559130197
H 0.29499093564025713 -2.8577011790360594 -2.149700545039457
H -0.6557764018191842 2.64389016396304 1.0598437451312275
Rh 1.0042878319819886 0.5660110733447429 1.6925088590376807
I 2.4494585653632144 1.157142954660949 -0.41897766655077284
I -0.30837195815472895 -1.8804197537440586 0.3004665663161963
O -0.3445787353013399 0.45641696696498896 4.362654298019235
C 0.13737741522294294 0.4902008355112779 3.3188708339392896
O 3.4531785679176323 -0.6005721447865426 2.923026538234054
C 2.4920587292105583 -0.18084909398142332 2.4468826845119995
