18
## STRUCTURE-ID: 6456715c030a37073576345e ; CHARGE = -1; SPIN = 1
I -3.492086953587652 1.2004513027441572 0.32001751870007145
C -1.8521954202747812 0.9184559769563659 -1.0193644074812005
H -2.078148054634006 1.4441161104425266 -1.9371970034751156
H -1.7242839884073047 -0.15623049320573065 -1.2039034707404639
H -0.96526646892608 1.32835313672116 -0.5488343224129149
O 1.1466876271548523 2.0553812182770717 0.024308518034331185
C -0.9019287664737826 -2.061304835434309 -1.5591549242581444
H -1.0291260167563538 -2.435316338973049 -2.5966275781508847
H 1.782568958193127 2.2240341230250014 -0.6822098509120803
H -0.9589340223203199 -2.9838596303774225 -0.9330920838096698
H 1.2584173765038167 2.769072492462288 0.6627267670643272
Rh 1.4942819236917948 -0.5015034869877276 0.9450123520350242
I 4.041316357181885 -0.07016460395410523 0.5741107600242978
I 1.2222889908210242 -1.5416531954096062 -1.464301313746399
O -1.3007763523005507 -1.3334136798131648 1.577648433781408
C -0.2427623685347309 -0.9804269407154034 1.306327965590283
O 1.8738665923282263 0.17441175484504085 3.8260344669751407
C 1.7260805863407764 -0.050402910603329444 2.7084981727820807
