12
## STRUCTURE-ID: 64566803ce85c059213ae5f4 ; CHARGE = 0; SPIN = 1
O -3.1918814066199626 1.5468520722200707 -0.8661587761636691
C 0.8313537829954593 -1.6039673277612556 -1.1926205082381263
H 0.3005785646094886 -1.013685347840325 -1.920716762828112
H 0.9324510957862462 -2.653027689665671 -1.3924807509174986
H -3.26048721347402 1.4779151555194299 0.08963712552528946
H -4.079164729502369 1.700516708320979 -1.199971219033265
O 1.2739739209528946 0.2359444275560187 0.2579206695362291
C 1.3373293378537527 -1.069831785947183 -0.09475852747534647
H 1.8688872800173375 -1.6468475248367607 0.6489352313422072
H 1.550095617473803 1.0930636403989669 2.663710265178083
H 1.6364426715362628 1.1987008491810696 3.430268628700129
H 0.8004210783711128 0.7343668228546566 -0.4237653756259241
