20
## STRUCTURE-ID: 645679c58af6a35f1d30457b ; CHARGE = 0; SPIN = 1
H -2.704699591898243 1.2174332361412579 0.8255890341285722
I -1.588999010532473 -0.6842111852916668 -1.1847282236438137
O -2.7637682772384995 1.8010065959581751 0.032316633964180684
C -3.0775209503852645 1.0046753892270768 -1.1414657117842575
H -4.086594373513112 0.602020264347924 -1.0991366245294736
H -2.9213001668095906 1.6308954482764675 -2.015956932168869
H -3.421301159074995 2.5273554042316664 0.16104211972778812
O 0.31730472406460153 -2.4069248157128476 -0.8426099979159335
C 0.45940063251279434 2.076477669741962 0.7122352281110752
H -0.09969796344804831 2.7559506195550516 1.3442059045150505
H -0.022316491197012567 1.877746892068667 -0.23952996154450476
H 1.4684179786677098 2.434294814202326 0.5452037497532044
H 0.028501387264729398 -3.316172671280326 -0.740256357776902
Rh 2.1646480695200454 -1.7344315944135302 -0.012339273457300709
I 0.6161021546844115 0.16566427004731657 1.7857836686599486
I 2.320727326068555 0.11402253839815595 -1.8723596899940176
O 4.947042442004263 -1.101561969079175 0.845469437071543
C 3.8499790940612115 -1.300235488301486 0.5351404633584055
O 2.279363419432429 -4.3490487985624835 1.4401579617438915
C 2.2347107558164447 -3.3149566195545264 0.9212385717814094
