8
## STRUCTURE-ID: 645663cfeb697476904b65e7 ; CHARGE = 0; SPIN = 1
H -2.2774415207579826 0.27425581720477743 0.5313965700548352
I -1.0841611689307116 0.04402406072030781 -0.6547693501021661
O 0.790535302547468 -0.23836714965078196 -1.7369747087372656
C 0.3117181501491508 0.07879065007182962 0.95241592436499
H 0.6961907412838741 -0.9237272508843981 1.0830294935173106
H -0.2023342303114002 0.4324919416103221 1.835205889906842
H 1.1155997045213188 0.7377586857167778 0.6551828124881057
H 0.6498930214982771 -0.40522675478883197 -2.6654866314926577
