20
## STRUCTURE-ID: 6456b8686420a541973ae5e3 ; CHARGE = -1; SPIN = 1
C -1.6130392954276165 0.17806368215587684 0.5894447759124578
O -1.9441831210921166 1.249386171599612 0.8712042101836616
I -0.2712815982747009 -2.7106065486458673 -1.1011403012405574
C 0.21889779318877767 -2.0537086183101385 2.407971539402441
H 0.8477136471624811 -2.8794687667514856 2.0808032520896336
H -0.8015029710089995 -2.2965097834939274 2.101805264276088
H 0.2519578507169592 -1.9350510999789872 3.4908448253239586
O -2.1365638551696473 1.5010811912819846 -3.3307505334973184
C -0.6330480796420171 2.4650576474494117 -1.3642039515586195
H -1.6289780859463296 2.866441361428074 -1.492233306172556
H 0.04679482444631222 2.9335293570980507 -2.063901993585432
H -0.2882752734514646 2.5897015820850684 -0.3431541532662046
H -2.507009834979211 0.8896515405464627 -3.9661454592482075
Rh 1.0690563827876838 -0.6527324188334503 -0.1736911383971112
I 2.6603622047586164 1.4829383226118558 -0.5345131466716728
I -0.7577440261257296 0.42584393764804146 -1.831779461774482
O 0.5900094666203819 0.3263821092167696 2.274435032518188
C 0.5947026163380185 -0.7635728473236438 1.7834986713518601
O 3.668261348478863 -2.050011882816627 0.3044617795202123
C 2.6338700066197362 -1.5664149369670808 0.297044094833693
