12
## STRUCTURE-ID: 6456661e756cdb463b6cdb51 ; CHARGE = 0; SPIN = 1
O 0.7597559916090947 -2.186484297258522 -2.073378727600424
C -2.071637666394565 0.8989898956156509 0.7541358043546145
H -2.589353182293782 -0.04990589948748794 0.7040714926479827
H -2.5969522253816755 1.628193540227979 0.1514286609799859
H -2.0386443799230043 1.2365807188993467 1.7817840046334246
H -0.08369883209199316 -1.98014371913042 -2.4836442648767774
O 1.3071004415924603 0.05935317049678929 -0.2119126087805671
C 2.189615319714736 0.28337561974669995 0.5696513588061376
H 3.0284823151577642 -0.4097023224285358 0.7197717711809494
H -1.0639447853552266 0.7787772565953256 0.37852404762439695
H 2.2082280278227167 1.1954493149487535 1.1814225433596761
H 0.9510489755434726 -1.4544832782255657 -1.4718540823294037
