21
## STRUCTURE-ID: 645676772b3c086218333bf1 ; CHARGE = -1; SPIN = 1
H -2.219018430996173 1.1514623507703365 1.2243785755739653
I -2.551960167937828 0.10307710776679636 -0.020618020184419456
O -0.950322216239441 -0.6521062604358909 1.1910399298651642
C -2.056426302854951 -1.686789532991787 -1.1788717839596603
H -0.9831835168367423 -1.711286668561061 -1.329113936065005
H -2.5774865999630867 -1.5904428918223636 -2.121953174491216
H -2.3780897916425796 -2.5702651396384626 -0.6418439530971014
H -0.9088863065425979 -1.6091284896645415 1.1985008567513658
O 2.8000943930551525 -1.2815540378472567 -0.9246908287973388
C -0.7200164769722914 3.19738548699451 -0.8114539135330975
H -0.4242174476538436 3.931184243616995 -1.5521755777594115
H -0.5082908935996945 3.5489818213653677 0.19407200446418982
H -1.7632285325319266 2.9108089711678007 -0.9184720736376768
H 2.9341193935530496 -2.1203553581888426 -1.4087819001524349
Rh 1.408504405509215 0.19222816300332388 1.0623157748381287
I 0.49546818301979234 1.4013455265488632 -1.1493741834482303
I 0.8739920177881791 2.243935675274358 2.66698180755112
O 3.7186496769183677 -1.0748308841201935 2.4698667812221515
C 2.812492905606435 -0.5035382197461267 1.988778730535188
O 1.207973611233131 -2.4840428578466285 0.06496829721345974
C 1.7898320970877586 -1.3960690056451481 -0.0035534128892011846
