18
## STRUCTURE-ID: 6456893b950d5657024b6a5d ; CHARGE = -1; SPIN = 1
I 0.041667477943695005 3.8993315160333863 -0.908296701563502
C -1.4199698791862965 0.8556804067448172 -0.42607584353892514
H -1.5870846772746519 0.9968790109590192 0.640395918037312
H -1.8302092897942046 -0.1398714925407284 -0.6739272075821939
H -1.985835306922375 1.6115161601072128 -0.9691185413490483
O 1.385683811847004 -3.3171227945227386 1.9601314631874618
C -0.22106707685849636 -1.090256372768693 1.9864420909770535
H 0.09548442622928088 -1.730440118007255 2.795670633424542
H -1.243491191168585 -1.3094750715518357 1.7050775753964948
H -0.08748189472109129 -0.0457121389388994 2.23999372421468
H 2.0285332510021754 -3.9432089348071324 1.629725616072885
Rh 0.46326600668335555 0.3574574536350284 -1.3935122304718754
I 2.552378810378027 -0.6489450839507541 -2.608096710571446
I 1.064674103691505 -1.5520369523942013 0.36044986895258946
O 0.8335580511075541 1.7692303097464075 0.9458429960869447
C 0.3482588804390788 1.824959497035608 -0.1392427169603379
O -0.3909284560032957 1.258248894136491 -4.116875841123369
C -0.04743704739252815 1.203765711084335 -3.0285840931892465
