21
## STRUCTURE-ID: 64567564b4aa7858be6f2cb1 ; CHARGE = -1; SPIN = 1
H -1.8924445631656837 -0.5533517212052957 2.1858378375980885
I -2.1734884224890543 -0.4428649626128396 -0.8575318879619657
O -1.0978034854276701 -1.0141675457829737 2.4917414993323117
C -0.8019232248533144 3.074121384475353 -0.6580324650785276
H -1.6695332198370443 2.3297256456117355 -0.606296648906239
H -0.5176767243909332 4.135517433519295 -0.44324147175296535
H -1.331465024709162 3.4050800226841726 -1.5893936833425413
H -0.777780586033996 -0.4788467878337606 3.227395617120457
O 3.151542333825798 -1.9559550051504107 0.18113432405501165
C 0.4619371552928829 2.2889150504271387 -1.0633137790719287
H -0.9458278893530115 3.007352551103892 0.4590452260068332
H 0.31098512482371676 1.6936393329139579 -1.9621060492724227
H 1.3396143451555276 2.9177209929474905 -1.1813211044309753
H 3.534131343686882 -2.743243548511843 0.5755227577070808
Rh 0.922282858667418 -2.0156321584560013 -0.23753248225554133
I 1.2774486191110201 -1.314442858334571 -2.790245727835375
I 1.101209921336855 0.7453195509874959 0.509598829289269
O 0.8336552731267632 -4.172103609626631 1.8330906798947488
C 0.821944584463277 -3.264354271911959 1.0805100844840274
O -1.635612981100832 -3.297851019427752 -0.6178198696914745
C -0.9111954381294184 -2.3445784758165074 -0.5370416858878982
