12
## STRUCTURE-ID: 645664ab508d425c3d7ffa8b ; CHARGE = 0; SPIN = 1
O 0.01058236957145458 0.27421461079025555 -0.131028086766858
C -1.2472988682854271 -0.15998470102609907 -0.6018854947638287
H -1.9815091141426031 0.1495837872454084 0.1383270533153455
H -1.2714867732611668 -1.2499070614001855 -0.7105590113421804
H -1.4811471562346112 0.2999730003127133 -1.567977405675319
H 0.19923859360363796 0.07558423749143836 1.7892930575555748
O 0.2686789577633919 0.06798794933372795 2.7553968840278524
C 1.067657444909179 -0.05196843868360801 -1.0077817925751527
H 1.1594966293430995 -1.1371228682108616 -1.1266316155379965
H 1.9771750982113203 0.3450533440891384 -0.5633244506204931
H 0.9117776799372002 0.4025912132314232 -1.9918885004329663
H 0.3868351385845375 0.9839949268266326 3.0180593628160044
