21
## STRUCTURE-ID: 645675919ce2002a5e7cab91 ; CHARGE = -1; SPIN = 1
H -0.14956312066018973 1.6115755603450037 -1.356745394266683
I -1.244841893169022 1.5460798140739194 -0.11187375598865082
O -1.8895193510117982 1.1579576638058708 1.843841622006119
C -2.5229333008241923 -1.5361479031388294 -1.8594954859283215
H -3.4793646167253676 -2.045626068580839 -1.7751996441450764
H -2.009207612582728 -1.9075376262352701 -2.7424664939224224
H -2.705033148235069 -0.47027165124198356 -1.9865756721539214
H -2.813464294587217 1.3945489286401038 1.9361142983278647
O 0.40039211426807686 0.8899147124798469 0.7559886473569357
C -1.6810837511969585 -1.7885370446504427 -0.6185739693704119
H -2.1637205533023063 -1.3845268533199546 0.2701634454272554
H -1.52454466099118 -2.85404002741372 -0.46158068945865804
H -0.6965136504941081 -1.331554094767072 -0.7159811415488494
H 0.07236466291037252 0.5879514681600962 1.607288342730907
Rh 2.96784808993007 0.5233099990119767 0.9434641638059381
I 2.68718481559684 -1.951066581970211 0.11524822524821718
I 2.588019717557052 -0.064554341150185 3.484174061184623
O 3.5829418418351215 3.3086688610767685 1.820092052993687
C 3.3337563234519636 2.2348532327568376 1.4802764199706975
O 3.791509555030464 1.156346971676982 -1.852977397932892
C 3.4557728331999655 0.9226549804410678 -0.7751816343363928
