12
## STRUCTURE-ID: 64566aa46c299571bb242a39 ; CHARGE = 0; SPIN = 1
O -1.4012999923732603 -0.2750342415027942 -1.1515202277328842
C -0.7394610709363724 1.127996021982641 -0.5417198086220566
H -0.25684309598423377 1.5099006215771678 -1.43271209028799
H -1.974336989397965 -0.6182135867832639 -0.4542421894135197
H -1.593879789307163 1.7038964903005078 -0.21727685966138882
H -2.09576942700493 -1.293992787000213 -2.2317607424160038
O 1.2612370122646719 0.049186449911245225 0.24563413216963162
C 0.05790008053107301 0.5322624574647807 0.4392686340481084
H 2.878062127484209 -1.8331960758473498 2.5888635444346826
H 2.6004489095666923 -1.427964945434748 1.9854616967561742
H -0.33280736634794267 0.2984361268161856 1.4214221470375117
H 1.5967496015052267 0.22672346851585162 -0.6514182363122781
