18
## STRUCTURE-ID: 645688ddb44a2a693c39081a ; CHARGE = -1; SPIN = 1
I -1.7313776122090643 -1.247128287706851 -1.2314073394060632
C -2.4001697458124416 -1.090949374469162 2.551982168053058
H -2.624294598925336 -0.10677470963683885 2.1274115992735307
H -2.253982261569641 -0.9936022654036244 3.628202717427524
H -3.2313852992941507 -1.7706400604083172 2.3638349341257987
O 1.4151102317923727 3.3196930623459013 -1.98884957420425
C 1.4030180528849532 0.7193093770652825 -2.7988128856001593
H 0.3992592178410381 0.5294290804960369 -3.1610123371762002
H 1.9802455108117045 -0.1966339818368937 -2.751377204998247
H 1.8917315847922926 1.4807060233549565 -3.3890935875116943
H 1.3397017804239042 4.1089388861983664 -1.4504468703550686
Rh -0.18111324838163195 -0.5307505478170305 0.7502075979094083
I 0.8705580698210443 0.9100455603108488 2.667032109829469
I 1.262062323908551 1.4888012635456058 -0.8262149958495602
O 2.289059976114436 -1.4504100261347554 -0.4733438435301238
C 1.4382860676706324 -0.6800029606584974 -0.18023723847407327
O -0.7165841106420017 -2.796079329119581 2.1945786112978283
C -1.150125939226643 -1.6939517101254602 1.9675461391888265
