20
## STRUCTURE-ID: 6456b80ca445d204234dd52a ; CHARGE = -1; SPIN = 1
C -1.7053683115895506 1.3441392837335162 0.9152157079345649
O -2.6019804522675183 1.8834785976099928 1.3878956136499125
I -0.09559770076412823 -0.3245833712393572 3.106736528857491
C 2.1185601393978657 0.12944789059976564 0.4917907638524035
H 2.254333682052744 -0.940472305338842 0.6991993244454691
H 2.7198232941473686 0.6598536905207185 1.2421166525953447
H 2.5828543741022916 0.33239233578821814 -0.48111216448221267
O -1.7773812600086656 0.568395464877645 -2.335981866704099
C 0.07403409031177548 -3.3173965160610615 0.6681538298487922
H -0.2699379686077962 -4.229766282159613 0.19266051102543083
H -0.3624453459789431 -3.1859771602356095 1.653614698662639
H 1.15690132600071 -3.2775250355407453 0.7161787950506535
H -2.6831603630208907 0.7073846237951259 -2.6827246918085073
Rh 0.07959882028059503 0.7053596940786712 0.5705328012908328
I 0.8437500000137992 3.2102530002175604 1.2699931076206115
I -0.5939660144314086 -1.6582446272547517 -0.5826087200822087
O -1.8083134828318066 2.728809063037111 -1.7345447744564628
C -1.2376451118782164 1.662278678715578 -1.8105852814566457
O 1.1361614165043092 1.5988697675807395 -1.9910867580833418
C 0.1697788685674647 1.403303207275348 -1.2954440777606813
