12
## STRUCTURE-ID: 645665c838a3b24be7610abb ; CHARGE = 0; SPIN = 1
O 0.15439575351196247 -1.201742417405718 -2.4187496266308273
C -1.1868152404393841 0.4761938033626486 0.6800265014228848
H -2.0476921773931633 -0.09849312276147495 0.3462885914123143
H -1.2040292328749773 1.468763781720077 0.21624208110586704
H -1.220441066521851 0.5905767883717802 1.7687605563642352
H -0.14304536439415255 -2.113662789310536 -2.375075598759946
O -0.038927411723982196 -0.24475311353249465 0.2859604800704362
C 1.1636499734445844 0.3802175014660169 0.6810477711891231
H 1.2405511266108629 1.3858914714748167 0.2537153989804237
H 1.9755203701853352 -0.23817839245469832 0.3055385912291955
H 1.2259779944196807 0.4501152166171886 1.772325066126972
H 0.08085527517508956 -0.8549287275476034 -1.5160798125106878
