12
## STRUCTURE-ID: 6456681a6d831263b473b9e6 ; CHARGE = 0; SPIN = 1
O -1.599350681568229 -0.42200647840212757 -0.7539714576405262
C -1.3819699930792286 0.05440011601066117 0.5034047374751194
H -0.20408007762550673 0.13705821273611787 0.5750542001214873
H -1.7477578807083278 -0.6301514279496251 1.2704007940245794
H -1.7373615399147704 1.0800902585041607 0.6616546858469227
H -0.7633596150745307 -0.020033049584959085 -1.2666289012138878
O 0.5772693260112187 0.4906381510212494 -1.412853603503861
C 1.266489136743782 -0.07197701160352654 0.4959348788681998
H 1.476115134123774 -1.0520103253752815 0.10235349920555832
H 1.148535819082621 -0.08450465848525332 1.5781551070239959
H 1.9597179073267559 0.6952513544769926 0.1958381402701135
H 1.0057524646824507 -0.1767551413484122 -1.949342080477706
