12
## STRUCTURE-ID: 645688435b4c6869191688e4 ; CHARGE = -1; SPIN = 1
Rh 0.026821449172648365 0.5474252371218963 -0.09619519133782593
I 2.3098416390178813 0.11941212367984005 -1.4664953871554647
I -2.209185794689479 0.8285455191503724 1.3844261729981193
O 1.6692791688128874 1.1155424108549143 2.35360751473198
C 1.0458223695669076 0.8524087578580742 1.436995741985241
O -1.597970586121619 0.3091615493925686 -2.6097253267784595
C -0.9852614336266394 0.3535854392888787 -1.650108884463193
I 0.15344785031175112 3.2922492422582716 -0.5873424495513672
C -0.08915344652791932 -1.572094701471384 0.2585016082745402
H -1.1261626840919443 -1.8904677843975557 0.37135279449561376
H 0.4499724073055423 -1.8265467901556125 1.1736293983681387
H 0.3525490608699796 -2.1292210035802612 -0.568645991567322
