12
## STRUCTURE-ID: 64566902a6351323a63d7d8b ; CHARGE = 0; SPIN = 1
O -0.7706407948361172 -0.25813694631401896 -0.7207620212198913
C -1.0123938628479192 0.08612679452898116 0.6662332620283095
H -0.04443732963001042 -0.12946802148230924 1.20654241956595
H -1.8089308118099148 -0.552203191822265 1.033691539075071
H -1.2577768682549364 1.1381234773703224 0.7831444039711849
H -1.4957911875261618 0.09278229514313856 -1.2865865646283812
O 1.6464214287820196 -0.3848552939285344 1.5293753036980273
C 0.5002771071572766 0.24304033744515322 -1.1960635022296757
H 1.2408175813623783 -0.016418979841384698 -0.42323818617084547
H 0.4858351364712771 1.3235087387327709 -1.3205919768531205
H 0.7304959355616362 -0.26246967023606027 -2.129278713619786
H 1.7861236655704764 -1.2800295395957848 1.857534036383155
