12
## STRUCTURE-ID: 6456695340fea46cf94d303e ; CHARGE = 0; SPIN = 1
O -1.743086117163778 -1.0757602047088417 -0.6607470017875313
C -1.6830179478342169 -0.0337907486923997 0.15053058851236134
H -2.0942128939971956 0.9139974563579567 -0.20363565820804808
H -0.45539952057566724 0.2854748950417702 0.34151336010670935
H -1.969786466558979 -0.3051524822972749 1.1678436627370092
H -1.7522209219751153 -0.8535755045367031 -1.608388050395958
O 1.217463914893434 1.1761302526956257 -0.5989631627207832
C 0.7154851795934669 0.732820147672002 0.5461125469328114
H 4.3539825715188405 -2.7883151724598316 -0.26946437424555264
H 1.1992173012348268 -0.12474184920654467 1.0172266388846263
H 0.4977628599959618 1.558592694247205 1.225461709654032
H 1.7138120408684259 0.5143205158870362 -1.1074902594696805
