19
## STRUCTURE-ID: 64567a52d081724ce132dfca ; CHARGE = 0; SPIN = 1
H -2.7365104084212466 -1.078993818658984 2.769390025073754
I -1.8661248952513596 -1.9723985575574443 1.8042243599945877
C -1.749722298568487 0.6069791261303158 -0.9371582286959528
H -2.015435916007362 1.1273153612829696 -1.8496725963059255
H -1.838340438675561 -0.46924039202785506 -1.0562000108511886
H -2.3156524455729253 0.9707024179848915 -0.08537746428035045
O 0.10640644938312564 1.9192749260037747 -2.7149295512162306
C 1.1519110589479826 -0.4636188481585837 -1.936842459391621
H 0.875233297541283 -0.18582232806489388 -2.9428215526815813
H 0.7417704545982894 -1.4237150413733952 -1.6423320085543391
H 2.2286786887380505 -0.4503487791360035 -1.8186586026062137
H -0.02339824373500291 2.8640298575391703 -2.6793785707599307
Rh 0.6710520909501964 -0.10027836736302088 1.712209967344415
I -0.742551896962868 2.048439620991157 2.277103457698227
I 0.32250815943535094 0.990767528910114 -0.6425177904852599
O 2.585615147750778 -2.126722128323629 0.6294670103261244
C 1.8421150099611925 -1.3607655627150104 1.0492961251649944
O 1.574352604885515 -0.5037505433940307 4.565561003245436
C 1.1880935810030677 -0.3918544720695321 3.498636886981039
