12
## STRUCTURE-ID: 645667169b64a75577242a38 ; CHARGE = 0; SPIN = 1
O -1.1134983067167614 0.14605355366592024 -0.8473092098877897
C -1.8756802103812589 -0.2594684410305686 0.2707017316742195
H -1.9365244324726953 0.5345226191435766 1.0207986204147417
H -1.3666454023162757 -1.1189286760953043 0.7034424377635727
H -2.885395972251616 -0.5579654443951838 -0.022980849036956484
H -1.5463511084330412 0.9000645619172148 -1.2657307194338678
O 1.6325451596563836 -0.7338457580117718 -0.7023098925188105
C 2.0084917667215487 0.22578143747583893 0.2583497215891352
H 2.018156144465417 1.2343655295276497 -0.16820642083724452
H 3.0151394691291573 -0.02937016792693794 0.5872539264353496
H 1.3370195693041542 0.2109473174723409 1.122228773453753
H 0.7127433232949952 -0.5521565317427762 -0.9562381196161087
