12
## STRUCTURE-ID: 645667992aab4b03847c7c48 ; CHARGE = 0; SPIN = 1
O -1.507184801925098 -0.16671912626582946 -0.20781572089317413
C -1.4661317208483904 0.26373346781408186 1.1382991787464465
H -1.2693821658095283 -0.5712243507945111 1.8167175567485092
H -2.398910511802409 0.7544344082655527 1.4267872866257445
H -0.652106238318871 0.9824036570347814 1.2135331132630347
H -2.2481862024969956 -0.7746442666222781 -0.31916879268642023
O 1.0553693024844302 -0.942433539523498 -1.2309610039963166
C 1.9053356145832143 0.0937723448578176 -0.7996667294351022
H 1.6135633915317744 1.0568689336941866 -1.2307180809260854
H 2.910289801422624 -0.15547209321298747 -1.13881693169268
H 1.9111653135232474 0.1784268720306108 0.29242573544804384
H 0.14617821765604325 -0.7191463072779092 -0.9606156112020264
