12
## STRUCTURE-ID: 64566bc216e57c6eed2a157b ; CHARGE = 0; SPIN = 1
O -0.08971635979206641 -0.2683907165304703 -0.11395974880174993
C -1.381275618296941 0.1555117707355658 0.2662107711879728
H -1.4457978695760776 1.249031587572452 0.28295207135525197
H -1.5583114178485833 -0.23599709034029598 1.26517952616069
H -2.137779191759312 -0.23599899821577516 -0.4222690732736539
H 1.2568095083516582 -0.19245313737057096 1.2629061799628694
O 1.9167853325374034 -0.2602097293593331 1.9689963683719687
C 0.2708242947742905 0.1673006669011917 -1.407085065000778
H -0.4237925272020023 -0.2249434989937617 -2.1576196260493306
H 1.270554242927079 -0.21487187380962558 -1.5995416420506905
H 0.27739315917863916 1.2612957831196405 -1.4645417952025974
H 2.0443064467059027 -1.2002747637089952 2.118772033340062
