13
## STRUCTURE-ID: 64568c7fc7a09e7e324d91d4 ; CHARGE = -1; SPIN = 1
I 0.819203728611839 3.256150365359153 -1.1611906186024912
C -0.7037181031871709 -1.8049355713610231 0.0380436654008402
H -1.0708669154062496 -1.7195727627180382 1.0589612891970777
H 0.23871615558228068 -2.344787104016007 0.016748310172775772
H -1.4492572945327062 -2.332643420320355 -0.5571285009501499
O 0.5175589521669218 -0.27245953432804215 -1.3961273698255723
Rh 0.6803639620404295 1.0768191505964073 0.31765705361114926
I 2.257145062276185 -0.6258589588050463 1.5909692360683612
I 0.014358301965144349 0.3017510656546595 -3.3068016028703777
O -1.5537296528702946 0.3159933167594259 -0.7180969838365459
C -0.5707285925585354 -0.42964889219331903 -0.5832929223977322
O 0.3189847607082638 2.5747774391390115 2.841673882455222
C 0.5019696352038896 2.004414906233169 1.8585845615774275
