12
## STRUCTURE-ID: 6456685a6b01f65b471a5631 ; CHARGE = 0; SPIN = 1
O -1.3920679505474798 1.0220225881393157 -1.9980397017101736
C -0.31470035897669096 -0.43130881023158524 2.709417642828925
H -0.37286810998009623 0.5802057210495495 2.3299521433926045
H 0.2343897748716912 -0.43626008303243796 3.6418788440128975
H -1.3131975177296453 -0.8131020869400207 2.8768377458042615
H -2.226305408551615 0.5669342878140983 -1.856672178236499
O 2.0023621058085603 -1.4975487843482753 -1.830302534682809
C 1.6926805708271584 -0.3389132566924488 -1.8866674544267585
H 2.447663373306795 0.462157079935121 -1.9076753538840605
H -1.5994840897182738 1.9481598482652684 -2.1479707977643367
H 0.6471293979007875 -0.004692693714711187 -1.9190925204759324
H 0.19439821278881117 -1.057653810243873 1.9883341651418796
