12
## STRUCTURE-ID: 64566abf092396687f41e583 ; CHARGE = 0; SPIN = 1
O -2.0059956308452165 0.5324925114339346 -0.16881593543863946
C -1.1364390433531324 0.48283168761472606 0.8051085844203733
H -0.8519879354393274 1.4571400960572016 1.227392091030667
H -0.11869607827166011 0.08667706954124298 0.2659653076335672
H -1.3403939643821177 -0.2688847188703599 1.5808074176616531
H -1.340364747998116 0.08337174697894516 -1.3457509295851018
O 1.6473160319423203 -1.0172184382072194 0.5117857873808475
C 1.098397535800796 -0.3450413267555723 -0.5577774562331193
H 1.2277167549639272 -1.0105881478824237 -1.4050010448805987
H 1.4965542544093857 0.6499251574991267 -0.7391752409828847
H -0.46315503830102034 -0.2063159868251867 -1.4540510522813657
H 1.787047861474167 -0.4443896505844018 1.2795124712746118
