18
## STRUCTURE-ID: 64566ef11da3bc4069610abe ; CHARGE = -1; SPIN = 1
I -2.9837089001974806 1.6457893878173377 -0.12690603463109287
C -3.1393719873304478 -0.06631348590653388 1.2129830886698043
H -3.126037606013391 0.3045348231005105 2.230331538484635
H -2.26598471066768 -0.6747557175309419 1.0024091354111424
H -4.060667196632039 -0.5906359035063596 0.9921717382018083
O 0.3173299772567835 -0.4491967498690358 0.9443994378295556
C -0.8846819220903835 1.566021715421765 -0.28064164234209416
H -0.21843993589992572 0.3748885940392333 0.5058048985236729
H -0.649275984867784 1.4617578150973243 -1.3418041209352192
H -0.491733532623551 2.526207743882507 0.052097851392700026
H 0.5684505536041662 -0.15551874758801054 1.8258938696363918
Rh 2.5067619221357247 -0.6095691689918831 -0.6049886869450407
I 3.950478617441666 -1.3408072204962997 1.4762244258131694
I 2.975663577391513 1.9656876653827102 -0.28155222136754393
O 1.2229026461072554 0.11219363186261133 -3.198235994258128
C 1.7104425243881365 -0.16940680852454731 -2.1879437908647326
O 2.237958037291697 -3.5119965089535765 -1.2362000155144868
C 2.329913920705753 -2.3888810652368506 -0.9840434771045456
