12
## STRUCTURE-ID: 64566afb9b33c429a42648b6 ; CHARGE = 0; SPIN = 1
O -1.5870161335976534 0.17561522735273372 -0.870555153417404
C -1.3977272041179956 -0.09998538164297263 0.4498784652283077
H -1.6869255533943615 0.7157853513568939 1.1238372052666254
H -0.22183371479451158 -0.16871196995706983 0.5589883344870398
H -1.8479039516441818 -1.051036584064188 0.7388851946894578
H -0.7008836757694886 0.712973385766406 -1.091074730240141
O 0.6792184548027604 1.105884070168315 -0.9410777105844175
C 1.2329864801356631 -0.42841529633558467 0.3903601296841177
H 1.3974237594237775 -1.068059131134991 -0.45999737643466193
H 1.060163826985162 -0.9991613245662944 1.3012835602513526
H 1.989464807755433 0.32164038854050664 0.5466527006647209
H 1.0830329042154032 0.783471264516243 -1.7471806195949975
