12
## STRUCTURE-ID: 6456675bd2e5502daf530d71 ; CHARGE = 0; SPIN = 1
O -1.224474525645629 0.19528907335696347 -0.33066006916180773
C -2.276526085002958 0.3200272361020048 0.23292956498806391
H -2.393269836650413 0.9692079288950968 1.1111414188019453
H 1.073667869525402 0.5139428472469632 0.7568610254902906
H -3.182100368975893 -0.2074191739723655 -0.09597033673079564
H -0.7811288536117419 -0.8790816483162878 -1.9434291071990737
O -0.5750880823026906 -1.436609224176441 -2.706149898603054
C 2.009462360506043 0.4996038305475224 1.3000773677127349
H 1.8185609933651603 0.6449505254119381 2.355347848981854
H 2.6497124720957306 1.2929407772623331 0.9371280050472371
H 2.498202298589506 -0.45441748855741154 1.1512448186744393
H 0.38298175810748936 -1.4584346838003064 -2.7685206380018306
