18
## STRUCTURE-ID: 64566fc02996090287051b88 ; CHARGE = -1; SPIN = 1
I -1.2176685623423427 1.8937695495004847 1.863012002840362
C -1.3779612658637799 -1.7975678337591767 -0.6029936724086457
H -1.8478358569770474 -1.1780538995139673 0.16429201788295353
H -2.149354364150317 -2.097460209114705 -1.324750740726318
H -0.9735689253403749 -2.703234453477956 -0.14245376658597825
O 0.9300605050631576 -0.6641378351090058 1.115418355596311
C 0.8211881785658038 2.3180796969947335 2.3672195013746857
H 1.4253467723687556 2.143396556059822 1.4851679422439217
H 0.8785693293415822 3.3522622583291977 2.6790358806636827
H 1.1092804855226723 1.6457382004453496 3.1642947535283596
H 0.34155667920617905 -1.4311393340822274 1.2275931618081317
Rh 0.08795721909463701 -0.8199571270586453 -1.736429812697547
I -0.12434746986934275 -0.7235012059091114 -4.4540910368759725
I 1.8011962145114468 -2.809488328023809 -1.7069341095182087
O 1.7695126377133124 0.7194617312190148 -0.3857873061371736
C 1.0140052083893538 -0.19954905411617307 -0.12291452532211501
O -1.5308869636722924 1.6710111352806338 -1.8271744072200877
C -0.9570498215613796 0.6803701523355447 -1.7625042384463316
