21
## STRUCTURE-ID: 645675e903f4980b045a8534 ; CHARGE = -1; SPIN = 1
H -3.5928658819819415 1.9526627198885684 0.8510660865268354
I -3.891344648148967 0.5232061102932382 0.014287693370127792
O -2.065000808936582 0.18608497354720915 1.063573447530739
C -3.32707999990107 -1.4949848179615748 -0.6391864115709143
H -2.3631764919561453 -1.4363039806958617 -1.1283363779428728
H -4.094332905895171 -1.821738442508024 -1.3281823001689492
H -3.2645743560842955 -2.1432877316030337 0.22396834905038693
H -2.207529297272096 0.36877151872383684 1.9941082274768438
O 1.9003530895082075 -0.0347430054935711 1.6992287327855773
C 4.349701017031331 0.010042986304677263 -0.3749403659299494
H 3.688395672392606 -0.1949073472200637 0.46358781211251554
H 5.192159692541287 0.6165416050723977 -0.06943900466907052
H 4.66995090307768 -0.9084460523549117 -0.8489238292566046
H 1.9856212559809248 0.6104827284040014 2.4081989933610113
Rh 0.6220292615616198 0.5978662364232294 0.19291101000472893
I 3.219676197728518 1.1348994530622856 -1.8145792347070233
I 0.6262037242484635 3.0386464241961293 1.1505453640440297
O -1.583793925887809 1.2765481911711953 -1.679859147934806
C -0.6433082163468659 1.0654320691572547 -1.039488201282555
O 0.28957632657624705 -2.2110705735016607 -0.7593123456926808
C 0.489339391764049 -1.1357030649052737 -0.3792284971073623
