12
## STRUCTURE-ID: 64566b3f1dd6cc3476662c63 ; CHARGE = 0; SPIN = 1
O -1.1254028828935316 0.5761388122548489 0.5807668254974147
C -1.3572234237312746 -0.2531793187193805 1.4605297776130484
H -1.9187677992876555 0.04366687702778961 2.3406564023631837
H -0.8219750135809227 -1.1974719030956584 1.5257889089384282
H -2.997956960015614 -1.3246239978824592 0.8355921291857681
H -0.37680541614171226 0.25183832551478136 -0.3797466179068946
O 0.41295487056728863 -0.013674426001793064 -1.2776473586001496
C 1.7475809160259703 0.30376995536302753 -0.8412867314842433
H 1.8261473414794123 1.346796873881317 -0.5384017332196191
H 2.4466581663741347 0.09012890631144453 -1.6470651909161815
H 1.9689174627057178 -0.341818412067457 0.004658972279848244
H 0.1958727384981961 0.5184283074135432 -2.0638453837506114
