12
## STRUCTURE-ID: 645669bc74562b640a3eadd8 ; CHARGE = 0; SPIN = 1
O -0.39503571490296097 -0.8295558112805146 0.5862158714531663
C -1.352703073280148 0.0035529399733084496 -0.10460128308543251
H -1.683485923551073 0.8347642244893602 0.5153487600749925
H -2.1870205826336186 -0.6244174844087733 -0.4049300303264521
H -0.836007507165982 0.4006965547973401 -0.9859632663323232
H -0.7631647257902886 -1.0975787801532266 1.4592462670330233
O 1.0773016612908957 0.9690549639079952 -1.7959948157750125
C 0.8785329043455136 -0.16220221452711842 0.7686399716933294
H 1.612374860023751 -0.9122207556260239 1.0429064307979619
H 0.8155637318543575 0.625602858101963 1.5140957715542946
H 1.1337515204818163 0.29912345965062 -0.23847832950515147
H 1.6998928493277428 0.49318004507505836 -2.3564853475824017
