31
## STRUCTURE-ID: 6456fbdd560f920cfa5c0b0e ; CHARGE = -3; SPIN = 1
I -4.189988017642972 0.9130114824673067 -3.178866082995408
O -7.038357611843234 2.0262333016297847 1.2901502861687464
H -7.856244240753965 2.534964377342784 1.1929824653609122
Rh -3.019822044478345 1.8244633889196678 -1.000787341820931
I -3.3362870558043816 4.354719122923227 -1.6904468771509418
I -5.552904524814904 2.8538983600202 0.11060410113625434
O -1.085349912649995 2.3055240046197305 1.229117781673822
C -1.9221600602701954 2.2557653786434138 0.4271202156516872
O -2.1341534178058956 -0.8974911042483821 -0.17297328157597944
C -2.5475546597531515 0.12023326673623354 -0.5480239990057582
O 1.9043104492925613 -3.9809879323258843 -0.31576030183988846
C 1.8427719000264662 -1.7264849122540262 2.8426056225905656
H 1.5487569327300978 -2.75026207087652 3.0445189533215973
H 1.826988682803877 -1.1171421286250875 3.7413228006941455
H 2.815675738983037 -1.679937450120517 2.3637302149480712
H 1.2582929998024013 -3.6361739919730205 0.31920183051490497
Rh 1.2776051216666326 1.5646570275404548 0.8366857391452611
I 1.9910787279998408 1.9567632393987935 3.315986578242438
I 0.4119708338341133 -0.9019252706311451 1.4289005419943879
O 3.2805047996117542 -0.24521905223855897 0.21533913477770314
C 2.932808022895194 -0.7124462420157905 -0.8935314178438309
O 2.3446912629285923 4.253769976115865 0.21221869675149835
C 1.918173797704977 3.207650379311391 0.46616419928784697
O 3.892379462977317 -0.6555939074689973 -1.8664944358130864
H 4.715112471510835 -0.24499185691428202 -1.525938975143222
Rh 1.1216991524638487 -1.3726908596460314 -1.4541409010339301
I 0.556604902494871 1.2617052410289196 -1.8644368354682177
O 2.7584800214681806 -3.613507821290552 -2.309164741285028
C 2.0371245132611198 -3.13764867831809 -1.4413638986494681
O -1.3402554534475755 -2.6334339788324876 -2.6370870094848695
C -0.411952795190778 -2.127421288918832 -2.137633063148135
