13
## STRUCTURE-ID: 64568b37100f7701ba4975aa ; CHARGE = -1; SPIN = 1
I -2.527982110102113 -1.5587802080023772 0.2685591392227441
O 0.9609292142450058 0.03191756018394432 -1.9849910754942948
C -1.614561895988242 0.41489611644373803 0.17085133062722951
H -2.1836445820186694 1.011448774044045 0.895157527759759
H -1.8690197033198643 0.7654208968948072 -0.832100326203112
H 1.2195938357411455 -0.5124273232327456 -2.7593787089728226
Rh 0.40964060106478756 0.6224485263175096 0.5725595587934934
I 3.004911194617283 0.9152228976609429 1.2468928119335547
I 0.20231960820236883 3.0390411153898205 -0.40764587814778325
O 0.8869336839516548 -1.8546131886133 -0.7747284762239117
C 0.7926495454631496 -0.6586125383221304 -0.8718538350792338
O 0.35023865926392683 -1.4875498299308971 2.6663433446072675
C 0.3679919488795588 -0.7284127988333563 1.810334587177112
