13
## STRUCTURE-ID: 64568c71f8612a0cbd3eadd0 ; CHARGE = -1; SPIN = 1
I -1.1499274864831222 -0.9661295433000279 2.7325320550683947
C -0.9133886495281186 -0.8908681002145311 0.6119257633810192
H -0.5684249514544473 1.6961003140578144 -1.2767530846600315
H -1.7836128317007183 -0.3321386027172819 0.23765649938162545
H -1.003473308089983 -1.9078843599786923 0.23368507014856826
O 0.5637894426247148 -0.6493095839247697 -1.9508588629242005
Rh 0.33728735897485723 0.7340153889996082 -0.391700065242637
I 2.6582596330269164 1.817601885713582 -1.166856487977308
I -0.9571473382023122 -1.5209256431154605 -2.813140194046593
O 1.5053818771715641 -1.867860098034389 0.634804667654009
C 0.9736697276401279 -0.8573263731674413 0.4201765697972379
O 0.13395757230425462 2.7770715586560564 1.7664819751714742
C 0.2036289537162648 1.967653157025562 0.96204609424841
