12
## STRUCTURE-ID: 64566701cff7aa0ccb333be8 ; CHARGE = 0; SPIN = 1
O -0.9375100764469236 0.7989352507732349 0.1273170296413354
C -0.9434364181354097 -0.48888575767989984 0.7935579006373633
H -1.8070230585125555 -0.5078260216614985 1.4546111193981845
H -0.029408771588445796 -0.6651391508295883 1.3592136991541166
H -1.0521528693468412 -1.2637128285643844 0.03706482608637864
H -0.8387176210676565 1.5093544813976836 0.808473563852614
O 1.3471646470556722 1.1548138818157663 -0.30040044788567455
C 0.13926597075623934 0.993328908113337 -0.8917477897486328
H 2.3735015571784226 -3.923569468964738 -0.24817602372287453
H -0.1425705182997269 1.9255846596123691 -1.3912155473067667
H 0.056951771357789706 0.13869010121154474 -1.5684268306395415
H 1.8339353870494293 0.32842594477617076 -0.18027149946651194
