12
## STRUCTURE-ID: 64566ab884717c288a37419e ; CHARGE = 0; SPIN = 1
O -0.3404327843378944 0.1434332738121923 -2.3527197513096114
C -1.2908329924352981 -0.1769839229955046 2.8383585380889604
H -1.4280255624070604 -1.2409455205539408 2.733697654203201
H -2.1854603606129537 0.40178166950338307 3.000816970309735
H -0.7376485025153047 -0.5049568851227261 -1.765234137683921
H -1.0169044293362357 0.40841308082742006 -2.9823451094789837
O 2.200444446936368 -0.5653296709163694 -3.3859285498695177
C -0.10022816895005818 0.38205470338234254 2.7745421599968823
H 0.0376658824123386 1.4459311561840673 2.877515409788126
H 2.733312777143296 0.23124730829331042 -3.335028912914003
H 0.7945428118147632 -0.19665945423841347 2.613824935947367
H 1.3335668822880493 -0.3279857381757402 -3.017499207078247
