12
## STRUCTURE-ID: 6456699589791b71222abddb ; CHARGE = 0; SPIN = 1
O -2.005208164683841 0.446590782447566 0.23007021209739129
C -1.6076735195041911 0.024673249331226485 -1.05938801556437
H -2.1648730819835516 0.5511623423094436 -1.8400186175852573
H -1.8324856467966382 -1.0388220919326974 -1.1212458264476803
H -0.5353433508846062 0.17300905112088305 -1.2139024192733643
H -1.8325117263248107 1.392318199888147 0.3081585629387096
O 1.7623260899464785 0.1702422631596195 -0.2092279223796234
C 1.4493765906507359 -0.37074959701763455 1.0574649509097427
H 1.8510944379569345 0.24845123980034142 1.865366034529953
H 1.830464075147952 -1.3908811646151256 1.1610551708655834
H 0.36341797039280865 -0.391846878948617 1.1339025109176855
H 2.721416326082735 0.18585260445684323 -0.31223464100876963
