36
## STRUCTURE-ID: 6456f685c3f7375d1932baf7 ; CHARGE = -3; SPIN = 1
Rh -2.425288555671633 -0.1421912820348473 -0.5899677579438326
I -2.8349718506342545 -2.6337839053104233 -0.019258728714235757
I -1.3105103950615824 0.2460089753264739 1.7489522414719616
O -2.502129288400175 2.369558956814712 -2.124901341582615
C -2.131671838667931 1.831717325603914 -1.0547415433506313
O -3.099342052202116 -0.06231094199925367 -3.466309974574179
C -2.94748336982575 -0.2331793631395617 -2.3290489967903807
H -4.416569702460575 1.1627883823012244 0.25412622023430437
I -5.887686647471409 -1.1248629624152953 -1.870829958708216
O -2.1835013592807426 2.730290517965387 0.05440614926890582
C -6.404211865132713 -3.2854519716361503 -1.9460846364274305
H -7.387695043863309 -3.3936517822795764 -1.5073814449063525
H -5.65003356396715 -3.8098972201699906 -1.368149254589103
H -6.388767555577884 -3.584715178592396 -2.985978062961836
H -2.6144759785932252 3.5474594661248693 -0.2496860173801416
O 4.5842805870870205 -2.3665077798338285 0.7636979893196448
C 5.57376488887723 2.0886861249888495 3.2220425082307087
H 5.756869835590618 1.3629740742432448 4.006271218772175
H 4.612561010966481 2.5880459704347794 3.327257490849095
H 6.396496648967981 2.7856573392397306 3.09667212288544
H 5.110340369162351 -1.9185846792885832 1.4614368221955156
Rh 0.15125959076523868 1.6952675044237269 0.004466599478991427
I 0.8674334408302938 3.545735629011045 -1.7195525866043544
I 5.437267849818421 0.9562643232227046 1.3338003888116354
O 2.3912555227438665 0.4652061062532151 -1.052437906786838
C 1.3646348069996608 0.13111672805335672 -0.4088354807671879
O -0.5056068472056618 0.6105609974821778 -2.5104913553425945
C -0.8725252134786969 0.8409786904993454 -1.3576949952635051
O 0.6977163209299831 -1.0394125798248213 -0.6682786240585221
H 1.4534201787926528 -1.712146092014511 -0.791804486306099
Rh 2.883973611468091 -0.0032371125307251647 1.0281019212897382
I 1.8910448765663515 2.4759481153950436 1.8165366982020048
O 2.86515378371951 -2.3290081833915885 -0.572123649609339
C 3.481218909805289 -1.7710184629935433 0.33626865444039294
O 1.7498613952891238 -1.212926589851242 3.5294088330158337
C 2.293917499114712 -0.8113791400775809 2.6101109442009776
