12
## STRUCTURE-ID: 6456673300c0d30254610abb ; CHARGE = 0; SPIN = 1
O -1.6694981544635017 -0.22754729022022588 0.0781759813065015
C -1.9058497297409907 0.43652625921251875 1.2973314986230635
H -2.986425451524542 0.49433249758742365 1.4238865114137575
H -1.4933605188090402 1.4504168990375974 1.287795626056851
H -1.4777432497243097 -0.11302469875086105 2.141722959797514
H -0.7056046312591998 -0.2840646623900409 -0.05033899958436542
O 1.1806119531080055 -0.33586705572064435 -0.08240291190151824
C 1.745365104860705 -0.1461151238374252 -1.364530043596275
H 1.6801303641528909 -1.0569514860995284 -1.965737268776829
H 2.7893467372105634 0.1700105709714287 -1.2928788018184885
H 1.1690086184269262 0.6399093797046217 -1.8486205831051374
H 1.6740189577624411 -1.0276252894949893 0.37559603158482674
