13
## STRUCTURE-ID: 64568c5d4d260951d75ede0b ; CHARGE = -1; SPIN = 1
I -0.2900033755004558 2.887129954559364 -0.05978260079083125
C -2.212191608363164 0.004986984459193769 0.20869009112780534
H -2.674559237904968 -0.857337707891284 0.6794017741381279
H 1.8384881532677502 -1.4724807910727462 -0.6491884108200718
H -2.8014510054866335 0.9163677980404612 0.22481798197480135
O 1.7162304612217285 -0.5553091977000024 -0.9317976381899363
Rh -0.10980451715182121 0.35197281606460257 0.7051607153262174
I 0.07461203855678905 -2.0497419929353815 1.8029818084420088
I 2.8305056845729912 -0.3927817735244511 -2.612622852300665
O -0.9748709643099537 -0.5067239124214162 -1.8987583372796555
C -1.4037938917232604 -0.21659068744303508 -0.843264144255495
O 2.509048328543082 1.0942542083203883 1.9182583179778034
C 1.4977899342779117 0.7962543015443413 1.4561032946499208
