12
## STRUCTURE-ID: 645667883b5dfa277f351d78 ; CHARGE = 0; SPIN = 1
O -1.2325417086084698 0.039421288046579864 -0.913885600746559
C -1.822923532825437 -0.2669276866186951 0.3339002222394017
H -2.7726889314814644 -0.7918080470444181 0.2056266303755848
H -1.9833336065519735 0.6362256842779722 0.9292540585065054
H -1.1272958501761672 -0.9198409512514434 0.8577976258367559
H -1.8442076084351333 0.583978952473289 -1.4241300921907671
O 1.4914280336854844 0.8990200030307495 -0.6879866651308663
C 2.056289917280847 -0.025871392021854452 0.2105446859979907
H 3.0935481553146267 0.2701341527676471 0.36278965970198385
H 2.0324636096272695 -1.0429370681852617 -0.19341935927720172
H 1.539493064022268 -0.012683439752868732 1.17634566600434
H 0.5697684581481561 0.6312885042783034 -0.8568368313171785
