12
## STRUCTURE-ID: 6456697a834ae847715b5c2b ; CHARGE = 0; SPIN = 1
O -1.636422522566762 -0.0872262929710246 0.0166841525808002
C -1.6611017080013644 0.5985467823874643 1.2503696278975616
H -2.650233698413422 0.5517797331145704 1.7144398953811328
H -1.3654522961249176 1.6452488946345798 1.1300995501680924
H -0.9428264115466868 0.10011720534940155 1.8990637690742398
H -2.2947251930104757 0.3029008236892589 -0.5707267306451346
O 2.2018158402944388 -1.441542774818363 -1.2655378081489261
C 1.684733895366414 -0.16293640397675085 -0.955993609472978
H 2.2030834148307155 0.274040326324889 -0.09618900846968192
H 0.6118528994295546 -0.20413820494036672 -0.7530511856882268
H 1.8612290504422027 0.4633216368426852 -1.8287390400114882
H 1.988046729300309 -2.0401117256363475 -0.540419612665382
