12
## STRUCTURE-ID: 64566ad9e7cea805a641e583 ; CHARGE = 0; SPIN = 1
O -1.4894629456645587 0.7562732275301023 -1.0165828658057254
C -1.2324511450069233 0.08085853983176544 0.16141336673977685
H -1.69180006993912 0.5873995204684482 1.005065940618834
H 0.009923278831328854 -0.035697339056441464 1.4745333871715223
H -1.5561177489388809 -0.9512084663778171 0.07539282446415678
H -1.4886960310255017 1.7130559607740066 -0.8785494473353805
O 1.9367579707389182 -0.45107414291728093 0.6449686149957118
C 1.373292940552749 -0.40132466494634944 -0.5323301886161038
H 1.6809644118397558 0.43964579143835697 -1.16957331152667
H 0.20366942523373266 -0.17536898282079016 -0.2928670557374453
H 1.3432728485832464 -1.3516254968897383 -1.0826562612613109
H 0.9106470647952725 -0.21093394703431098 1.6111849962925089
