18
## STRUCTURE-ID: 645670b7e0738e30907ffa8b ; CHARGE = -1; SPIN = 1
I -2.913919416992321 -2.6790858816747396 -1.216859665814253
C -2.29608932560153 -0.7069669025007926 -1.7462629090432216
H -2.0825250622908293 -0.6897509723773839 -2.8074891641421753
H -1.3667582051000686 -0.48057538558930996 -1.1711727488801014
H -3.0935535801296328 -0.02041188694862428 -1.4913350580709377
O 2.853703062598864 -0.2718298185483566 -0.9923851126432821
C 0.21797430507529195 1.9496665436855196 2.951674110340807
H -0.05687725295553748 2.966664478232829 2.6960330717880883
H 1.1457262437102296 1.665039660720519 2.4593768802671123
H 0.2765676483082359 1.7994489820442408 4.022221548123111
H 3.4505478498900075 -0.48138012966892446 -1.737246804492999
Rh 0.2658852600921091 -0.054627581000588496 0.06432100322436866
I 0.2076914875439848 2.37379074162736 -0.9074488587893698
I -1.3287986728891297 0.6426671908886232 2.182848086377442
O 1.2957701336869132 -0.9715111474284298 -2.4283255130275334
C 1.5555184817352141 -0.5071835599373342 -1.3210714972076614
O 1.15218137300215 -2.7959186780308136 0.8292299822037655
C 0.7169556703160712 -1.7380356534937764 0.6138926497868421
