12
## STRUCTURE-ID: 6456651f0b13143f805a8523 ; CHARGE = 0; SPIN = 1
O -1.268027715768776 -0.01975985259421418 -0.25967760511692667
C -1.4590832627931423 0.12834137237796248 1.0433833498180325
H -1.8378047313463124 1.1262988853027909 1.3351864402296096
H -0.431144986082475 0.029748287212388164 1.5737384735196476
H -2.093373763373766 -0.6542270716042881 1.5005095791491538
H 0.14477305711718122 0.37042819376159924 -3.2787880429486447
O 2.284217363193128 -0.5740269728758198 0.10071200374144647
C 1.0237601226049262 -0.3129911223672512 0.2891018252071688
H 0.6459232720660312 0.6710247870067375 0.07930203954660724
H 0.4067250767233887 -1.1922508484653587 0.293650388397559
H -0.2637982017053227 0.2185151695317815 -2.6320364699424017
H 2.8478337693651476 0.20889917271367886 -0.045081981601253
