21
## STRUCTURE-ID: 6456764915e4af183f5c0b0f ; CHARGE = -1; SPIN = 1
H -2.329675335173447 -0.25174382488912833 2.8477904237239753
I -1.8827696245581684 -1.2805740672847352 1.6988453794929703
O -1.3657082883290173 0.7859451244844414 0.9179879070823806
C -0.5832400814471047 -1.7923224915540519 -0.446674149129504
H -0.7961008112263623 -0.8126319386825156 -0.8217837032985024
H -1.2492070923870375 -2.61083336764863 -0.6356204520949377
H 0.3076014469620102 -1.950001245999981 0.1281186631646089
H -2.1762604505434577 1.1720498483986523 0.5744022426124343
O -0.14209862443106738 2.992803182774275 2.8158247554855746
C 0.45640920914911637 -2.2163527181305485 -2.200174928399878
H -0.4373589544433087 -2.074081002399495 -2.768797843384711
H 1.1097377576815661 -1.3891904910514117 -2.019212518751897
H 0.7101387182913538 -3.184084181493525 -1.8237989478242438
H -0.06332073727028999 2.4612072327778103 3.614747669235291
Rh 0.6739547328359732 2.1147200895533063 1.1904117533284415
I 1.4776641947919682 0.06877090059200841 2.632298279606447
I 1.7216709434081376 -2.7218314262210352 -4.36156927133344
O 0.5859775706543998 4.753330693461047 -0.22099291194577808
C 0.5819492841291644 3.74267560087797 0.33788704336692005
O 1.9469182054433136 0.8412948768241842 -1.187997581965544
C 1.4537179364622896 1.3508492056112824 -0.271691808970644
