8
## STRUCTURE-ID: 645663a7449ece55ec1fea7b ; CHARGE = 0; SPIN = 1
H -0.47389651138142125 0.9583614210463965 -2.372723131723578
I -1.6857933539819079 -0.6562710624301249 1.8374410097468872
O 0.017511089833065704 0.23134448345905653 -1.9811962477387182
C 0.3215506330835528 -0.07169746539460266 1.3316053445196991
H 0.988299055141313 -0.8523324572478224 1.6728584730584308
H 0.5294420995115962 0.8635739645412819 1.8340861505232477
H 0.37204569021757466 0.04375168871169271 0.25588480075289594
H -0.06915870242377294 -0.5167305726858731 -2.5779563991388765
