18
## STRUCTURE-ID: 64566ee23b8f025e4e5fdab4 ; CHARGE = -1; SPIN = 1
I -1.9954553376896997 0.9753649120450185 -1.6458609324682336
C -3.1975223646914492 0.0748188362153948 -0.0932129301782661
H -3.971382296322423 -0.5059134295078689 -0.5782230707121929
H -3.606683193515243 0.8792073053735758 0.5065552561247839
H -2.539573762797533 -0.5511372610225945 0.5022440964461943
O 0.7625045420466092 -3.173040973542723 1.6241378998063576
C 1.8569504894638789 -1.7674838431694182 -0.46780565813238256
H 1.8088789096994258 -2.8290757853551556 -0.28260668606925704
H 2.8692249655366866 -1.4028998685234415 -0.33018024647745914
H 1.495453833399477 -1.5243009823116815 -1.4614192806221091
H 0.2653040417071942 -3.327543894547472 2.42695866139631
Rh 0.5403040825819385 1.654833082938176 0.10045165670661198
I -0.9737319674767198 1.9138761251961862 2.224799643284281
I 0.6114728467853716 -0.8374533358138629 0.9632463022415577
O 2.8274088714684544 1.0524734511398135 -1.7329721285350361
C 1.9218520086546649 1.2810450894741836 -1.0517294622206415
O 0.7311356568546836 4.603817857128855 -0.45397752511365574
C 0.5938586742947088 3.483412714283011 -0.25040559547684993
