17
## STRUCTURE-ID: 64568be80e04c053ad1d80b0 ; CHARGE = 0; SPIN = 1
C -2.0994269367838556 -0.7751716737527563 0.25672977025073074
H -2.0486379514658015 0.10429312461726989 -0.47971010548204596
H -2.609045524317118 -1.5984220972344698 -0.23082003734757314
H -2.6175993841722334 -0.45098993811712923 1.1522738628345501
O 1.8056006272356617 0.24847706128106825 -1.9475466398140338
C 1.1467164523713336 1.1284565643189766 2.9824618492993293
H 1.88431131104863 0.4126352911455788 2.6393521640334514
H 0.3348752032970775 0.6288557845253853 3.497706196478177
H 1.5926571405845094 1.901643231529632 3.595547644401562
H 2.3567822066917112 0.9538040399210996 -2.344806951252756
Rh -0.17883698307746573 0.018686345338472746 -0.5002156351578572
I 0.3150627006132401 2.0995697706407714 1.2292757261720837
I -0.3116906845604676 -1.9486851215636252 1.2363431140523675
O -0.6953538576782772 -2.0495176367458168 -2.508526538313083
C -0.14600312854140943 -1.0810222739529876 -2.064410162425507
O 0.5167044840107979 0.48185718353042295 -3.7839472794214886
C 0.753884324743664 -0.07446965548190494 -2.729706978307919
