13
## STRUCTURE-ID: 645673d2a47ccc3dee67f9bd ; CHARGE = -1; SPIN = 1
I -2.8124478625789737 1.5195625427523045 1.7909963905017618
C -1.7353495147103346 -0.028589668138197816 -0.2714876472760959
H -1.3849317281568603 0.968019650501794 -0.44841032387410873
H -2.3991352917437383 -0.4283447025405892 -1.0235969111246668
H -1.6563889518434376 -0.6145635623495881 0.6214310032401644
O 2.1511285148561665 0.7322109629242401 1.698680872524344
Rh 0.9052736435285386 -0.39985054604910064 -0.024153706028735573
I 0.6745427152307802 -2.583083868484981 1.4109915367478563
I 0.29945958599385397 1.1933971162736026 2.0786897893028464
O 1.9185653679512047 2.1596643437940175 -1.1532596718002144
C 1.458752977386255 1.1571102873909842 -0.8424309660613851
O 1.3882805783956609 -2.1939902946531524 -2.358048084466527
C 1.1922499656908847 -1.4815422614213223 -1.4794022816852643
