13
## STRUCTURE-ID: 64568be6e64a1b73803288aa ; CHARGE = -1; SPIN = 1
I -1.4191612772835676 3.944138513935008 0.9998981781389499
O 0.17875861312097135 0.15772700858518832 -2.2642152443478465
C -0.8484861959239 2.020843083515169 0.334479984230144
H -1.256444556138868 1.8583330103087232 -0.6574371924663298
H -1.214434344499366 1.2869900452067509 1.0460020653036808
H -0.18596860687834052 -0.39534486523830137 -2.9658901987929833
Rh 0.9028429970445334 -0.7161555060107854 -0.7589738507321934
I 1.2963049243420788 1.8000154103631585 0.18850370117129114
I 0.26141505421540195 -3.0281743731437305 -1.8022292247075598
O 2.1575110408732896 -1.56047473260199 0.5861723067206258
C 1.0421902985326594 -1.4041791547079274 1.1615972279927724
O -0.9345642669958207 -1.9693797229530028 2.4344564807473694
C 0.0200363195909195 -1.9943387172582665 1.6976357667420792
