12
## STRUCTURE-ID: 64566db29c242741a64efcad ; CHARGE = -1; SPIN = 1
Rh -0.6605793456333195 0.21688847714741274 0.005297236017670723
I -0.8890216667178306 1.6604274493399243 -2.2422584143670585
I -3.1819687074714897 1.215460675668941 1.3089502057743074
O -0.6669983545452045 -1.5259902318528815 2.429416955712312
C -0.6098704759907305 -0.8786330926251523 1.48419550961558
O -2.0860299315363635 -1.8148137914452183 -1.6803997316244068
C -1.4668829940875063 -1.094979922747464 -1.0364541178412086
I 0.9433495513845588 2.0214297746847896 1.1953529372899088
C 1.9836103322051892 0.16710089306851758 -0.2685002670494029
H 2.833006895955456 0.822269277569932 -0.3818114028198742
H 1.6278504486122978 -0.15322647064882008 -1.2443496129461227
H 2.1735342478249455 -0.6359330381599785 0.43056070223829135
