12
## STRUCTURE-ID: 64566ab1dce582736d67f9ce ; CHARGE = 0; SPIN = 1
O -1.0164148859451407 -0.23807181404630226 -0.9812114181516985
C -1.4618473884162897 0.6086592033158859 0.06043271319368109
H 1.6893883817547424 -1.4194332540877386 2.839569870935137
H -2.4403257559880154 0.2994262535399668 0.4285962901328958
H -1.529343658134507 1.611803023702184 -0.3560366410348191
H -1.0818932013915061 -1.154959451436522 -0.6785952720378545
O 1.4444055113311745 0.3306872901156518 0.04944705483521396
C 1.1541435289548005 0.14221111553966745 -1.109092431629363
H 0.9252539994270851 0.9669316466735921 -1.7969665512446935
H -0.7389023719945281 0.6152195424600957 0.8836852140268403
H 1.263982454027282 -0.8402472870101674 -1.5883987616947315
H 1.7915533863749036 -0.9222262687662888 2.2485699326693904
