16
## STRUCTURE-ID: 64568d99918f3f3c074efcaa ; CHARGE = 0; SPIN = 1
H -2.4784040345739577 1.2218911051943713 1.453011484075136
I -1.092849062637952 0.8473863299795943 0.642576016991345
O 1.9968094367332765 -0.8526613826682008 1.8056413171552843
C -2.4909985748908263 0.15517282441946711 -0.8733275352220964
H -3.281691529329035 0.8942666661060583 -0.947034788566945
H -2.8663633013824876 -0.8159057731320736 -0.5637690246798162
H -1.9464295025441902 0.09272932483183284 -1.8105757593241913
H 1.5013819894282476 -1.1028182443904835 2.611853825896178
H -0.4668306537760128 -2.5775732151323765 -2.5274397129195108
Rh 1.242536735860125 -0.37632313795312194 -0.4016622424980632
I 0.02521300016298341 -2.7053862098410306 -1.02479427690195
I 0.8444808064970943 0.9522959098760253 -2.6154110477410852
O 3.3756937976138555 1.655941860267019 -0.0024229382888988184
C 2.484926831584432 0.9015746116101865 0.30690901398226883
O 1.2390662672990906 1.2111667647543511 2.344651943949489
C 1.9134577939553625 0.4982425660783842 1.6017937240928617
