11
## STRUCTURE-ID: 6456884a2eabbc62ad530d60 ; CHARGE = 0; SPIN = 1
Rh -0.5430029628943008 -0.6112781620435376 -0.10998416363959157
I -0.10843643498653954 -2.347792081794055 -1.9928235363622473
I -1.1634168563229437 -2.2023663301634553 1.846232829896385
O -0.6549116965147549 2.177833633285635 1.0957780937101707
C -0.7813100188212994 1.15400985919069 0.5659335466117967
O -2.283461268196152 1.371520145549883 -1.5192542265853843
C -1.4086849431074073 0.8645461989808038 -0.9451304702455808
C 1.4867556843165852 -0.13141745855667444 0.23071293257694694
H 1.6295648961118436 0.46164115793335825 1.1345895651552014
H 1.8765736749357034 0.3812842858470527 -0.6513221344923721
H 1.9503299254792497 -1.1179812482296954 0.3452675633746751
