17
## STRUCTURE-ID: 64568e8d7e789a19e47ffa74 ; CHARGE = 0; SPIN = 1
C -2.21264957129565 0.999186455951181 0.6964359349526357
H -2.101381147149566 1.9412600806371827 1.231641916833898
H -2.3949222529898124 0.19240739038361798 1.4075982830417535
H -3.0475742999209166 1.0700893205150626 -8.801340923832197e-06
O -0.3258066349076998 -1.20843959056304 0.6581965196497632
C 2.6387933693554304 -1.869350829657421 -0.04906366798647847
H 2.861905024940756 -2.7885678950359587 -0.5767279921259687
H 1.7298363337912273 -1.9578642888727886 0.5424291113670158
H 3.478880848862338 -1.5336107795998961 0.5465569885707899
H -0.9625272745068797 -1.8736364561762848 0.37280400929677454
Rh -0.46185836835037475 0.50806091174774 -0.3703996920788308
I -1.8031664169267079 -0.6763086607235207 -2.331007938643466
I 2.235398739943118 -0.352279517657492 -1.5315213649713506
O 1.1645583282021152 1.423269896396084 1.95290946517647
C 0.5274583892307948 1.169813112069304 1.0513063563664473
O -0.7276718625161964 2.911274485794486 -2.1629056468448233
C -0.5992732057619934 2.0446963647917262 -1.438243481263701
