17
## STRUCTURE-ID: 64568a4d54a4b03cc07ccc0a ; CHARGE = 0; SPIN = 1
C -2.1558194856183523 0.24680436881412862 0.7493366523939535
H -2.4574775988296302 -0.3662510085083331 1.6037818445405447
H -2.0882394124224053 1.2983469718488823 1.0435063792086061
H -2.897638452456858 0.14549236556168535 -0.043522866460571845
O 0.1736306239548349 0.6986507569248726 3.09115774802416
C 1.024100765412546 -0.2379242108260581 -3.440387614096252
H 1.0579796268138861 -1.316253981184255 -3.3254304911203616
H 1.932351639479637 0.22557274848971307 -3.070352711574495
H 0.8181505341680476 0.05081689269069968 -4.465582853553029
H -0.5344258824455951 0.35877926710494645 3.670116855652571
Rh -0.2901503212443922 -0.40547656295462986 0.16746687463816634
I 2.2450475559458076 -1.438803099762923 -0.0513029732386074
I -0.6299292938474038 0.49952939655332934 -2.2350226108363955
O 0.007793821159806339 -1.322546461217172 2.072391843059506
C 0.5074539394864398 -0.18371698687189375 2.157716267749403
O 1.8946669876317903 1.416298123419596 0.9568296019744583
C 1.3925049528118405 0.33068141991741956 1.119298053638357
