12
## STRUCTURE-ID: 64566a9a6a6592540a29342b ; CHARGE = 0; SPIN = 1
O -1.4536359179517233 -0.7255277932561998 -2.2047275658217287
C -0.5594590721721401 0.39702141177997813 1.1771394504278545
H -0.08783248952340199 0.2504861067824617 2.1550317507164185
H -0.6055403837034323 1.470186281079745 0.9616000877625664
H -1.5651125285657077 -0.016347213556539647 1.1913138063488649
H -1.9727562106850263 -1.4953069626557762 -1.959656162061689
O 0.1492784218752406 -0.29223308556555316 0.16893950586364337
C 1.4777281247884153 0.162231490468854 0.027205661170700206
H 1.500699701582602 1.2111785409035445 -0.2891164645902587
H 1.9425026877910985 -0.4591529384263535 -0.7347945503690991
H 2.025971713729278 0.060793700370028465 0.9699553133421926
H -0.8518440471651458 -0.5633295379241584 -1.4628908327894914
