12
## STRUCTURE-ID: 6456667af27def11fc4f7346 ; CHARGE = 0; SPIN = 1
O -1.5381544658164361 -0.28023971118331303 0.7174349134541854
C -0.3976663285097101 0.18225477014354083 0.8034834262025724
H -0.08408523467999968 0.6320364064705337 1.7712357299309953
H -3.2314112975574494 -0.4620263917387022 -1.2654704119511604
H -3.6130906567874654 -0.43730490818062095 -1.9445952040080632
H -0.4477759176224291 -1.0999653319157987 -1.641423918262147
O 2.1827006107670437 0.6829787216562118 1.1665916916607855
C 0.6794138990980966 0.05142709398894997 -0.08350831801807453
H 0.958948607435127 0.8559451377680498 -0.7434792045658505
H 0.16901474670662708 -0.8597194800860118 -1.0457913488968464
H 2.9448540170312514 0.8521286605559094 0.5955049156716368
H 2.3772520199353737 -0.11751496747878398 1.670017728781948
