12
## STRUCTURE-ID: 64567af80164f3738a5c0afd ; CHARGE = 0; SPIN = 1
C -1.3975258333363108 0.7007637311290201 0.056381861677257734
H -1.1752896521928609 1.7627596745741723 0.15328158500824104
H -2.1324343476236822 0.3877332484913943 0.8008153616675732
H -1.7363475942798632 0.45743815714475716 -0.9562772086559299
O 1.7157335769266935 -0.9891746551278461 -3.1323320723933556
Rh 0.34283563479058404 -0.5085501650565661 0.28076588404595737
I -0.8679752963896488 -2.62934464127385 1.159154266929622
I 0.7312751980434392 -1.9024428142388903 -1.8661141273997794
O 2.118722209743903 1.449133127786098 -1.1314559616202364
C 1.4232648867559048 0.7720435803096674 -0.5532177541082257
O 0.5416419742423227 0.3911337266024298 3.1382461148395135
C 0.4360992433195517 0.10850702965961238 2.050752050009349
