12
## STRUCTURE-ID: 64566a69ccd27c740c5c0b00 ; CHARGE = 0; SPIN = 1
O -0.7960678851895091 -1.4297579016680693 0.9438608587622958
C -1.2610634645915029 0.42693271190179066 0.394943815410374
H -2.2403356713796265 0.021290883572671133 0.6099118187185719
H -1.0837822811489275 0.6149277144016473 -0.6498180574295018
H -0.9856758229354345 1.2242820431260035 1.0616219198330175
H -0.9630881527608226 -1.9645375645726368 0.15850710620909864
O 0.8406304692532162 0.21934513620728147 0.5022317602864491
C 1.4458095823701111 0.41938148090379096 -0.7102225212092315
H 1.2414112620121887 -0.3893046251889303 -1.4335093363865417
H 2.536637654901473 0.47120817237318363 -0.573504631004823
H 1.1322013972450877 1.3738949192162737 -1.165484299999998
H 0.13332291222369805 -0.9876629702731811 0.8614615668104154
