8
## STRUCTURE-ID: 645663c9c551294cae1fea78 ; CHARGE = 0; SPIN = 1
H -1.711142275541682 0.1998437436424586 -0.3128174978392816
I -3.249346852684744 0.1398753150339646 0.0763467591067209
O 0.07357338756486075 0.17759808025002874 -0.7043038158309449
C 0.9561873363775778 -0.024100712572529746 0.3840434818984387
H 1.0154190828672984 -1.0811998940816903 0.6554126566544066
H 0.5549231726929946 0.5385241900904372 1.224982523097094
H 1.95516297962736 0.3500490599395192 0.15146093679552036
H 0.4052231690963314 -0.3005897823021942 -1.4751250438819576
