13
## STRUCTURE-ID: 64568bf8506fab55bc3eadca ; CHARGE = -1; SPIN = 1
I -0.8765058087005847 -2.08923267394026 -1.8920667203407358
C -1.5216611597641563 1.2012540148385737 -0.7271632454887407
H -2.3386111823836653 0.4760705758167496 -0.6787037214331804
H -1.1903569704310304 1.253553395800528 -1.7657520516635747
H -1.889222101695148 2.1748003488248044 -0.4002269087674129
O 0.8075922879397675 -2.206598799447595 2.9937413934157755
Rh 0.7680642442797352 -0.7226826955953515 -0.39657401055678654
I 1.9275195804968859 0.6130360498429555 -2.3424701334305578
I -0.03877256010958168 -2.465180960021537 1.3624045064603498
O 2.9252355526583806 -0.04905228253656347 1.5482683036812999
C 2.090299818009293 -0.22462384037046398 0.7875164998073604
O -0.22303530625883283 1.2451788280864038 1.2963670198512127
C -0.4405463940410717 0.7934780387017347 0.21465906846498475
