16
## STRUCTURE-ID: 64568e2f28b63e588b0b5344 ; CHARGE = -1; SPIN = 1
H -3.29784293379779 1.6287219642734205 0.4758614674657401
I -2.2936322077548006 0.29183239088018187 0.7536688473856826
O -0.80270130780739 -1.254461544066286 1.2121271932479143
C -0.6192664042785431 1.3718357975235078 0.08460076598518448
H 0.5874931383420604 -2.325328912924568 -0.8888262852497092
H 0.014327511547658104 1.6361581914958445 0.9233033295461737
H -0.9795992271819927 2.2620762408956474 -0.4252763457228261
H -1.2262210821565929 -2.114217285374536 1.2895795166775366
O -0.8952202082083776 -0.11733677277722375 -1.6941818989382613
H -0.5495760399037611 -0.415735322181212 -2.549398889866763
Rh 1.0926160574271602 -1.1452675625016577 0.11349486093530446
I 3.6477319204710748 -1.7818295242879705 -0.4296374667677575
O 2.309758698313548 0.5721579508765304 2.2247761336970306
C 1.7911638756328683 -0.027229803654828154 1.374261930634536
O 1.1275885477996919 0.9199615516679882 -1.519877956643621
C 0.09337966155519983 0.4986626401551511 -0.9444752023862052
