15
## STRUCTURE-ID: 645679a3de890f21152fdd8b ; CHARGE = 0; SPIN = 1
H -4.53237796292351 -0.42473388762837305 1.6702017506714855
I -1.5812559043347696 -0.08284411526768434 0.08633052301487633
O -4.782639127293231 -0.5673164821800161 0.7188319201550751
C -4.187686837952471 0.36012940539301314 -0.10270561291425391
H -4.395696890253245 0.18778417655820484 -1.1635019360604568
H -4.297621946605794 1.3866334403561111 0.26141144181003906
H -4.623855553691585 -1.4950742331373024 0.3984149783448135
O 5.402321933861344 0.958384248160436 0.07877776073912644
Rh 3.550565064216296 -0.7678004900100873 0.11767843862062065
I 3.447862934199038 -0.9622205174068382 2.6203585948963664
I 1.1522454354166571 -0.33359003679987814 0.19648895976399403
O 3.4108672019520134 2.0160890776265616 -0.2360110155597781
C 4.188071522652444 1.091067259432793 -0.07900603605646012
O 3.6730040643097213 -0.6163154616308769 -2.8612888418054117
C 3.57619606644708 -0.7501923834660624 -1.7059809256200995
