18
## STRUCTURE-ID: 6456b6f5295758233c4b65e4 ; CHARGE = -1; SPIN = 1
C -3.4757496808756505 0.322691087011164 0.2204519551428323
O -3.9475950813859413 1.097007025063872 0.9491152363787966
H 1.4916497714828882 -1.503324995811572 -0.8574197493468897
I 1.4828347247025477 0.08476973728866798 -0.7054252605064146
O 0.16941404784107225 -1.749865407179144 1.393838314732621
C 3.6832420351674244 -0.2168830070238802 -1.2912207761551076
H 3.6742858553153295 -0.7008414453744147 -2.2623455175966525
H 4.141618540270404 -0.8259993849979435 -0.5197287143684143
H 4.13303469901507 0.7680815777884346 -1.3436131969623892
H 0.2884467934284275 -2.430707492722309 2.088894333582864
O -2.3569335478036666 3.5394864933831136 -0.8470374267895168
Rh -1.3544974533386995 0.1627434946698851 -0.018270552269245156
I -1.4450575516574755 -1.7168986894042106 -1.8548763112428832
I -1.6458874092215416 2.1216983340861244 -1.8657378096491508
O -0.8919369262132264 2.2993067730892682 2.021644801922672
C -1.0201103297879976 1.4500358550048287 1.2463451288980132
O -1.8711270351682814 -1.508800715054588 2.24973093562175
C -1.055631451770677 -1.192499239817325 1.3956546086071568
