23
## STRUCTURE-ID: 6456b9251f845e397c56ede8 ; CHARGE = -1; SPIN = 1
C -1.59732453343391 -1.1677277845758856 1.457205565185109
O -1.905767446389019 -1.8372747293830112 0.5810591187415505
H 0.42233756794581173 0.6385902621246328 2.1481408231724095
I -0.35941288683368644 0.9731929704232922 0.8010891235824609
O 0.8486717083845694 -1.7343698193136694 1.420340619415133
C -1.8323474975267349 1.8179166051735218 2.308847082877101
H -2.1694823692826555 0.9822231632437176 2.9076577643851884
H -2.653047242279239 2.2724312254029497 1.7703767673844377
H -1.3025560970935366 2.5558194098200624 2.897108486525839
H 1.3344868968757897 -1.963383737428585 2.228604081034631
O 1.971186035569343 -2.5437407870680433 -1.9097215245419996
C -1.3017273865928436 1.6320527539010437 -2.484961342114004
H -1.6490169121804192 2.29649845361873 -1.7002778329042858
H -1.452026089309335 0.5950333744810975 -2.2041526280533277
H -1.75844031400779 1.8576517084828639 -3.4407271307725535
H 1.54209168291497 -2.4338644727469365 -2.7758798528329267
Rh 1.6036374153657202 0.0849858460340822 -0.6954779342107263
I 3.416125460395305 1.434937469037167 0.6473512656961694
I 0.8298829233935683 1.9393790454272346 -2.6804016006276914
O 0.11459548727151758 -1.3617471809236295 -1.3149105691996616
C 1.2016200967462536 -1.9008660122507817 -0.9628557987344871
O 2.9108144760167547 -2.318010752910593 0.6415292321084569
C 1.7856990240495583 -1.8197270105692436 0.3600562838831463
