12
## STRUCTURE-ID: 645668df1a2b5b245d662c68 ; CHARGE = 0; SPIN = 1
O -1.3186885027260338 0.8585030723971007 0.996662454742968
C -2.036365989796167 0.33033091480434135 -0.09322853319695959
H -3.01661761306113 0.8057476125169175 -0.09017923332376883
H -2.1666360642012257 -0.7527833782086023 -0.0007515619446432892
H -1.5393390576582768 0.550519093622204 -1.0442848718674105
H -0.4463258647651094 0.4240165037762239 1.0223434461531475
O 1.2326520793573286 -0.4099864913533042 0.8179589492430283
C 1.7533177783025602 -0.41451069604683877 -0.49670431708386314
H 2.6166783902283397 -1.0791730068727083 -0.5786163594695626
H 2.037434458316852 0.5925093410575007 -0.814969598979043
H 0.961558015547781 -0.783664603056263 -1.1461997288973702
H 1.922332370455096 -0.12150836263657284 1.4279693546234686
