21
## STRUCTURE-ID: 64568d9e249334593446226d ; CHARGE = -1; SPIN = 1
H -3.16068187263089 -0.45733022650463856 1.10136410412967
I -1.5481987726229745 -0.45300206693968237 0.47247958244481714
O -0.297565390919955 2.1968842233942327 -0.3974153536267577
C -2.6607022106687386 0.4692274823220402 -1.1444886539228039
H -3.130173165566672 1.3618609532667743 -0.7515158385486953
H -3.3891110156359088 -0.2549506903049224 -1.4888180305920653
H -1.9636902510299996 0.708772641508958 -1.9374668390391354
H -0.734973751487421 2.7875904114731287 -1.029267474458537
O 3.133586913863883 1.1506730092077466 -0.5085464186221622
C 0.7487152063173439 -2.31790610992889 2.5576807004232296
H 1.3716758573342442 -2.8170326008014133 3.2892159357602515
H -0.2939067140133832 -2.600889994573771 2.647883219002346
H 0.8580477134909102 -1.240543494164986 2.6040789075776467
H 3.656473218646459 0.6804803685157212 0.1638785665027163
Rh 0.7620901026687562 -0.4854190063374055 -0.7605229504034309
I -0.06644355676698323 -1.4008415205295563 -3.0789813437830453
I 1.4161495757496025 -2.9413682575979117 0.5982351093017552
O 1.4908099362011515 0.6053053850475912 0.9869022789597383
C 1.8112231612464211 1.130911428814243 -0.11563518340730974
O 1.147194667494241 2.1854755715057244 -2.1659546334838686
C 0.8494803483299203 1.6921024926269732 -1.0431056842143809
