12
## STRUCTURE-ID: 645665bf8e847d713c4609eb ; CHARGE = 0; SPIN = 1
O -0.5914877561468568 0.37583517730870014 0.16237728524884862
C -1.2351833155184893 -0.45226122514379974 -0.8383850393332848
H -0.5005469763308603 -0.6635951070897093 -1.6118931481906382
H -2.1106823907990324 0.04019634882973297 -1.2598671590724837
H -1.5310942246319388 -1.3800194726196715 -0.35133846146860315
H -0.3953406681864614 1.2624110732489844 -0.2157427947633945
O -1.496882421883865 -0.7242445580374396 1.9978587836414858
C -1.4022279834729252 0.49530003392642036 1.4416156069980124
H -0.8604874879819961 1.2400194747949 2.0332588141192445
H -2.4077445206039276 0.8324229384129103 1.171267077645719
H -0.6824787426013088 -0.9997957201700163 2.445909873053164
H 13.214156488157684 -0.026268963461033114 -4.975060837878051
