18
## STRUCTURE-ID: 64567019cc09d9262f6aac63 ; CHARGE = -1; SPIN = 1
I -2.251793178450879 0.4358588881376441 -1.2492896821002284
C -1.7491307766548023 1.026810961588589 1.9316860492529737
H -2.1876911445192846 0.05114615856954276 1.8830905043919342
H -2.320641604505684 1.8516636031734035 1.5614115117890313
H -1.0257170238900017 1.2082274244474118 2.70328034134929
O 3.1602043281016394 1.9823844328950668 -0.8934610457742486
C 1.0590244414324474 1.1624856762334606 0.7169261260467144
H 1.4066780445381717 2.183908199080095 0.7831153504748258
H 1.612829711159344 0.5176897636701951 1.3887311412507117
H -0.028593081590517457 1.102113778034146 0.936583659001089
H 3.636741038353648 2.193280375327464 -1.6951901206878721
Rh -0.27941559864999044 -1.5682347279401352 -1.337767680268944
I 0.2677019871997084 -1.4682587315590339 -3.966070446436553
I 1.3673947564614195 0.5135094052477289 -1.2599075942764424
O 0.34963084557960566 -2.063218081563667 1.5486942677182034
C 0.08788876978568977 -1.9086172517370885 0.43585744986507885
O -1.8580185281944614 -4.080198711182162 -1.8646466386767195
C -1.2470929861559243 -3.1405511624226192 -1.6230431929189584
