18
## STRUCTURE-ID: 64567054455ee31da023363b ; CHARGE = -1; SPIN = 1
I -2.9294582624285566 2.0000620718261883 0.5120293570918129
C -3.4082465832448015 -0.07644807219421505 0.24483353744473993
H -3.7933081234271793 -0.19978251054864732 -0.7599804062088658
H -4.141319124228061 -0.35126343539242116 0.9911968206329449
H -2.485767601018122 -0.6359890229541786 0.3765022686116225
O -0.2684812112137378 -1.133761369957729 0.15695870316465105
C 2.944355677824208 -1.591769658811365 0.6063784090840133
H 3.361928089464929 -2.58265387908826 0.4864948525425409
H 1.8754489090381665 -1.6340065647303537 0.7967070986889334
H 3.4521749950555436 -1.0376960808120805 1.3856158640753422
H -0.4888613548645235 -1.744196396852218 -0.5554501804680869
Rh 0.16256429235816305 0.7660575811780167 -0.5682406689716718
I -0.8683230646783483 0.14989486105786726 -2.9048438418845683
I 3.2152125041629054 -0.5303457592241536 -1.2416111371476082
O 1.2055445448204738 1.4710464099243985 2.141228754922082
C 0.7943470615149824 1.1899702433489285 1.099369331446914
O 0.8152241185863829 3.4981878714986014 -1.5798300509516487
C 0.5569651322775037 2.4426937117315775 -1.187358712073176
