18
## STRUCTURE-ID: 64567396c636036b06750ef3 ; CHARGE = -1; SPIN = 1
I -4.5985893424996105 0.7186965360753816 -0.3245507127650683
C -1.903272920894576 0.7088924103656907 -0.7734701556310856
H -1.9805771622376704 1.774770623404898 -0.7728794669453687
H -2.1480168399181188 0.13570955679205582 -1.6405924288717717
H -1.8917452073125895 0.1997470366375364 0.18194052063352792
O 2.689938083941053 -0.19440212114732702 0.5402231417442209
C 0.1489028342452964 0.8192333640099604 -1.411845690600685
H 0.07787671506457222 0.18585713681684876 -0.07154978066340915
H -0.3344514282164046 1.359556958537103 -2.2176400415946125
H 0.9666011074749021 1.4534997015698392 -1.061223587410682
H 3.658857659420183 -0.325034271979394 0.6052434645971785
Rh 0.11857146030351522 -0.35640205760822125 1.3908628013779039
I 1.0317833026558723 -0.8991440564817703 -2.3741398637627076
I 0.19916223698122767 1.929104791848615 2.4790473406914924
O -0.3746828396226838 -3.2063611557316345 0.6559019396686395
C -0.18591256123749686 -2.092447519152157 0.8718828012049726
O 2.516871660841049 -1.4289039581164427 2.405236051576416
C 2.0086832410114654 -0.7823729758409472 1.5175536667510041
