20
## STRUCTURE-ID: 645679f174011308d5493a7e ; CHARGE = 0; SPIN = 1
H -4.737073373061527 -2.3205922503231786 -2.1617595349310608
I -2.2491676049335587 -0.41954168609728637 -0.9433566902958449
O -5.050628782338876 -1.3968824520489338 -2.357982332841269
C -4.855294948823584 -0.5569069227321854 -1.2904545694471574
H -5.1424959060626385 0.47922989558383255 -1.5062286650046175
H -5.216982487634803 -0.979689608191113 -0.34577819542585714
H -4.678209906860299 -1.018068400896956 -3.1996027088250636
O 3.158930729385141 0.3410765932439381 3.2318277115362415
C 2.5175462851982258 -0.5630795415243369 -0.5716949159667931
H 2.5831201354054416 -1.575255880022497 -0.15046882652269392
H 3.4530795818913447 0.00782416728394995 -0.10333318114032834
H 2.7255779379956095 -0.630165308539117 -1.6471634804176902
H 3.104920230586446 -0.34603041073073754 3.9243391380820896
Rh 2.404501020998201 1.216636474920533 0.6102585306236992
I 0.4422794333774218 -0.07585373214394948 -0.41890832061301025
I 2.5336372611295808 2.657675408990802 -1.635070383497726
O 2.476080473069744 3.562101459350088 2.4572976871885297
C 2.4194912263370685 2.6509506471880235 1.73020422148699
O 1.7539185122982015 -1.05631682555328 2.2159622916684243
C 2.356770182042908 0.02288837224241565 2.161912224343141
