8
## STRUCTURE-ID: 645663e65afde5240722414b ; CHARGE = 0; SPIN = 1
H -1.366754217957808 -0.8534351192565265 -2.763972192082503
I -1.8682506185130165 1.088747654426001 0.8010007027167821
O -0.37588429300915693 -0.17685000223559288 0.4227236257589019
C 0.9173910116071509 0.1952712765024504 0.8293491367714748
H 1.54231007573492 -0.650052334357876 0.5346386699795211
H 0.9887108921973916 0.33413530837842237 1.911190531456983
H 1.2670560091021106 1.0967578644957465 0.3193903603464851
H -1.1045788591615953 -1.0345746479526254 -2.054320834947648
