18
## STRUCTURE-ID: 645672b98baf9758fd5a852b ; CHARGE = -1; SPIN = 1
I -5.46777273348644 -0.4673855060513201 -0.5897370668786988
C -3.3407891437769544 -0.6102015490313872 -0.7142359524536397
H -2.986646304277746 0.15483652979242693 -1.3929369336531268
H -3.092771298023807 -1.5968514828664293 -1.080815407935273
H -2.936185478929861 -0.45517795972742614 0.2775423694752386
O 2.8044178769482913 2.428079163703997 0.3662994669685041
C 1.6577726534789474 -2.0153975192513363 -1.5149166632491238
H 2.4547824100140323 -2.2829824261775538 -2.1972691482067774
H 1.0617604493606363 -1.2008402361888557 -1.9113327560040614
H 1.0413203950731331 -2.870598060332624 -1.268622228970947
H 2.7361016937077545 2.6885543342337566 -0.5578522553934794
Rh 1.1453345875764804 1.4529704311818086 1.068255030184863
I 2.585815814284695 -1.3220767112545104 0.3337674826423852
I -0.0029256244191157715 1.5874925849441428 -1.2858414308808264
O -1.350116343980769 0.22334570496184195 2.148668606401326
C -0.3629202037263008 0.6745253569427136 1.7375138901214546
O 2.2234461131394236 1.9017498761419749 3.8242508689650543
C 1.8293751370376183 1.7099574689787942 2.7572621288671155
