12
## STRUCTURE-ID: 645666f4bc25c41601068a1e ; CHARGE = 0; SPIN = 1
O -1.3642324521282 0.5714746166236633 -0.5953548249042961
C -1.8781056155555962 1.1578645613600371 0.32150498009654566
H -1.310299844523648 1.4787211083380236 1.2038748021190144
H -2.803022289612012 -3.066280832373438 1.804113854272182
H -2.94428916201044 1.4024188824224142 0.3240153973627051
H 0.10358461724593053 0.0963701433494332 -1.0225840772257682
O 1.0455952417087588 -0.2540763677086233 -1.2204638730966737
C 1.877437544227692 -0.08729328757684301 -0.04497477545964854
H 1.4529174997478154 -0.5886528125837645 0.8233946673303569
H 1.9610943812302286 0.9804404704469547 0.14273018786841515
H 2.8631161664175138 -0.4902806243071006 -0.2643748691555034
H 0.9962039132519671 -1.2007058579907524 -1.4718814692073297
