12
## STRUCTURE-ID: 645666ef2d9f6a1bef230d78 ; CHARGE = 0; SPIN = 1
O -2.543034604671264 0.13738013597114265 -0.8298890064473076
C -1.8170332364233144 0.3771696530794845 0.358954980368449
H -0.8909365969716241 -0.2031037860380411 0.3866083318865463
H -2.4178211865940065 0.14499934408641635 1.2442388594959515
H -1.5748844746266768 1.4386628580878262 0.36662045653586994
H -2.7278343002207315 -0.8073632443962473 -0.8892619402339553
O 1.325099845730648 -1.02925756621214 -0.18976919444651433
C 2.1424202988932293 0.08561536173504905 0.09572096568090663
H 1.8570632837756074 0.9534537860635809 -0.50631447319562
H 3.199526254605369 -0.13935588520467346 -0.0724248961887191
H 1.9941489307250344 0.32146383089504865 1.148273750759491
H 1.453285785777736 -1.2796644880674408 -1.1127578342151128
