18
## STRUCTURE-ID: 64568c112c486e0fcb6cd4b0 ; CHARGE = -1; SPIN = 1
I -2.7787893103422 0.07693634684891204 -2.600281001500632
C -1.7347462321013798 2.0196220577788178 0.5396574215371384
H -2.5553505642701384 1.3074012580620196 0.4824835562403109
H -1.0592220299838992 1.70980803867656 1.3371468754167901
H -2.1109671081840053 3.019403203147697 0.7532379332279122
O 2.4473142329409368 -1.1806759949416268 -0.16274802137614966
C 0.4785793251867234 -2.477493512042246 1.7240845942179914
H 0.8347863281834405 -1.7932896142036792 2.4834887293160746
H 1.2845625085683254 -3.0542933273029864 1.2893691309749036
H -0.30219653651209755 -3.1211189378753206 2.1085270746284017
H 3.342141452449476 -0.8535442414855805 -0.3941883748985744
Rh -0.31716299537793324 0.5569046354312884 -1.7892033722894747
I -0.4666172854004519 -1.270381636445595 0.08173763175284653
I 1.3136104246284537 -0.6861947404494336 -3.560044460602631
O -0.5507134552094307 3.0605568362377387 -1.288268896252051
C -0.9630701515745591 2.042579453538074 -0.7512946404792871
O 1.624160761746851 0.9232028313562959 -0.17276435641339197
C 1.5136806352519054 -0.2794226563309575 -0.08093982350015247
