12
## STRUCTURE-ID: 64566d82182e1c1f6e0876e4 ; CHARGE = -1; SPIN = 1
Rh -1.38280858019478 -0.2890555590965124 0.004361018339708812
I -1.0626656316189038 1.4768098018292084 -1.9499004499815893
I -1.0519996420959896 1.4816649666080812 1.9523199191610106
O -2.275539806445488 -2.1644040352471015 2.148848859333429
C -1.9037022600947144 -1.455507003032384 1.3184816914724364
O -2.2794649048700393 -2.1720512920921107 -2.1317410199604905
C -1.9069217388998363 -1.4599734692153912 -1.3044259897262036
I 1.7495427716557608 -0.9081061748974569 -0.0030640974959213916
C 2.45185141783851 1.1404227851147282 -0.0081252953996901
H 3.5333768203842753 1.1119074110624627 -0.02456521589407484
H 2.0774410872182787 1.616749038873978 0.8910161590714483
H 2.0508904671229424 1.6215435300924879 -0.8932055789200787
