18
## STRUCTURE-ID: 64567090772f0758b9408603 ; CHARGE = -1; SPIN = 1
I -4.725881888865273 3.792593632024585 1.177011988118897
C -3.111721184077179 2.206654002366685 0.28262278468103086
H -2.7738092288132203 2.900087675897015 -0.4624847134308623
H -3.8729792820227265 1.4915012530708411 0.03914927075719084
H -2.588000164072273 2.1266443449573007 1.2164878991798622
O 3.5557048496437 -2.728520739459723 -1.4449890013854145
C -1.7520149255460502 0.8835549590297107 -0.47606972497357486
H -0.9056516600680383 1.5124349091174107 -0.28699969569137174
H -1.9882995714341916 0.11627527406343324 0.2334325775101623
H -2.165968025256864 0.840442665860271 -1.463433966466679
H 4.296899178303384 -2.611843918297512 -2.073951323177187
Rh 1.8054743769253094 -1.4431893759755174 0.4832056339306192
I 0.5132856063475723 -0.22592920209914535 2.427378137873947
I 0.1380052148389074 -0.9449826123028008 -1.4131520722057527
O 3.902174007840578 -0.5605579595559306 -1.0296708519924627
C 3.2583154303489845 -1.5831829458307467 -0.8098703691400329
O 3.54387203987281 -3.2561335912539593 2.0964797942968465
C 2.870595226034567 -2.5158483716119053 1.5048536321147579
