18
## STRUCTURE-ID: 645674338abed91d7a33a74e ; CHARGE = -1; SPIN = 1
I -1.3869637434642792 -0.5073720897870602 0.9531372500550291
C -1.3523246637891022 -1.6034218940573852 -2.9589399993205734
H -1.1115641135129424 -1.8670985142823073 -3.9819221716607047
H -2.1800237045655995 -0.9149837975518853 -2.8563242811432037
H -1.4410524757462941 -2.445655065100289 -2.285625189414415
O 1.3065690511111574 -0.7358980756452221 3.262747485592758
C 0.6161627838918887 -0.3647105612980562 -2.1489082253969856
H -0.3968305755236289 -0.9971878943701399 -2.568416012512373
H 0.2036324422862665 0.5858295855605182 -1.8443070611462955
H 0.9796726838964677 -0.9886953552339407 -1.3458779154711003
H 1.8866349977129457 -1.120377506954108 2.5953631698076363
Rh 0.3260513074845867 1.0065420526584499 2.556446543082547
I 1.964688158683142 -0.19428842297027518 -3.715400101166042
I 2.1077348871070662 1.2663144356990526 0.5333221008276371
O -0.9276189501152737 3.6157355532901905 1.849673777085225
C -0.45219485043205543 2.58511034374287 2.0986705217425174
O -0.15748825558156174 1.3865769299787474 5.500482875640762
C 0.01491502055730885 1.2935802763211945 4.355877233397354
