12
## STRUCTURE-ID: 645668f654e54d7265662c63 ; CHARGE = 0; SPIN = 1
O -1.2113930763940677 0.5487944807950089 -0.5264501198813225
C -1.3563360514174025 0.4160546041904751 0.891193394636635
H -1.1000049342135365 1.378160452153978 1.329004707612841
H -0.6659005882987538 -0.34452148232794216 1.2695205103415539
H -2.3805066587505803 0.154207835299281 1.1412243755575218
H -1.7273710168512502 -0.1482145328492692 -0.9740436492199973
O 1.2430305344001016 -0.773638914054643 0.2599125095505548
C 1.3172350522349439 -0.10230490413048803 -0.8242241620543445
H 1.3591264128354872 -0.642480755178425 -1.7808692285904342
H 1.8856299199520146 0.8379677203847219 -0.8283314351728719
H 0.038143237763465024 0.2949561620919287 -0.7581219385858965
H 2.5983471687395707 -1.6189806663746331 0.8011850358057618
