12
## STRUCTURE-ID: 6456683dda37a205c8493a73 ; CHARGE = 0; SPIN = 1
O -0.8715400137407296 0.5828824669010467 -2.3696425630136466
C -0.7188254484098279 -0.46688865091446025 0.9581922211297179
H -1.4698353140668046 -0.03833406554467155 0.296564145429902
H -0.656096792765674 -1.5299394838796796 0.7455593852140643
H -1.0176658736408135 -0.3083708003861245 1.989575965782795
H -0.5042559496624659 0.4408401178433459 -3.24383976789075
O 1.0823525086079049 0.07459550235299683 -0.6109749699850446
C 0.5973291716929173 0.22794669996754643 0.6455445964571362
H 1.6974126260469962 -0.3765287167113671 0.6642117920059258
H 1.4098546508492782 -0.2835783965409194 1.693126245747222
H 0.5803850567018572 1.2820591443530729 0.97675910102726
H -0.12911462161263149 0.395316182559225 -1.745076151904588
