21
## STRUCTURE-ID: 64567bd1f39c993d95662c68 ; CHARGE = -2; SPIN = 1
O -3.189952256099704 -1.4388282101642995 -1.6637534271322665
C -0.917240241603962 0.4283204988364557 2.518564947016601
H -0.061527080083261666 1.0353088000231951 2.7989519151860223
H -0.6572589043418127 -0.6241067568832397 2.4857170921036724
H -1.7711656675947998 0.5992655428401498 3.1629979933827483
H -3.795119251205571 -1.7392647876011644 -0.9763146188277032
Rh -1.2464230777483423 -1.6967061406857054 -1.174051124416341
I -1.8943645398864153 -3.0618273478555675 0.9472810490725475
I -1.4741588356235937 1.04323907037412 0.5153863384061977
O -0.5565438534970073 -0.5852350831224236 -3.866917359751556
C -0.8400173514907564 -0.9926330664786877 -2.8260997256850717
O 1.6477726419712113 -2.296758531385359 -0.7438983530823642
C 0.5206535707001637 -2.0263654524810426 -0.8638863478005298
O 1.4714797400788642 2.5539101247600473 1.6601398516640649
H 1.2556848583394038 3.4846295807591035 1.5355961565567566
Rh 1.5869564960038087 1.5442379507512947 -0.09162116980161472
I 1.1628282480872765 3.730845146503745 -1.4653899511486506
O 2.7132016524347096 -0.7487972841277757 1.464037020869565
C 2.2550889652439787 0.13268806160993682 0.8776526059715086
O 1.997734952641002 0.0382644145461196 -2.6404213909779934
C 1.7923699336748047 0.6198134697810583 -1.653971501605545
