13
## STRUCTURE-ID: 64568a081504434f001fea73 ; CHARGE = -1; SPIN = 1
I -2.3536063274000534 2.5028600404304604 0.8917958989925575
O -1.1192186224276908 -1.5618402733310481 -0.07410257133192603
C 2.1099052839432932 -0.6724974826569033 1.7313698479043964
H 2.619255121054384 -1.5790799600276855 1.9998763866570126
H 2.6554986678259085 0.18176657353962297 1.37070816130519
H -1.5961005037667675 -2.3637192139784253 0.15996148406408292
Rh -0.5510103188996928 1.2196750499735567 -0.5593754671129266
I 1.4462599996871939 2.8103537828218665 0.08481335881253413
I 0.11757583189588733 -0.6913463763780402 1.61259976130865
O -2.9167610420118453 -0.2824413284676844 -1.60313360491978
C -1.963481788363181 0.14872146870857125 -1.1187073544976869
O 1.0637724027050488 -0.13074524952233887 -2.6652627053964326
C 0.48791129575751485 0.4182929688880495 -1.8305431957856722
