18
## STRUCTURE-ID: 64566e8304cf20693f333be8 ; CHARGE = -1; SPIN = 1
I -5.446526331591919 0.6519960738780066 -0.10168318272028724
C -3.5047984201448186 -0.22267828382988578 0.09408331471522781
H -2.8833392199623895 0.4612419229062815 0.6572298015008863
H -3.103014991750768 -0.37754071844795584 -0.8993264135396877
H -3.6122352835134843 -1.1646802230609863 0.6157622095694557
O 1.791371281507461 -2.0659248552535763 -2.79042845313365
C 0.06643142262747821 -0.6653868655454042 -1.166498553175055
H -0.09957261913130591 -1.273672870344324 -2.042168266466982
H -0.28498205371768986 0.3482453365933907 -1.321999544806192
H -0.395451496586172 -1.1089916304072378 -0.29205483539884874
H 2.628331200751324 -2.3912018063564027 -3.1199434790155247
Rh 2.378219868950581 0.928945569258569 1.2303073830724118
I 4.904501061276555 0.5579816168194075 0.8721598636538724
I 2.172001895634974 -0.6057249233758162 -0.8608022685156783
O -0.5923364722220038 1.161959901511992 1.4208356848355141
C 0.5560202016594079 1.0738780775992338 1.3390878214926794
O 2.7705880038961737 2.681959013204375 3.6423545621892015
C 2.6547919523166255 2.0095946648503586 2.723084355742613
