12
## STRUCTURE-ID: 645666ee08f8670f8930457b ; CHARGE = 0; SPIN = 1
O -0.6331335333713064 -0.005958721162669881 -1.391032020806893
C -1.455140151742533 0.8339061140155668 -1.6507547059575607
H -1.3443096374534504 1.879125700752092 -1.3383368115420977
H -3.922345223869113 0.2925155986725281 2.155266960378828
H -2.3619437987367005 0.5984251915635647 -2.215154538641414
H 0.7891308722735659 -0.029146680437571855 -0.6753451332419342
O 1.6594215805254902 -0.18207862222666535 -0.15252606337923266
C 1.3312484509206157 -0.564792408811066 1.2055310839335254
H 0.7223737929032575 -1.4664331720891963 1.2347595577023198
H 0.7728812727747354 0.25163223809508106 1.657729451653466
H 2.2595755220521245 -0.7122699930341145 1.7514417751336626
H 2.1822408537233047 -0.8949252453375772 -0.5815795552326818
