12
## STRUCTURE-ID: 64566a6617675153182b66b8 ; CHARGE = 0; SPIN = 1
O -1.6960320170863747 0.3695144007723777 -0.15189549923933027
C -2.036187704282291 -0.591298937573981 0.8195859607642597
H -3.1095150664277664 -0.760153556754256 0.7388106942604042
H -1.805407732146287 -0.23745900206921763 1.8295240260802048
H -1.5129559135465251 -1.5373752668403007 0.6474975327094854
H -0.735218653365507 0.5203443898537117 -0.09791229563100759
O 1.1277693232617418 0.61843296881341 0.1699053037466225
C 1.9147938743062969 0.15237418453043514 -0.9079328050839464
H 2.927658777943279 -0.09467348489641755 -0.5798394008976776
H 1.9623496980940927 0.8896740018046805 -1.7135972828478225
H 1.4335311601233234 -0.7492872842483249 -1.281588629151261
H 1.5292142531260178 1.4199075866078759 0.5274423952900715
