18
## STRUCTURE-ID: 64568a76d9ff1e61346cdb34 ; CHARGE = -1; SPIN = 1
I 0.40313598908206444 -1.1889999964601201 2.092219750606886
C -2.830388356519901 0.6271754782920427 1.4060871208947896
H -2.8633068029640234 -0.4566801690249797 1.2923136872494423
H -3.7304867647092834 1.085740919882236 0.9986759343928677
H -2.741239553722877 0.8329705450884495 2.473316927853561
O 0.29387745071143034 -1.8129281309019127 -3.288384316763524
C 2.055388417529966 -1.5671813329997468 -1.2024104625877632
H 1.8984775170896564 -2.4357504896190307 -0.5731084498988778
H 2.7479551380299916 -0.8746794808138532 -0.7377750816944678
H 2.372127709984395 -1.8529361447301294 -2.1964623670571553
H -0.5767229421106045 -1.928534785476896 -3.6709674172233484
Rh 0.3184425609510972 1.0670116054642185 0.6730362869222652
I 0.24367975380075071 2.9909063251289925 2.6616304071212147
I 0.1838503806503844 -0.5803129453201779 -1.4390261199283418
O -1.5901575260624459 1.9264912608437028 -0.22088397821536623
C -1.6255243533115808 1.1413667413692055 0.715291266798891
O 3.284318198011052 1.6355011222550355 0.5476297728666284
C 2.1565731835599236 1.3908394770229562 0.4688170386623149
