12
## STRUCTURE-ID: 64566b6c758d4866a7068a24 ; CHARGE = 0; SPIN = 1
O -1.7838972885986515 -0.4564240890202344 0.09493262661690886
C -1.0238645355216063 -1.576465195296674 0.12698781046287574
H -1.369349929853108 2.455273416336588 1.9847332969981395
H -0.9405921776579081 3.102605766202841 1.9500760986975931
H -0.9170717853008463 -1.9434795045299433 1.1382587395738384
H -1.8631210222776464 -0.14055041175617902 -0.8169964529324362
O 2.630257275284356 2.037964928825688 -0.40963636730467545
C -0.46944543349171197 -2.172367975107958 -0.9144135881238545
H -0.5850717015535273 -1.7928797937973526 -1.9155648700747259
H 2.6644110038862308 1.2194667435532243 0.09229242630410238
H 0.12011392532070449 -3.0599383450170965 -0.7929963171553707
H 3.5376316697637136 2.3267944596071213 -0.5376734030622565
