18
## STRUCTURE-ID: 645671368c6e240cdd4dd53e ; CHARGE = -1; SPIN = 1
I -4.3521705976952045 -1.1501087331089819 1.740848666799313
C -2.344361927417016 -1.2763172431101584 2.4963757442287093
H -2.2065476254763596 -0.4107091761472564 3.136595228859032
H -1.5024087362317995 -2.1766205935700595 0.7139567322030195
H -2.28648339217213 -2.1941670418452417 3.078161841513677
O 0.8207163044962931 -1.140277952039152 -1.5964539851975779
C -1.3424253875231866 -1.3299053178594213 1.379699357845513
H 3.90907674884871 1.4239137774245787 -3.065058986038946
H 1.5104201492235483 -1.7448966949286275 -1.2929488649054868
H -0.3233349054633588 -1.3314360418381084 1.7700171924024521
H 0.6537858587713208 -1.3563532499638455 -2.5203920135386553
Rh 0.8949332056250711 1.2988675630751207 -0.6709620917129451
I 2.1205171168083043 0.34172078731512906 1.383598737221103
I -1.477085514832024 0.462620240815664 0.05161118732611265
O 0.06855008448483328 2.813180450348932 -3.0974345210258867
C 0.300970019811637 2.1896341404553525 -2.158458982664003
O 3.190568061035471 3.183821381495647 -0.6069687335353983
C 2.3652805377058668 2.3970337034804285 -0.7421865097800151
