19
## STRUCTURE-ID: 64568dbbccff1572b62fdd80 ; CHARGE = -1; SPIN = 1
O 0.046588788102553985 2.4696830183845453 0.8317366024433449
C -1.1473420380078865 -0.1735313252999403 -1.8528874838449854
H -0.784925717427293 -0.4397342793508809 -2.8524634986547874
H -1.7974910477793464 -0.98577779396558 -1.5095450655478535
H -1.771363428764979 0.7178692314507436 -1.9654843278071938
H -0.5764285833124727 3.12845561102194 1.2056351055065073
O 0.6795837101630526 -1.8297971913583932 -0.6330006662189168
C 0.24186306319237066 -2.2009131690234205 2.5633318516879906
H 0.9332542532078497 -1.7153999957107635 3.241191983917514
H 0.7491674757254945 -2.512401861398909 1.6566775924273425
H -0.2854107061090142 -3.020200948947055 3.0340762965931956
H 0.29704508248207834 -2.2417214876108296 -1.4126387511764291
Rh 0.4278590191380652 0.1203769873070959 -0.4907929973346016
I 2.6117666886921684 0.37438736732106437 1.099472866998496
I -1.2185403963535848 -0.7342553047998596 1.9620724251319672
O 1.7250169037224479 2.333616815212911 -2.0083913516032017
C 1.0604903714751246 1.6237980801330112 -1.318475208205747
O -1.0245976334537756 2.845751460436119 -1.0852179060311817
C -0.16653580469268778 2.2397947861982135 -0.4652974682812421
