18
## STRUCTURE-ID: 645670340c99863a885c0b00 ; CHARGE = -1; SPIN = 1
I -2.952760051167996 -0.1302731176143907 -0.7097626873042212
C -2.375040334962772 0.7305515886002035 1.2030819635456598
H -0.09153114072736662 1.0190073768949395 2.3275179526379146
H -2.9051908718065693 0.12978401159489047 1.9458615763494282
H -2.811754110699827 1.7326296404247066 1.2033802648765917
O 2.4992799259986485 0.493045423991447 1.7200573490115003
C 0.31613835433394716 -1.7317397064343527 -2.5281084560957887
H -0.711735923398315 -1.9960097931331338 -2.3054260479418547
H 0.9816379666452258 -2.038005715420188 -1.7294453395825184
H 0.6295902470326318 -2.1406629349782533 -3.479253520606237
H 3.4262888108827796 0.20432081654477185 1.5875597215123154
Rh -0.2778743798744502 0.4767809901749118 0.9464096186952659
I -0.4583114594764899 -2.0239412375635486 1.7562266679159118
I 0.43763359791741147 0.4065570383679016 -2.659660787847787
O 2.215502350962187 -0.5441776938987959 -0.2143686822496689
C 1.702502905619255 0.07982235732159883 0.7105958047207033
O 0.3180138497196957 3.1908785231685806 -0.08582614792714655
C 0.057610263002194684 2.141432431958956 0.3111607502901841
