12
## STRUCTURE-ID: 6456688cb868e512753eadd8 ; CHARGE = 0; SPIN = 1
O -1.5070514875358938 1.1540363324146619 -0.01148054084500734
C -1.9759421984303676 -0.04882292365162544 0.5517298905340353
H -1.690262669517563 -0.13487759331586052 1.6051114961847743
H -1.5976177318676534 -0.9201814657326002 0.007624880313695021
H -3.062692216175259 -0.030075288830033655 0.4793952053060022
H -0.5358297122523024 1.1437568448652957 0.027909791061766
O 1.3056251465181972 0.5931850208511319 0.1692915731712374
C 1.7136046268645677 -0.4040807435657524 -0.7442992811993477
H 2.709462339586379 -0.1947267861976296 -1.143159173936734
H 0.9959840413375466 -0.3924757848147829 -1.5627977902684627
H 1.7094690228436404 -1.3938184633677124 -0.2786609848411865
H 1.935250838628471 0.6280808513448436 0.8993349345193827
