12
## STRUCTURE-ID: 645664dbf6d1b261b50876fb ; CHARGE = 0; SPIN = 1
O -1.4882479990192803 -0.8563084425523606 0.27780589409044426
C -1.8747145363485433 -0.1528358720820709 1.4351896447448118
H -1.891869445375866 0.9272453088798197 1.2600420127278238
H -1.2056668870851768 -0.36664464393939944 2.2749312280297613
H -2.8796990578906305 -0.4872362273925214 1.6902148460049031
H -0.6031113387881569 -0.5443831152903497 0.01950302880843108
O 1.1436441412076601 0.18014110316363524 -0.20680685973643648
C 1.6480422407042055 0.3153782385913577 -1.520366432122282
H 2.438756431880821 1.0685646946113214 -1.5630449242451026
H 0.8173165030205666 0.6371242120948557 -2.1450153653774775
H 2.030203279857474 -0.6364316176519248 -1.8990915600694531
H 1.865346667836927 -0.08461363843236568 0.3766384871445749
