12
## STRUCTURE-ID: 6456697b834ae847715b5c2e ; CHARGE = 0; SPIN = 1
O -1.9200195528940098 0.13600081418151938 -0.04020783118931077
C -1.6741504136551393 0.6839747043839979 1.2359955569563046
H -2.5823044854919934 0.7039892824512772 1.8460037233794062
H -1.26463812268422 1.6961306858736487 1.1656446095142572
H -0.9409781549562863 0.03832884064514648 1.7166474698884178
H -2.5672922515483694 0.6865947389730349 -0.4970337031820403
O 3.4776418678227796 -0.8999602996617573 -1.2450858975514876
C 2.5585909695431477 -0.1461433895920939 -1.0786271578259714
H 2.3172442568538294 0.2779561921559231 -0.0924258743876194
H -0.03843476312452328 -1.756444661429337 -0.5020603199661837
H 1.9109259426848886 0.18472116334512945 -1.9038516565027888
H 0.7234147074498951 -1.6051480713264965 -0.6049989191329646
