13
## STRUCTURE-ID: 645688c996e5d37e744609d4 ; CHARGE = -1; SPIN = 1
O -0.24824514259192335 -2.3155443134880036 2.177557946891066
C -0.6112350328485736 1.5203368998218358 0.7783271058280048
H -0.4253156138983968 1.7980426994848255 1.8165570188821623
H -0.7057587146841254 2.424169699153065 0.17698866459638937
H -1.5415030098502456 0.9569089971453834 0.6972947353636297
H -0.1989215226477008 -3.175320272760718 2.6004395701185303
Rh 0.32557981420569077 -0.4984325921859796 -1.2849664229673212
I 0.2966065999778542 -2.644510575043418 -2.897074506878156
I -0.03293503968815952 -2.552046031066856 0.1664139416650297
O 1.6524648752968307 0.762900722453187 0.7882187875499018
C 0.5601191896503614 0.7184632155362435 0.22812355545221855
O 0.5025916954223119 2.0019882708768173 -2.9162581617060166
C 0.4265519016560774 1.0030432800736087 -2.3316222347954443
