17
## STRUCTURE-ID: 64568ce768b8e75b3119eb54 ; CHARGE = 0; SPIN = 1
C -1.0222718276656628 -2.041208686634722 -0.2543304737337427
H -1.866335323743548 -2.233666660572412 0.403996195159758
H -1.318358714883109 -1.4019254824987342 -1.0849162073740743
H -0.595881148226559 -2.976563339396962 -0.6140189607750863
O -0.7713482243789668 0.9313882679944853 -1.675850892133048
C 0.8941769513296094 2.9305345987106177 -0.5115667131933488
H 1.0172965238390776 3.464283194269959 -1.4457542739538656
H 1.5752721971674999 3.305223446608579 0.2435064450054418
H -0.13753354562443112 2.967139062348656 -0.18387927675198956
H -0.8840914340306141 1.2238286925680024 -2.579825322943252
Rh 0.5582295892983321 -0.9405135976320124 0.7460442322352631
I 2.5297809688123767 -2.4604168460995273 -0.10622366496706336
I 1.389412867673315 0.8644898824667049 -0.8600224750565756
O -1.4071563653386414 1.1678678698920335 1.5100717361794442
C -0.6981885872519409 0.31413931887003915 1.2563520500766365
O 0.3051498149233472 -2.9815328609596623 2.950782280163301
C 0.43184625809992133 -2.1330668599350653 2.205635322062192
