12
## STRUCTURE-ID: 64566815bcdfb4055b671003 ; CHARGE = 0; SPIN = 1
O -2.2380969763499245 -0.7264637034679725 -1.655930883516664
C -1.7900788325351924 0.38063803664500057 -0.9156044474627772
H -1.7894014160899494 1.2988121236808294 -1.5097828581664605
H -0.7560391601181786 0.20956158009297027 -0.5147185079742365
H -2.470345483293927 0.49555588990941807 -0.07324180686397075
H -1.6898693603128039 -0.8242267496988039 -2.4441528134123205
O 1.9053807735291661 -0.03173242080990311 0.4769963231296713
C 2.228468550576105 -0.4451298717829693 1.770346104977895
H 2.197936040476504 0.8909735500803702 0.38014774515984867
H 1.889420352667647 -1.4734123569878579 1.9218895150899928
H 1.799009711639586 0.19293926132636144 2.5537949186821534
H 0.713615799810975 0.032484661012559556 0.01025671035685641
