13
## STRUCTURE-ID: 645673ad8ce6c93ee5662c5a ; CHARGE = -1; SPIN = 1
I -0.8618335108435123 1.5673353446203653 2.3982963088231646
C -1.5420455222306688 -0.1993308558785102 -0.6008052271340505
H -1.8984846963660966 -0.883765270838482 0.178351433509124
H -1.8595823206983308 -0.5457458283379197 -1.586512929063135
H -1.9174667858054606 0.8082441608822517 -0.4183323346155186
O 1.3516152120672391 -1.2602145728266545 3.0515533065137252
Rh 0.5444776151928942 -0.3182720527640233 -0.44211510564342377
I 0.8326383955569536 -2.371389771048737 -2.071800511738389
I 1.1597116153539706 -2.042873100394171 1.3708464358883548
O 1.844496377662262 1.4253749873097599 1.2765488983623046
C 0.7739938654497011 0.9755935208419039 1.0214610218189037
O 0.9007892839373524 1.8453579781955598 -2.454843690318978
C 0.6716904707236939 0.9996854602386293 -1.7226476064020941
