15
## STRUCTURE-ID: 6456b709bccc6b4f322a156d ; CHARGE = -1; SPIN = 1
C -2.0008190951172735 -0.1396940599934628 -0.26834228614210714
O -2.3007726446162637 -1.1098233188564013 -0.9428438185748934
I 1.7930099499002097 1.3848950276570577 1.7797695510028972
O 0.34644973760314673 -1.809054889740274 1.1942460034580211
C 2.5761683852021067 -0.10925776309918152 -2.27968482537972
H 2.6906673838763893 0.6358714616169705 -3.0479057184623635
H 3.4210807440768174 -0.5198441108245297 -1.7546636331800802
H 0.3570302440939871 -2.5403541784218495 1.8467028340644
Rh -0.40124522210153835 0.808551051729806 0.3603574135079131
I -0.32073223521886923 3.05126277043254 -1.0929810259675925
I 0.7132349379914394 -0.6423116459384299 -1.6996359471155917
O -1.0335803567991815 -0.7624658083287682 2.6066210599370234
C -0.3850369654130683 -0.7679169941173698 1.5742372029021832
O -3.0526228683999683 1.6536401052435978 1.1780659891518008
C -2.402831995077942 0.8665023526402843 0.5460572007981191
