13
## STRUCTURE-ID: 64568c986510df6a80530d60 ; CHARGE = -1; SPIN = 1
I -1.1204339166861106 1.6664556944544615 -1.8775245838854155
C -1.360206719824912 -1.255385706844265 0.3006827812270351
H -1.4425660823052537 -0.6190390013574597 1.1987619514505266
H -1.1247144114554852 -2.273796691452749 0.6047975750701764
H -2.295413659601801 -1.2111366175267306 -0.25479426151498125
O 0.8019403984286086 1.6432881839231503 0.9591266641679167
Rh 0.29464712934125986 -0.029894351079821274 -0.4346780644322121
I 2.282977230363361 -1.425525363846072 0.5942720658532403
I 0.8822167878317455 3.5209864427166417 3.1155174723252834
O 2.3689324471263125 2.0434569156767073 -0.6891791456192511
C 1.5230377637016985 1.6910301700140313 0.031319993742971494
O -0.5236477784467881 -2.2997302655203655 -2.1396232484852082
C -0.2867691884726307 -1.4507094091575494 -1.4086791999000947
