21
## STRUCTURE-ID: 64567574450d1a10ef293429 ; CHARGE = -1; SPIN = 1
H -4.451261170810467 0.5544720971065936 -0.2663866124668939
I -3.6791180330585616 -0.17607227883348653 0.9104127277369857
O -2.38732101296742 0.010625702168410495 -1.3097087824120086
C -1.06265504650738 -0.6991485276323506 1.3107624277526382
H -1.325332950569064 -1.6982397930974489 1.6256351498729904
H -1.0506597286098938 0.08617225138405622 2.0534210442277248
H -1.0972618363915352 -0.4463808561029363 0.26412294497587346
H -2.6474585978994867 -0.7388486870075198 -1.8460986189161723
O 1.9125191658479879 3.4761222350104592 -1.1996165834314212
C 0.7516877320575476 1.075732942875425 -1.8693486122265415
H 0.7263533757765107 2.023242061422773 -2.3843428123455284
H -0.25122558417688023 0.678924971099041 -1.7444398483109558
H 1.3871614343829257 0.3750084415200221 -2.397834758300262
H 2.3281560697009542 4.1393253826705 -0.6491996317807581
Rh 1.353527910645195 -0.8974574213407257 1.2215214877321208
I 1.9798698456584722 0.5208682306814767 3.299698883457424
I 1.5719868150407008 1.4550706205827715 0.03979322283769779
O 1.2647632506808602 -2.1104030999078414 -1.5120391109702542
C 1.264744284275575 -1.6600282320185087 -0.45402739051266955
O 1.839659450198276 -3.467379581228357 2.725827592780648
C 1.5718646267256837 -2.501606459352354 2.181847280299359
