17
## STRUCTURE-ID: 64568e8b5e31572edc071014 ; CHARGE = 0; SPIN = 1
C -2.2238120004072472 1.0054701055517241 0.6457100770501516
H -2.1395746512867335 1.9897460122501545 1.1049016284994757
H -2.3731041820316343 0.2508873912378114 1.4189374720390038
H -3.067431038669946 0.9951269578481418 -0.043461762663113516
O -0.2997205495006545 -1.172948094082797 0.7136078315300413
C 2.6635930459068584 -1.8173665223811792 0.04717228779237669
H 2.9309274254695508 -2.7535807772697307 -0.4271950117002423
H 1.7460901198857592 -1.9071110866781877 0.6252880853584217
H 3.4763667249012986 -1.4203964873018917 0.6427862485858821
H -0.939145124733305 -1.8563756580828743 0.4827684811864756
Rh -0.47005892107420477 0.4854664575352536 -0.4032655253020694
I -1.795364065546288 -0.8180829011417163 -2.297294732231266
I 2.2405537578198857 -0.39370154565078846 -1.519719817569976
O 1.1649173494708391 1.4606764666606733 1.8856697524884753
C 0.5200686666735662 1.2052641741609396 0.9903884584959962
O -0.7946154804914852 2.784714875280133 -2.3178783230631126
C -0.6396910763862503 1.9622106320643309 -1.5484151504965231
