21
## STRUCTURE-ID: 64567644f8af40389d67f9ce ; CHARGE = -1; SPIN = 1
H -1.2250952170687612 4.906886260871575 0.6409012858352731
I -1.3631953813670319 1.293412105731202 -0.9488743823806892
O -2.6629574248426526 2.5411617470888017 -0.17223786426644158
C -2.9546206604183634 -0.175169221548298 -0.8402531195077745
H -2.682173434514496 -0.9435173378427848 -0.1183959379590935
H -3.1203681445879434 -0.6041287776445136 -1.8253776205876386
H -3.8032117267979224 0.4062441866663517 -0.4996811932531598
H -2.1760363255803425 3.3045487404167115 0.08904273112113355
O 2.8221228440232697 -1.5799879433786332 0.33247086349651783
C 0.3640778682170811 -3.0990339766500408 1.2532518416540073
H 1.433749192191078 -3.282659648820142 1.2319910577085889
H -0.06264168246460745 -3.2073911267483863 0.25870158874775506
H -0.1533324316630071 -3.679709035198581 2.0090017317317708
H 3.311515968495094 -1.8851555237392827 -0.43752160210632507
Rh 2.0256952541546633 0.16828836585860157 0.32767712297754437
I 0.16419963235226212 -0.9784018501380966 1.8175744235291686
I -0.014242658091245405 -0.975122045332795 -2.0484364844819622
O 1.2308493579554218 3.037308501071251 0.18145531703303758
C 1.3718747185349527 1.8877615305873658 0.3306070301821726
O 4.099163539581937 1.8202822262215848 -1.0257434463297148
C 3.3946267118906217 1.044382822528142 -0.5561533431441628
