12
## STRUCTURE-ID: 64566a93107445072f493a70 ; CHARGE = 0; SPIN = 1
O -1.6680293227113463 0.583478680745126 0.043817133858664946
C -0.31041786003967703 -0.6451106947131617 0.9010023384119391
H -1.3728081782150476 -0.5157374494774303 0.24738874686453252
H -0.061208726493067314 -1.6824421887065362 0.6676569737678126
H -0.532316589713885 -0.4849068212642708 1.9526057678044668
H -2.571474656169743 1.820369868050249 -0.5715736590597408
O 0.7806302330876598 0.19370393434699387 0.516522111616287
C 1.2395886829914806 -0.048895578494158494 -0.836569596677087
H 2.0391304716280136 0.6587863459733699 -1.045620164554297
H 0.42290700659950164 0.07980832610167703 -1.5470295763169435
H 1.6270259097022233 -1.0653459797974074 -0.8785269059588112
H 0.4069730293338851 1.1062915572355547 0.550326830243185
