21
## STRUCTURE-ID: 64568d1ce288de07942eaab0 ; CHARGE = -1; SPIN = 1
H -1.4757912173184868 -0.1244616728052143 -2.5184123512008196
I -1.996614816362214 0.8706330393692767 -1.2614122050092855
O -1.4543031401557853 -1.0463536533998086 -0.4834299731237708
C -2.7343536158234065 1.1717225735697463 0.7911252314217071
H -3.6325420599870832 0.5815472187341173 0.9236944232850025
H -2.956205100185261 2.232287156458372 0.8430985470332717
H -1.9680614497051792 0.9045463246779626 1.5107321549782673
H -2.062303351347079 -1.358389465324653 0.1867613007481905
O 0.7216744104897248 -1.9029667574990918 2.980731420257694
C 1.6292262623761642 -1.8795257111953267 0.40057462077112427
H 1.746203172870718 -2.667747347230383 1.12911253554425
H 2.5831745465139404 -1.5808726722569706 -0.02159573249775762
H 0.937254881484607 -2.1668705365224543 -0.38272563528217657
H 0.3796178873303623 -1.5597099989598984 3.8060994635103973
Rh 0.7898507614647685 1.3065317708654656 -0.7081316808277264
I 0.22983085816573007 3.2727280185575762 0.91602824894279
I 0.8014065584376793 -0.21271611073567073 1.3993909201130659
O 1.7296301013104658 -0.315550796392758 -3.129815739595848
C 1.4502784068945616 0.3565510261331465 -2.184054744101654
O 3.1807381358255657 2.26590529352201 -2.228918333540543
C 2.101288767720165 1.8527123004344808 -1.9688524714262696
