36
## STRUCTURE-ID: 6456ec26073a74600d1d80ad ; CHARGE = -3; SPIN = 1
Rh -2.6449455277414704 -0.19948354909773003 -1.1533332870294526
I -4.115715844784865 -1.138147076080149 0.7724162380453936
I -0.764755763883985 -2.329346743961312 -1.2264065523472492
O -0.8056678149527252 0.8842760505688902 -3.2469842788048013
C -1.5907383861621178 0.5246053251005818 -2.464475748178291
O -3.3883368632895405 2.4829637340017308 -0.626966190171019
C -3.733463444367928 1.4312584002960735 -1.1498314711012974
H -5.680194618048004 -1.2118882561107183 -1.991770568668864
I -4.363740291752507 -1.448160342216119 -2.8698233912821607
O -4.918357010471881 1.3473373021067236 -1.7820442763194382
C -6.010735853789531 -2.4793661013180914 -4.183838199157222
H -6.428594266500149 -3.2703691494573692 -3.5727503085484047
H -5.507417157375638 -2.8732327014349703 -5.057985631971695
H -6.7311486557478775 -1.7122546224211432 -4.441202311497853
H -5.446060275736263 2.1722750212799147 -1.7299652769186376
O 4.437319722458392 0.5001418331598833 4.164076217014243
C 4.646995992278093 2.727462321710869 1.3502450457165331
H 5.461045684958157 3.055308583494202 1.9828223565219443
H 4.625271146842469 3.2513918559599726 0.4026191545102732
H 4.687167870724714 1.6557351516818763 1.1862684813837556
H 4.1034095955657754 1.4122567410141649 4.1912911142876474
Rh 1.1051161195598143 -0.45199497478565764 -0.7274459319158494
I 2.0833185934059784 1.99101691789121 -1.4664637545589927
I 2.800024440864596 3.1637367895630515 2.3640735941492435
O 3.932357361018773 -0.4861355902341957 0.7705544531990207
C 2.8066551587769886 -0.674688421175711 1.286600737503289
O 3.041271374538917 -1.7027428991184572 -2.586204928720964
C 2.238283649055538 -1.1951564398058527 -1.8965150409287335
O 2.366339769149625 -2.0310027280854133 1.2051895053659638
H 3.1006793824350702 -2.5975544370689376 0.9064427818956894
Rh 1.8266683535025072 0.27638204012720635 2.7959362218600488
I -0.3495275649349628 0.4867980303736631 1.3060792001115462
O 3.8277527252854586 -1.5722051603447118 3.761481128721567
C 3.4783231953177998 -0.3961516884352234 3.6591529016973117
O 0.7832416860274576 0.04461664916319657 5.569683384969718
C 1.1281575177741043 0.36231813366024845 4.49907463116626
