12
## STRUCTURE-ID: 645666fe0becdf7cfb1a5620 ; CHARGE = 0; SPIN = 1
O 0.46264390247002374 0.15334620556194975 1.2468797469001505
C -2.2778293418398627 0.07967224216768057 -0.6620114067415003
H -3.075661958398885 0.7457598989173445 -0.3607624697132437
H -2.6480975445192954 -0.9369033670370766 -0.6842659846726047
H -1.9270445209527525 0.35962820224343023 -1.6463572925095202
H -1.4649412768805568 0.15252429052220792 0.050925972424709594
O 1.8950308607674806 0.11362587598761031 1.6110159467598864
C 1.7174794773065554 0.02790988076461763 -0.18864083610011426
H 1.1759593303791498 -0.8347774785286187 -0.5528260561334116
H 2.802336506668731 -0.06855025859213375 -0.275949245727714
H 1.3518497264289824 0.9696280251021128 -0.5723249368721673
H 1.9882748385704225 -0.7618635171091312 2.034316562385534
