15
## STRUCTURE-ID: 6456b6638423c72e4b2a156d ; CHARGE = 0; SPIN = 1
C -2.083140288925462 -0.5970210912063294 0.6845105079434365
O -2.461128972951458 -1.5096705424764096 1.2520393191127994
I -0.5253768682739723 -1.3139674497472318 -1.5428011894328308
C -1.1137973516222017 0.6276462468900871 -2.309787936880285
H -1.7657262154448978 1.075865411854074 -1.5673168046279438
H -1.6316999116736117 0.45784947850960867 -3.2462223745435472
H -0.20874398766842056 1.2058857297041532 -2.4642167773769383
H 0.5839036389099315 3.2245934431779344 0.19824267945471002
Rh 1.1285054409097397 -0.12325040953360002 0.9528425633743335
I -0.24205948263900537 2.1897964829148315 1.0891860904240158
I 2.8601090700471334 0.8764592045942347 -0.7544302253453384
O 3.1066276322366444 -2.3586365087237398 1.0019716059718269
C 2.332790577539976 -1.5165419241742701 1.0006128049156702
O -0.2163936236271598 -1.372230321630573 3.315101216673018
C 0.23613034318334053 -0.8667777501509694 2.3902685203368397
