12
## STRUCTURE-ID: 6456882d6323a121586aac5a ; CHARGE = -1; SPIN = 1
Rh -0.3623299387919438 0.1265387399564432 -0.39047198332803307
I -0.06585802233399747 -1.7437451394059806 -2.3694262738876435
I -2.283226606698771 -1.291117090868483 0.8814239451121185
O -0.010641240173529928 1.6517665829787616 2.1450839285306484
C -0.16357979956186722 1.0823759372706752 1.1631475548974763
O -2.438771862253558 0.9953825652760219 -2.439547812411554
C -1.6756831977605071 0.7125795794131577 -1.6399674560720772
I 1.401927364204717 1.8354078318344842 -1.5218072876692776
C 1.1736448395167633 -0.6893658392974255 0.897264740736897
H 1.549450843153559 -1.5463882958190367 0.3203041367064296
H 0.8373240672175254 -1.0866770261129226 1.8601957015292467
H 2.0377435534816204 -0.04675784522572418 1.0938008058557833
