12
## STRUCTURE-ID: 64566b034679670e0c4609e8 ; CHARGE = 0; SPIN = 1
O -0.8119350393671116 0.9592607247557215 1.183041878617154
C -1.9096369858350684 0.10636974337546687 1.4106563381860227
H -2.415064791599813 0.46985149067698434 2.304898331249965
H -1.5873681918985478 -0.9260913340675592 1.5767178184750832
H -2.612757988225532 0.1300397815618594 0.571592939558635
H -0.31404155795660055 0.61212165997615 0.4225558869380614
O 0.5454717897303892 -0.2760980009508779 -1.035378393002285
C 1.9542644029171434 -0.20220565626533124 -1.1239797495193502
H 2.367769116507493 -1.0940575124880074 -1.6025795322064629
H 2.3306900609571657 -0.13976704896731693 -0.10480629034200228
H 2.2723934539596033 0.6868093058869785 -1.6754852312449462
H 0.1802157308108751 -0.32623315349406745 -1.9272339967098684
