18
## STRUCTURE-ID: 6456730250f32824f332bad4 ; CHARGE = -1; SPIN = 1
I -1.9193340060999917 0.53488428968819 -0.7339870236744553
C -2.9879111572025434 -0.3589677292316879 0.9064633124008106
H -2.280227511670381 -0.47166457110231697 1.7191100216446418
H -3.3635236424222565 -1.3172749369227879 0.5719627435507918
H -3.791877552188098 0.312211408854806 1.1793896262502939
O 1.9491813202310482 -0.6860018340569215 2.1914922150535676
C 0.9866694078225376 -1.0112437625866373 -3.2533131042002816
H 1.119337613238265 -1.9630250664208055 -3.752152156437832
H 1.5715249079879576 -0.2258591058303862 -3.7195294793657716
H -0.059782160739558804 -0.7259165527450094 -3.2013180545745734
H 1.8246763901108587 -1.2024909917376434 3.0124995384833397
Rh 0.9265911516306126 0.9697876676023741 0.16054842577952977
I 1.706349255033458 -1.2334804839199311 -1.2017452237236115
I 1.3887003402808984 2.5937978777020936 -1.9458398563631594
O 1.2556851536072697 2.9656971432545554 2.357663990093823
C 1.1234783708548253 2.253018077997451 1.4408502081059247
O -0.22416312572794878 -0.3189798320257807 2.4804937321228206
C 0.7746252452530354 -0.11449159851958435 1.7874110848541056
