15
## STRUCTURE-ID: 6456b6ff4dddfb55fa1aaa04 ; CHARGE = -1; SPIN = 1
C -1.5119231328142275 0.4861107964299445 0.8262488486621359
O -1.8240990710811802 1.5097377262065106 1.3524748202177033
I -0.24621630116548662 0.874345527553568 -1.1744801338655593
C -0.4201276840320763 2.8831800120836055 -1.1015241936075697
H -0.560226264830656 3.3169961795531764 -0.12378628361056658
H 0.04487737243569702 3.4421846290871803 -1.8944111124625553
O -0.2080384160380925 -2.011075565863194 -1.4472077314282132
H -0.3815783939452133 -2.883614941751694 -1.8599341864610388
Rh 0.9864534018942093 -0.47555082866513354 0.6647132912390126
I 1.8154329546860364 1.0127032162079797 2.702752425221904
I 3.235430575209993 -0.4805719694585778 -0.7643625797591823
O 0.8688469365952022 -3.1135225282274557 0.19071843759168197
C 0.5069148381109148 -2.0779192017845656 -0.33013098796948215
O -1.4100233946434437 -1.7453042546276454 1.6963108878753215
C -0.8957234203816502 -0.7376987967436356 1.2626184983564537
