21
## STRUCTURE-ID: 64568dc42c4a3861117ffa74 ; CHARGE = -1; SPIN = 1
H -3.392487412723653 1.267354446867614 -2.0502836032997265
I -1.7531081276736085 0.923965850809533 -1.5299196146894498
O -0.31475851483778905 2.059728652757182 0.9740040386237305
C -2.616522229308064 -1.0570203538950025 -1.8114532388739781
H -2.6322153627195646 -1.2520427640371217 -2.87877842598455
H -3.6074925186549938 -1.0266559812299028 -1.3724724479217525
H -1.988326809923836 -1.7838035894082993 -1.3035867626111812
H -0.26458645765956 2.7805330484686275 1.6327768764644952
O 2.6291079530727677 -0.988695692929914 0.5050273790052908
C 0.6156308898163994 -1.3721128636257462 2.809496663484158
H 0.3341978238229256 -2.245491631167392 3.381921745665077
H 0.37466459116585027 -0.4536290903675709 3.3307790357585745
H 1.663642216849297 -1.3930244347736445 2.5313104829703272
H 3.298696524865958 -0.36608197590233116 0.8007762650681399
Rh 0.8686463712253287 0.20752808821581453 -0.8025829053266079
I 0.8333040281702823 -1.595208145735647 -2.776858972487106
I -0.4372365216548339 -1.3935823061981025 0.978076036850563
O 1.9032232188096332 2.067351964515055 1.1523138281431007
C 0.9107308696134699 1.5989318520659848 0.5941112014308247
O 2.0529340634326467 2.4615502744175726 -2.339226349491651
C 1.5219554043113346 1.5604046511532903 -1.8254312327782976
