12
## STRUCTURE-ID: 645667097d378c37d2630f1b ; CHARGE = 0; SPIN = 1
O -0.936814825817328 0.2260136732995617 -2.5579184758897098
C -0.8131033054033453 -0.2623822643129532 1.14311998905345
H -0.41423922155303217 -0.7649983557340315 2.0306453903278645
H -1.7124053534088515 -0.773226989183793 0.8070814512040645
H -1.0526200195437982 0.7756990061900061 1.398126824194482
H -0.9231640432037153 -0.6374062807058392 -2.978499802763926
O 0.11036475487389288 -0.32017537160050613 0.07713504306507153
C 1.3409093455241272 0.2989070228486263 0.3847985443470519
H 1.8153808879208435 -0.18494193818949772 1.245119274774169
H 1.2001814248419287 1.3626100690502634 0.6057492628095201
H 1.9745492645541927 0.18893960714382796 -0.4919486362098862
H -0.5890389087849134 0.0909618211943355 -1.663408864912156
