13
## STRUCTURE-ID: 6456892cccd56b6b194085f4 ; CHARGE = -1; SPIN = 1
I -2.0090560718175654 0.7045890108551256 -2.277451776322394
O 1.165086713828188 1.3558930369139652 1.7577574372136184
C 2.281440398026486 0.9272294261085667 -1.2391571143045432
H 2.5999703767334794 1.7333377268126873 -1.8714083077641754
H 2.586808251003277 -0.07853765303235165 -1.4632317384504379
H 1.8963245009142409 1.9683925185705342 1.8619112010911503
Rh -1.0364845077658085 -0.8104368851382512 0.048749528927618455
I 0.5554057256174377 -2.4493969858894498 -1.3037006811101182
I 0.5641050701705507 1.206174885435009 -0.2992590176100096
O -2.014688238745771 0.7518613474390674 2.4099008358299083
C -1.6834590773767124 0.13104037306961772 1.4993329874211931
O -2.781687016488382 -3.1844003060874235 0.5182382693165012
C -2.1237661240994097 -2.2557464950570965 0.35831837576168013
