19
## STRUCTURE-ID: 64567a2fa2c4063187324926 ; CHARGE = 0; SPIN = 1
H -4.280075288347465 2.020630894537882 1.2928032146917472
I -4.569583941881415 0.9981920200356289 0.11693142711335086
C -2.103733021910987 0.9517172075923722 -0.36442009249791646
H -2.0496837523294174 2.0336957702072302 -0.36601015963960365
H -1.8822346047304903 0.3881357195190321 0.5357713043275033
H -2.1897051523782807 0.4296528853615175 -1.3092808548078465
O 2.476221631403109 -2.198626671164407 2.6934604578292323
C 1.621483410783357 -2.4184268237969264 0.11180120881480354
H 1.8911328569846824 -3.2035241301040216 0.8010997830742761
H 2.42788965429812 -2.2497347814180024 -0.5924001614487399
H 0.6961186452765487 -2.6480318744188 -0.40230150501341105
H 2.6192906980358526 -1.8318661110347207 3.5640241783111115
Rh 0.4586810774346761 1.058998453705214 -0.49788960080801364
I 0.3263197996024718 2.5052817676875976 1.6563328160967052
I 1.3660161687286312 -0.6788245452942244 1.2817598330096431
O 0.9888738573006113 -0.9161090073005995 -2.6768788055854853
C 0.7199120480626829 -0.17519553346078423 -1.844931631211399
O 0.9700505612485351 3.3700954168027493 -2.331752512975655
C 0.5130253524188348 2.5639393425433172 -1.6681188992803835
