12
## STRUCTURE-ID: 6456684e2162b01198462279 ; CHARGE = 0; SPIN = 1
O -1.6733426667053315 -0.12685380278698238 0.06981916118150783
C -0.6699263164782984 -0.965617064027834 -0.018346040915552368
H -0.5572950242779097 2.4584888656823796 2.3908489834327415
H -0.5106819520337031 -1.5223608837086098 0.8962023888809854
H -1.2214369059005243 2.1060366895419937 2.588517051608234
H -1.7975332212940067 0.3950355875228281 -0.7431076786214564
O 1.284423523477447 0.13973676710374291 -0.5410138021049098
C 0.23070822145404807 -1.0390637168576295 -1.0836624410852518
H 0.847793054547804 -1.9216636555509925 -1.1661183047357362
H -0.06132615160765561 -0.6075675110560825 -2.0327972075863916
H 1.7170272197759104 -0.24035978288658386 0.23374513374442285
H 2.4115902190422216 1.324188507023769 -0.5940872437985915
