12
## STRUCTURE-ID: 645665b68750fb002d7c7c40 ; CHARGE = 0; SPIN = 1
O -0.4456829741373756 0.16420211216935227 -0.46327519881217444
C -1.8017488107258257 0.22335731032339284 0.039188805909724005
H -1.8170703982932124 0.4123127957952651 1.1129940602293524
H -2.2634759810013954 -0.7401775494914713 -0.17040803933177395
H -2.326894639003673 1.010626993548098 -0.4972822625974457
H 0.029535583524817267 1.0103326554938652 -0.3202219993176246
O 2.02107997265793 0.3618615647959496 -0.0958733561211819
C 0.44399779289671865 -0.8234546174315841 0.13466470765824132
H 2.615741858815379 -0.3412615435792848 -0.3584688194207794
H 0.2801370748350335 -0.9111165800141161 1.2047117751465892
H 0.30587473816420396 -1.7679937604398617 -0.38396717335365865
H 2.9585057822674035 1.401310618830403 -0.20206249998928388
