21
## STRUCTURE-ID: 64568d4f3cc63d47fa6f2ca0 ; CHARGE = -1; SPIN = 1
H -3.032871035155836 -0.28514496308989656 0.4111811864885552
I -1.3498565548725814 -1.2343023949031762 -2.3333381658367225
O -2.1861176787373733 -0.25136138490404597 0.877156808157176
C -1.653639903706235 2.3297644119857637 -1.053104237839779
H -1.9409708539725552 2.0021411857437212 -2.0552026279304965
H -2.528647931627646 2.3091083602965536 -0.40075202130631193
H -1.2876474758193999 3.3544195369212972 -1.1035311420046274
H -2.388012401531731 0.016796179357876872 1.784642825223604
O 2.7233008321359407 -1.8069941777902006 2.848249869953697
C 1.4173918212060874 -2.381669019421809 0.5377217520366199
H 0.44861602967653147 -2.6434064882333694 0.12616803603473334
H 1.722125058877354 -3.081179619792648 1.300514208485019
H 2.167202803062079 -2.330271287647543 -0.24309191459735416
H 2.9915479566571768 -1.312186925364097 3.621838348254514
Rh -0.2537727964704986 0.9809939077651427 -0.1803854997159047
I -0.2747290272268038 2.4106779904298756 2.017454792160212
I 1.2724256901478255 -0.5014303660760746 1.4854257686063774
O 1.5521864552210078 -0.8050159905045294 -1.9083651718421846
C 0.5506411477700114 -0.2260563367558149 -1.5664269336077619
O 1.344996506868861 1.9964658060796592 -2.494413756978369
C 0.7058313574975965 1.4586515759032632 -1.6717421237412609
