10
## STRUCTURE-ID: 645688d753ad2b4a8c1f8bcd ; CHARGE = -1; SPIN = 1
C 0.09572618948116525 1.1625960474380894 1.6551845599797634
H 0.530467339098619 1.8049253954168016 2.399499536175363
H -0.9500193525880315 0.9204766703455687 1.7497816451205148
Rh 0.24363011858579262 -0.5340652960563358 -0.8791246444372371
I -0.3128552694663792 1.5514582823929313 -2.371872797032084
I 0.9012880763397488 -2.664060994330428 0.5054122630682137
O 1.811442942101587 0.5173702124537871 -0.006207189558322423
C 0.8274854053051854 0.7036530736869323 0.6807458913230796
O -2.0150512077216427 -2.0173114465992983 -2.1014777505345257
C -1.132114241136042 -1.4450419447480474 -1.6319415141047597
