16
## STRUCTURE-ID: 64568e169c49ad287e12b087 ; CHARGE = -1; SPIN = 3
H -1.6973210072514293 2.540531646897446 -1.1386503265323988
I -0.9265735155021303 1.6849306176086947 0.0852429974763735
O 0.026999972277266734 -1.8682169850019574 0.4244234538236397
C -2.2748658507490425 0.11689788901542911 -0.5060226554100236
H -2.1164784735097197 -0.6972941417744324 0.19125998531080282
H -2.0111019957540486 -0.17664106268035917 -1.5198344519902869
H -3.278496721692745 0.5262186855618486 -0.43430317291814147
H 0.22578787490539431 -2.7226942110538213 0.001573251264019629
O -0.2563789843465941 0.3066809736917645 1.8750580242402466
Rh 1.83514038079838 0.51472655193581 -0.3292477990395991
I 1.0234790689645203 -0.5195885885908409 -2.5618127074010695
I 3.0835487958662484 2.6842026712258913 -1.0560605685224296
O 1.972580184391667 0.6450822895440029 1.9206234890030838
C 0.9408726840462659 0.008943811858445158 1.5638797264889919
O 2.278840417259972 -1.8157717625680314 0.7247693647000686
C 1.1739671702960421 -1.2280083856698734 0.7591013895067046
