12
## STRUCTURE-ID: 64566959a6d8360afe67100b ; CHARGE = 0; SPIN = 1
O -0.097062483200846 -0.27536565459538137 0.13391489665564718
C -1.06513721346161 0.5727668377528006 0.7135219077059696
H -1.931075891217963 0.5555477655304497 0.055929626990427306
H -0.6878604372533651 1.5977839077276805 0.7979228186072951
H -1.3506063625218583 0.21447988810238272 1.7083843762560518
H 0.054402986164292524 -0.11309761043515489 -1.7816104635962957
O 0.07006032737095295 -0.10297651505420664 -2.7503248405639145
C 1.0884923193944331 -0.3528101892625039 0.8957437288929664
H 1.56330106037899 0.6306800744594336 0.982712579000299
H 1.7540284046915025 -1.0350738273342213 0.3722620378611314
H 0.8813156770683954 -0.7389220925829927 1.899515824065849
H -0.2798583874129164 -0.9530125843082874 -3.0279724918754294
