19
## STRUCTURE-ID: 64568edb66283b7d5a6f2c9d ; CHARGE = 0; SPIN = 1
H -2.357065887735186 -3.0228283009278476 0.5077917852083735
I -2.159857585374995 -2.0075707684535558 1.7073743740760197
C -2.1772769921261066 1.4718501400199941 0.6436331408944163
H -2.8421988766700097 1.333865931029277 1.4972499653707636
H -2.69639901423301 1.0794177216457506 -0.24019608305849302
H -2.007746972098899 2.5332994636527415 0.4683679429418729
O 1.757754212826381 1.1268986873814095 -0.8942965693039926
C 2.496961282140049 -2.25333004299825 -0.9254359885701773
H 2.5480680192300906 -1.437794936275036 -1.6370949345119157
H 1.7871653564302368 -3.0075756735090247 -1.2465497212515613
H 3.474331141794621 -2.679255504483354 -0.7323218363723031
H 2.2693072364400986 1.794461287770157 -1.3962406343383607
Rh -0.4813684147265817 0.1155135761122181 0.37576248258812567
I 1.7820549268890484 -1.421123977146315 0.9441994324733746
I -0.8903974491301211 -0.9895426822354652 -2.021522242011173
O -0.4938695998725418 1.989474031581302 2.7019048191685093
C -0.5974659015729403 1.2754550460116973 1.801262204447342
O 0.06573370192902751 2.5843004878743754 -0.9334455218710239
C 0.522270815860855 1.5144855129499504 -0.6204426158797909
