12
## STRUCTURE-ID: 6456650572b943160a4609e8 ; CHARGE = 0; SPIN = 1
O -2.7873359737378696 -0.832650163476016 -0.14764160255262873
C -1.90666813604637 -0.5160847482706418 0.9118179800954864
H -2.2397822644981717 0.37893876480570304 1.4477327824412847
H -0.8858370766112673 -0.366033943325554 0.551622824093549
H -1.9250961663252468 -1.3630826146716088 1.5956354385552214
H -2.729748288883833 -0.13407022468046684 -0.8099292789535791
O 1.1688248666432695 -0.1118074784796947 -0.6544433933535186
C 2.257157162981938 0.7667740395635788 -0.46806905692239886
H 2.6069775994831113 1.1770685033957047 -1.4200567265377289
H 3.089276739971344 0.27059398107924837 0.040070490743159055
H 1.8971244325017338 1.5817882736365645 0.15736671534934638
H 1.4551071045213773 -0.8514343895768132 -1.2041061729582083
