18
## STRUCTURE-ID: 64566f29a1fcfb555b32baeb ; CHARGE = -1; SPIN = 1
I -4.01960912520841 3.3096636918129207 2.204463162741925
C -2.4751319252365143 1.9625285223605387 1.592958628485802
H -2.6227407552992545 1.0239971151537546 2.1108868043900593
H -1.5218051552379266 2.401099659685022 1.8564963340568226
H -2.5517016834425728 1.8264672474914765 0.522097275671938
O 0.7182158584625092 1.584423679338157 -2.464949519943084
C 0.4538435093853789 -0.08398256124068644 0.8108924838648714
H 0.7741046053326626 0.3630003443985851 1.7519472985032623
H 0.12759612074715396 0.71295782245368 0.13941792715120768
H -0.37689354232549455 -0.7698814039446896 0.9740308415168614
H 0.9103059592588947 2.1453713581757987 -3.2191132237960085
Rh 1.2682277519818206 -2.1175568938869023 -1.2465444191143553
I 1.0008914047358024 -3.398313720329406 -3.59033529742312
I 0.8386828637798102 -0.3750869601189385 -3.038255860237771
O 2.7733359540027993 -0.399416846050056 0.35248611536880387
C 1.6284931744510391 -0.7828011344299467 0.13389688263861288
O 1.6104434497114282 -4.053012029903783 1.009728295212606
C 1.463741534900882 -3.3494578909655224 0.0998962709115587
