12
## STRUCTURE-ID: 64566bc216e57c6eed2a1578 ; CHARGE = 0; SPIN = 1
O -1.0461045409549041 -0.8203137292889766 1.312250062853278
C -1.975058353243478 -0.020448662081552407 0.619847275631661
H -1.859035808153032 1.0386663504330458 0.8722476716314435
H -2.9684582017627306 -0.34951506176317465 0.9231706147811592
H -1.8779141595602549 -0.14205872429783714 -0.46442630989995654
H -0.15060847573434127 -0.5248728749307887 1.0654981885127077
O 1.4901254908258577 0.0813724211881964 0.35021697871526775
C 1.5313305737204777 0.24310685147904063 -1.0538248775647683
H 0.6448672029337837 0.8109887006659712 -1.3307058094370225
H 1.5112845131902268 -0.7229980105839335 -1.5659859120040929
H 2.4193340770037794 0.8002427468650662 -1.3624635603975825
H 2.2802376817346 -0.3941700076850427 0.6341756771779438
