20
## STRUCTURE-ID: 6456b661f5fe6b52552b66a4 ; CHARGE = -1; SPIN = 1
C -2.1648439776103916 -0.8510449786664304 -1.597519739580752
O -2.3279876796544023 -1.5621223182275772 -2.500317060924292
I 2.8645470836202476 -0.6527762849119786 -0.7110731837057636
C 0.9917438052234858 2.18073595473211 1.3779069649167446
H 0.5345255856817912 3.0008765734858422 0.8358324510426494
H 1.0676461808036797 2.43723729023942 2.427873182402739
H 1.962185733122544 1.9426917274493725 0.9563680339673907
O 0.9887902439806477 -0.39961926342705767 2.3964777270139797
C -1.1273564460842158 -1.5932547954670684 1.5158754354778385
H -1.1944349434684516 -1.7812151946526475 2.5785797955707372
H -0.440658268587859 -2.2976557597196843 1.0587132840865348
H -2.1011856127068844 -1.663526013346946 1.0448520113814386
H 1.639211396008278 0.22885255204598529 2.718980364299263
Rh -0.4486602598699617 0.38021686086576495 -1.4640214646696321
I -1.6556985031440503 2.719931436458492 -1.3572381871226156
I -0.4020118568985152 0.4408706975028688 1.1771054091916882
O 0.5419824018448611 -2.3659085237241557 -1.5650026503714678
C 0.6485382285772622 -1.2057079800864468 -1.3802417777820575
O 0.510307949285516 0.5175051281712949 -4.297983539141655
C 0.11335893987640468 0.5239128912788327 -3.2151670560527763
