18
## STRUCTURE-ID: 64568a76d9ede740d34b65ea ; CHARGE = -1; SPIN = 1
I -1.542579250570818 2.6825849255792753 -1.2095129456616351
C -1.3722060183987717 -0.5788597818223864 -0.16702899049283748
H -2.1086650806398066 -0.2341959249786958 0.5673754543866327
H -1.8701865362941463 -0.6806479604976542 -1.1368669681100274
H -0.9822318316398347 -1.5528059763643 0.13786476723835867
O 0.6788816635763033 -1.7789428412931305 -2.5642750842995516
C 0.6120165392923392 0.5943168614112896 3.8692771577466907
H 1.3971621745972216 -0.00931036233221966 3.425449762323213
H -0.21966535445111363 -0.021528059762898347 4.190014527556907
H 0.9906445394230762 1.2048525098438851 4.679833638762767
H 0.3049565924388362 -2.502912745933745 -3.1061515036092615
Rh 0.1293115334988296 0.8518272564473194 -0.27419886127071946
I 2.046373725774094 -0.7719029828910676 0.48632177285166933
I -0.13433134996103396 1.9432933909085255 2.32823873762186
O -0.561559957906918 -0.39963394940929625 -3.81467651813497
C 0.2316757289635542 -0.5862935249955102 -2.9163767619307768
O 1.6277991211458414 1.3112698481434544 -2.4385094335351027
C 0.7726037611523282 0.5288893179472184 -2.0567787514432596
