12
## STRUCTURE-ID: 6456672ced334248c87ccc1b ; CHARGE = 0; SPIN = 1
O -0.074618677113604 0.2995502225698932 0.03945420630069171
C -1.3445512318733235 -0.2374152147421013 0.34143178319652323
H -1.8646008899097337 0.3840717584550415 1.07822185943611
H -1.2558848946374448 -1.2567335961195927 0.7329786844091042
H -1.9080142803386286 -0.25154133649886523 -0.5885456383572616
H 0.6800235013563575 -0.3071157923169194 -1.6238748094565216
O 1.0270244798190284 -0.5274351036040869 -2.5012152619340733
C 0.7675692959910327 0.38248300057244927 1.1689313225926767
H 0.32590027028954865 1.026475463794435 1.9370043063168594
H 1.7073959083897527 0.8108629999559138 0.8285939627931271
H 0.9487370402474307 -0.6099049851359143 1.5962979102688102
H 0.9910194777795945 0.2867025830697502 -3.0092783255660502
