8
## STRUCTURE-ID: 645663ca60eabc5f59399e48 ; CHARGE = 0; SPIN = 1
H -1.7126314216596576 0.32781109579013107 -0.17440806532805916
I -3.236173886177613 0.2772421995470368 0.2715145087091409
O 0.0448075271688249 0.27988307589073336 -0.6654446545465196
C 0.9772560299014493 -0.12530950977489275 0.3196730341170292
H 1.985198658069653 0.20793020349098573 0.06458250183180048
H 0.9716124408433061 -1.2108996319484728 0.447185430671601
H 0.6744608964756789 0.3451882025954454 1.2533403328574486
H 0.29546975537835773 -0.10184563559096034 -1.516443088312447
