21
## STRUCTURE-ID: 645674c8114b4659894efcbe ; CHARGE = -1; SPIN = 1
H -0.2937765578545036 -3.1134834040309767 -0.7141356494659851
I -0.4763190372009764 -2.0958952408707 0.6112156519920968
O -0.07667807925573127 -0.534394745168194 1.9567622096498536
C -2.846906590338549 0.07080491033069672 -1.3702971521958751
H -2.926256691281531 -0.9266568787276268 -0.9431721909553762
H -3.330432047209935 0.07749831209816603 -2.343248475284144
H -3.3683834231314127 0.7689654179370877 -0.7193742367308602
H -0.7812976044933458 -0.5240879375794906 2.605534667032029
O 1.2184332794900876 -1.3354084371027157 -0.043333645938517504
C -1.3883071451388485 0.47299620965091316 -1.5146245164698868
H -0.8533465677004535 -0.2143676941279112 -2.1665984310040485
H -1.2946906946739796 1.4722332318884463 -1.9387741904534657
H -0.8829477880363178 0.4889083490248065 -0.5466097080379765
H 1.6873269058497906 -2.0398668242639197 -0.5073996162013235
Rh 2.4641280588898167 0.8685750864642893 0.6954340065427939
I 4.61612673912997 -0.634024606262832 0.5947428911598011
I 2.5476061175774922 1.5271261421635975 -1.837972252344408
O 0.15898512808089782 2.7058053408327187 1.1285220220961194
C 1.0459612030554148 1.995937972825059 0.9200468996784537
O 2.370154184447272 0.4078589247668607 3.63849128494107
C 2.410620609794563 0.5614758701517544 2.4947904319897916
