12
## STRUCTURE-ID: 645668b880b69522fc56ede0 ; CHARGE = 0; SPIN = 1
O -0.8679202457229874 -0.4857740740705148 -0.35129493700689246
C -1.664896685859579 0.5640899217366935 0.17413797823635632
H -1.5541556744986385 1.4838363232675758 -0.39956426345513957
H -1.356338519876124 0.7316220343283919 1.2043170737656175
H -2.7038314054410106 0.2267382954019169 0.14784396257768856
H -1.0686201584187744 -0.6219418215193047 -1.301427794050299
O 0.7750934137995609 0.04714643805676615 -0.5618218802838547
C 1.466765785844041 -0.6083609461739696 0.44740481107418006
H 0.9060227794229859 -1.5111916125412894 0.7122614808662576
H 1.6124892087867497 0.02801449799145086 1.3248494661035128
H 2.4288431247955438 -0.9499573881290099 0.06302842843671984
H 2.0265483771682407 1.09577833165129 -1.4597343262641531
