21
## STRUCTURE-ID: 6456786d77c11a23e60b5364 ; CHARGE = -1; SPIN = 1
H -2.5590231880957255 -3.392789624279552 0.5445012188401178
I -3.4372473166868662 -4.468003831769847 -0.17750357238209177
O -0.8892130872686964 2.428785270349482 2.158331315263408
C -0.7562119653504878 1.6446221300250032 -1.6167029969545423
H -0.10542960143229657 1.6020150959895987 -2.480079683107001
H -1.161673157906277 2.6414740902624594 -1.5060174641490263
H -0.1706067956240958 1.4073487238302695 -0.7079878743609332
H -1.3618926501165611 2.8708775485439313 2.8911441173367507
O 2.3358446075842685 -0.5430861156742964 -0.09084764560459169
C 0.15499105103041882 -3.3662750460058484 -2.2865286791177457
H -0.15761288020297604 -2.9837955574994885 -3.2409136447191265
H -1.5613378053099083 0.9287243524977109 -1.7213357585555773
H -0.524543905512264 -3.974743141624369 -1.7174033139196183
H 3.0247103252642042 -0.10940761656545503 -0.5987119541446154
Rh 1.032966442462711 0.6489534879382797 1.2204312930023822
I -0.6331529236979891 -1.2770232757937081 1.3060721952425862
I 1.7046398523728652 -2.494979831309943 -1.344247414975659
O 2.6146179076111205 3.149943582221174 1.5739361978901174
C 2.069423419225216 2.1446611340500805 1.3458598650537192
O 0.28898235361640096 1.535242978466752 3.8293909302934472
C 0.09176931803695998 1.6074556463477725 2.618612869068002
