33
## STRUCTURE-ID: 6456bb9f50cc8b42466cd4b3 ; CHARGE = -3; SPIN = 1
Rh -1.8366315582208586 1.856591033575711 -0.8391293675703846
I -2.7969093634042737 3.4560813966001813 -2.663949974575202
I -1.806146805569513 3.7066861634803008 1.0256490671991492
O -1.118705483091078 -0.5175895542132641 0.7763713211279335
C -1.1270466627156623 0.5295688504949342 0.24267604397915157
O -2.023055688244946 -0.7795531669706502 -2.171468410814505
C -1.9237460400155946 0.34046745858895144 -1.8525051084990893
I -4.898384729021291 1.1825229589573871 0.05474147253821184
C -5.755095894076724 3.1877050510977507 -0.10038921061588056
H -6.750225103775917 3.141136714851576 0.32232315797446903
H -5.763143142999648 3.4529408237578894 -1.151689758924692
H -5.1062582899545905 3.8549150109137944 0.4569707579183342
O 2.4088877028454054 -3.9211884624807336 2.3469223166536275
C -0.2079168843015924 -3.070832424182157 -0.441931662758403
H -0.04590085607063389 -4.118305814336516 -0.66480607422329
H -1.0914413931465088 -2.7046634043834437 -0.955602432001575
H -0.32283762138787525 -2.9197344024815184 0.6275409322538916
H 3.15692247814496 -4.424126667369474 1.9818168075154055
Rh 1.1429612104491609 0.6339738284320734 -1.32524138932574
I 0.8274082886666582 0.46545507167457273 -3.9540640333884536
I 1.4810895948542355 -1.9448385875438075 -1.0625825094846586
O 0.8081210745830172 1.2936660407570562 1.514570183425311
C 1.5701479874723487 0.8953636442605268 0.6210876667087224
O 1.3025919919058444 3.596278775353676 -1.1062731841495679
C 1.1597350081168722 2.453117742242415 -1.2646838260983575
O 2.88560036492488 0.742468774280974 0.9832585958447329
H 3.0383642005494513 1.0371943250916065 1.903690866905885
Rh 3.5134694429007 -1.8492733764581573 0.5318441858064543
I 4.298066023283682 -0.6524964357023374 -1.743876359877173
O 1.4878105419157173 -1.9169050687302716 2.393043307515095
C 2.3993107749122844 -2.6104715563811127 1.9383829334512623
O 6.029068227805985 -2.267726581734604 2.0974204325711425
C 5.06389060266538 -2.128428161443636 1.4798832529185424
