21
## STRUCTURE-ID: 645676ad3d001a4fd8068a27 ; CHARGE = -1; SPIN = 1
H -3.5141280011482183 -0.04237147383386393 0.8972498585545478
I -1.4918380592456666 2.5590442228167647 -1.8732028541992887
O -2.645439563993871 0.25921375166224636 1.179834330252246
C -0.1776053883873385 -0.6134701800988748 -1.0127685976135212
H -0.7805013554054269 -0.6636552350395223 -1.9202448538018702
H 0.17326381816743247 -1.6163580344326784 -0.7530110717763074
H -0.780183623176528 -0.20501071493170125 -0.1953786234021627
H -2.5842268081453956 1.183868203312577 0.9250415997734548
O 0.888420888665749 1.9785044210242198 0.13680179430093756
C -0.2108015560572598 -1.4289602440632503 2.737111175504316
H -1.0154302497079515 -0.89556652150099 2.247113190181003
H 0.6272777283721241 -1.5737939474833773 2.06849201249494
H 0.10549946542953549 -0.9172789495259276 3.6357998319214593
H 1.1735725352108273 1.8718170457599672 1.0507044232750369
Rh 1.4611048641588211 0.648043729180488 -1.1992292284932728
I -0.9418169947840239 -3.3543853724653143 3.3002731401477754
I 3.232239478952779 -0.39327762029806085 0.48778665410218247
O 2.7104804976916483 -0.8172182613474617 -3.4723843373431835
C 2.157020284217408 -0.3346687495827109 -2.585310618768049
O 1.0709918546959505 2.4805292813263193 -3.2665985006617513
C 0.5421001844894479 1.874994649521124 -2.3880793244485328
