19
## STRUCTURE-ID: 64567aaed6dc680ff528a813 ; CHARGE = 0; SPIN = 1
H -1.2149072555433469 2.17537218013028 -1.6224595554474106
I -2.0221176239724468 -1.1317264725256049 -1.110231550949139
C -2.604729477783491 0.7165724323505535 2.1633750947434827
H -2.724443190736771 1.7298328438799244 2.525750640775443
H -2.7371118256223914 -0.033521234053387645 2.9341842040660886
H -3.1988853658462584 0.5123229837498436 1.2744538894639588
O 3.2939613745061638 -0.8461279073629681 -1.094834934027212
C -0.3941447823721613 1.016765104805996 2.0649566882753345
H -1.5060345506484234 0.5354552853498609 1.714992076887412
H -0.3356895928250159 2.000247435394731 1.5973509377250243
H -0.3328367667989828 1.0145809259323413 3.1512552408660692
H 4.229925625530608 -0.7973731702126515 -1.3630381024734741
Rh 0.5431428045004493 -0.8402391776560544 -1.681340266834811
I 0.29589933387935574 1.8108650482010187 -2.0566848968850047
I 1.0924247470580795 -0.312226215094453 1.2451967495091116
O 2.9432751719042978 -0.5769043969892207 -3.284231026093032
C 2.4450551292382747 -0.7213066575727655 -2.1666762014069882
O 1.2999943660444553 -3.661043355293587 -2.284301166691079
C 0.9272218794877625 -2.5915456530338155 -2.0077178215039546
