16
## STRUCTURE-ID: 64568d6d9ade657d4676344a ; CHARGE = 0; SPIN = 1
H -2.1790860427408734 1.8555375458813992 -1.6512494425484237
I -1.3152374756142091 1.2613892386171772 -0.3625382418641858
O -0.30138438946831575 0.03986954961325293 1.427306427951257
C -2.788377994998974 -0.3063127351088954 -0.32325730539557057
H -2.461768202392913 -1.023464671652216 0.42107032553974466
H -2.822416697585728 -0.7497005888951186 -1.3141375096861967
H -3.731721844148864 0.1529386855839964 -0.043913857485396265
H -0.2559562608310185 0.5254437029895644 2.252016766956364
H 0.27858624864440706 -2.197678263810339 -2.649979043509007
Rh 1.3561370014897305 0.12880815398639522 -0.028700179366352184
I 0.2617249789995165 -2.352829283154374 -1.0682394483789976
I 2.524394906486987 0.8333477338908795 -2.2383259567043763
O 2.5904243355805745 2.173310472382814 1.7562753356073166
C 2.481965948854119 1.0955522476295863 1.2220093103568617
O 3.5111739162691693 -1.2003784192589533 1.4448551489825527
C 2.851541571456389 -0.23583336869517152 1.1568076695444065
