12
## STRUCTURE-ID: 645669bac3dd0069da33a74e ; CHARGE = 0; SPIN = 1
O -1.0905229921556003 0.3608537954781196 -1.0271061832919828
C -1.9278434792567325 -0.08339412449625919 0.02327847023895817
H -1.5578508843649126 0.38056705459802564 0.9357726646451175
H -1.8835224527502428 -1.1707222314468622 0.1310269448004446
H -2.963288058209973 0.22493590517542125 -0.13706292178500212
H -1.4361060922876256 0.026527411576586623 -1.8639623806997212
O 1.5024820958345033 -0.653729043546684 -0.4485678964037602
C 2.0561948468903153 0.14348268183607157 0.5706303191235188
H 1.407763262618937 0.17503163517168505 1.4525725129220761
H 2.2368876460385336 1.1667215730516103 0.22583906769845227
H 3.0066430806515343 -0.3103291812951286 0.8487792553798146
H 0.6491630269912715 -0.2599454761025876 -0.7111998526279237
