12
## STRUCTURE-ID: 64567b21d3ff68071973b9da ; CHARGE = 0; SPIN = 1
C -1.2801558227211938 -0.4083117542616893 0.4384102942102819
H -1.2449626388211432 -0.7754936526483273 1.4629240385676603
H -1.4556876125361309 -1.2287855475120513 -0.2648036032533618
H -2.042337449399123 0.3660653446982018 0.32434872048226876
O 1.0248438394549757 -1.0030060443731574 -1.4870500722854068
Rh 0.556240958714257 0.43190347992883993 -0.16799643032960837
I -0.3119278440986891 2.0311872682196377 -1.989160976689448
I 0.22930029479561023 -1.5547459701268866 -3.2015333282705174
O 2.1725107624300493 -1.639221780142863 1.2459851180986257
C 1.5190644967767508 -0.8033824465683891 0.856239993966464
O 0.4011046066196224 2.7488389566564337 1.726267536180769
C 0.4320064087850138 1.8349521461302525 1.0563687093222696
