16
## STRUCTURE-ID: 64568e04f66489590b6b0e0a ; CHARGE = -1; SPIN = 1
H -0.7220842811965411 2.6299165053376203 -0.35676571195384155
I -1.3401486071416182 1.1474973668794202 2.1863884013618256
O 0.15461283068500944 -1.8663350035839286 2.591343464190427
C -0.9152692704169784 0.21740479790956901 -1.1938071554911727
H -1.6730986351716615 -1.6082648081171824 0.7672131642808645
H -1.9050084384770476 0.590787503094014 -0.95005645501934
H -0.9006784161973931 -0.5932531986751709 -1.914714401025658
H -0.15052466511706328 -2.7782596118326057 2.5483041537936884
O 1.1512379866154965 0.9010449627943515 -2.0860371207905253
H 1.7409898124969336 1.676936781767254 -2.1465500941367064
Rh -0.28347136343456825 -0.8741942961360722 0.7996834370652829
I 0.8352791328911564 -2.8775488958975974 -0.5801367554569401
O 2.46044494995341 0.03480844293120686 1.52549059704184
C 1.4200418307713072 -0.1779816746725394 1.089009444498474
O 0.04984877501509132 2.4087405124123835 -0.9080541806483425
C 0.07782835872446024 1.1687006157892652 -1.3713107877098787
