13
## STRUCTURE-ID: 64568bf32048d26ace2b66a4 ; CHARGE = -1; SPIN = 1
I -1.0968290099766131 -1.3852851160928363 -2.389431157140109
C -1.5363668037400355 0.5459181913552736 0.4066456939380963
H -2.319233129154129 -0.19329991504310298 0.23593502021666066
H -1.8549499818266055 1.498320349504432 -0.01916613711507826
H -1.4071422791514845 0.6633460445751758 1.4843246745701122
O 0.9623812722678466 -2.22692514559803 2.4684828053220627
Rh 0.2829637665730234 -0.15856425259658255 -0.49051496368768316
I 2.7931439276717787 -0.9301513625485797 -1.489431517871017
I 0.05487046830032865 -2.4395245159972836 0.8512495350372482
O 1.878520556583165 0.6679991342265545 1.8954320139063685
C 1.2492808613682156 0.4273845527931141 0.9798756353897691
O 0.5683905552168301 2.1919702443468196 -2.3337397886347544
C 0.42496979586768613 1.33881179107506 -1.5996618139316554
