12
## STRUCTURE-ID: 64566af4ee55652c63068a1e ; CHARGE = 0; SPIN = 1
O -1.1950086527352262 -0.000897508493527025 -0.9552468219732231
C -1.923380356646035 0.1521705844575028 0.24800897639949454
H -2.985153917095096 -0.05564354526736019 0.09868853765469345
H -1.8019314482127606 1.1587242875130335 0.6577858668628233
H -1.5185398499402418 -0.570947125906853 0.9537580777055753
H -1.5798473913498423 0.573643350463312 -1.6283676039922863
O 1.4965061328454685 0.7030200134408606 -0.374477999880599
C 2.096806312568721 -0.3892785507748919 0.27921607879651356
H 2.1756146424193594 -1.258207038265409 -0.38198724155126745
H 1.539254968260971 -0.6752078095839725 1.1772086636795294
H 3.0978563500592764 -0.07408200121908669 0.5712369266640781
H 0.5978232098254163 0.43670534363638536 -0.6458234603653369
