13
## STRUCTURE-ID: 645688eb55b5be412b6dc160 ; CHARGE = -1; SPIN = 1
I -1.9824552134458622 -0.7842328691574151 -0.20467741312313267
C -1.196321144563679 -2.2714091867816597 -1.3488902756329377
H -0.8366745963742515 -2.0221432225321574 -2.3275931945756487
H -1.0042336666003964 -3.2222774046495495 -0.8909628204357734
O 0.9955499507619884 0.5307556460531921 -1.1947500874248922
H 1.8422280522521721 0.410352280740902 -1.6757594228348824
Rh -0.1392738576581591 0.38191615372945004 1.3758710408096362
I -1.5429713736472606 0.5804505936828728 3.597988275433638
I 1.41705567157018 -1.6520972580479636 2.054559959456161
O 2.1760224460995645 1.7719086186865078 0.25236535156431755
C 1.1231992372438606 1.2592543243455891 -0.09027342989733128
O -0.5621561989358936 3.046757140142065 0.013940965082916371
C -0.289969306702283 1.970765183788154 0.4381810515779314
