14
## STRUCTURE-ID: 64567b0e5ddb0e4a0841e57d ; CHARGE = 0; SPIN = 1
H -2.8719017008011414 1.9243695042779427 0.9693719800209635
I -1.356986194772879 1.5613275128377748 0.4510993149446023
C -2.201240809341143 -0.3744972919874454 -0.019675514352266017
H -2.7771906971019447 -0.2605859901182803 -0.9341782699907926
H -1.360779758933606 -1.0532229877350507 -0.1738859779418581
H -2.806253736613465 -0.6801434088822758 0.8279708147697625
O 1.215152413882667 1.915359163281441 0.3006809692024816
Rh 1.395167586161647 -0.09396606379381968 -0.29786137893052994
I 0.36171501775079945 0.5020150100789047 -2.631206421071419
I 2.9846402402842194 2.401011962230218 -0.4346691146375612
O 2.2318150215076886 -0.61891909773492 2.526987132724715
C 1.9012431941278003 -0.46516022161261045 1.4419204746284187
O 1.707245443036992 -2.9206134756157045 -1.1890368038364953
C 1.5773739808123586 -1.836974615226187 -0.8375172055300267
