12
## STRUCTURE-ID: 64566b42584fa9060b5c0b08 ; CHARGE = 0; SPIN = 1
O -0.20068744312021336 0.33349204734826415 1.8006878604143364
C -1.4701386263269827 -0.24358589987698637 1.600398738584395
H -1.9209725795356043 0.09508534695734527 0.6621229895912643
H -2.098978108018888 0.07573139954662943 2.4308440061923586
H -1.4156286472282782 -1.3370142915578611 1.5959994291873765
H 0.8845193821821554 1.4579309554637891 -1.2015559883717868
O 1.0888962577531598 -0.4707596489347774 -0.6490019882598534
C 1.0916451048301505 0.5001466645338611 -1.6752002252877751
H 0.31557398552356347 0.29507738474524525 -2.4182328112683895
H 2.0644384785582854 0.5521674878414738 -2.1710607140900215
H 0.36747444719638156 0.07446636297751409 1.0560599956526808
H 1.2938577481862505 -1.332737809044506 -1.0310612923445577
