21
## STRUCTURE-ID: 6456783875c8bf4ca9750f04 ; CHARGE = -1; SPIN = 1
H -2.815126929629737 -1.5109848020171135 -0.09048714841642166
I -4.290844796706303 -1.753288490459834 -0.5524001370736645
O -0.0470063853457742 0.44748933526761453 2.531768038722845
C -0.9241068640330213 1.965879638099049 -1.3088420807648418
H -1.6788518554754113 2.683441222799271 -0.9943929274035177
H -1.4011239708725474 1.2257151028512185 -1.948199430484618
H -0.5564981494022879 1.457711959382849 -0.41711914076602
H -0.8435746902152983 0.24741617787179035 3.033108331168005
O 1.1326773828704615 -2.225369125728758 -0.5609263519678122
C 0.21449348992071302 2.6621382893996826 -2.037984252704266
H 0.6864377696436823 3.3949554111904154 -1.3883420437494682
H 0.9759941277637179 1.9440913267068773 -2.3327830823017246
H -0.15482739032677828 3.167230272830723 -2.926908031218714
H 0.7004272372685066 -2.4336557977789264 -1.4205585664059839
Rh 1.1408339135254257 -1.0292867704637543 1.9980785419897293
I -0.1861988103138012 -2.7123733002477906 3.536266770289053
I 2.660256505447169 0.7592465691943634 0.7889942241040211
O -0.8268739688634539 -1.39568310058284 0.11789457971567911
C 0.3431300741420017 -1.6299655945885445 0.3029798533875728
O 3.3815787480053934 -2.992008798033781 1.8546123946894366
C 2.489204562597374 -2.272699525692519 1.8152404591907771
