12
## STRUCTURE-ID: 64566853fb661f64da230d81 ; CHARGE = 0; SPIN = 1
O -1.5493669699876285 0.1327289766662257 -0.09966768297773766
C -2.6039909901583185 0.1873882114748453 0.4673586589068188
H -3.4703552542418445 -0.41252630425003906 0.15376928648067018
H -2.7696242386993366 0.8411236120224788 1.3356202570288203
H 1.9424351966832305 -1.7237651947514578 -0.9217566372332662
H -0.48912463965231934 1.7390314969859184 -1.766057644170857
O 2.5030375960384372 -1.0828669121255945 -0.46870435162955226
C 1.8111096014140253 -0.6013934563546194 0.6639872122591844
H 0.840323812866428 -0.17876235658845177 0.39222058681908606
H 2.431408099660752 0.1804831846927293 1.0988975175771931
H 1.6653255421000541 -1.3937850586014207 1.4057484351830465
H -0.3111777560234784 2.3123438008293813 -2.2614156382434083
