18
## STRUCTURE-ID: 64566fbb7209341e5164e47d ; CHARGE = -1; SPIN = 1
I -2.117830966618791 1.8411331384403802 -2.558233948763678
C -1.608067722874698 -1.4314506184861062 0.3891795044251057
H -2.271465000506702 -1.984458789217718 1.0739678295476587
H -1.1147546512673552 -2.2087000374299994 -0.21724028701767878
H -2.283926393131893 -0.8954742948543497 -0.29632048312055825
O 1.8978134482704958 1.41388825427914 0.08587968783923325
C 0.590390266566168 -0.01994579511381879 -2.0915866886406826
H 0.7430160242598087 0.3258562452372517 -3.1094217324103095
H -0.22291526846597842 -0.7359108866908184 -2.038980099869249
H 1.4950018184104983 -0.4361449224905847 -1.665731019296382
H 2.4960260441760322 2.1183879859376407 -0.16565415142466808
Rh -0.410627117600065 -0.08176856487795807 1.5050323534994356
I -2.568136843850192 1.2213795010591326 2.2433889732191648
I 0.10797124475166742 1.6548130774156629 -0.848169954978602
O 1.9112094389269243 -1.811538871282295 0.8013533224954108
C 0.9829617268875196 -1.1734407984760917 1.0751022983262764
O 1.6271082713731249 1.296628991736066 3.23025711434682
C 0.7462256806934008 0.9067463848144708 2.5871772818227163
