13
## STRUCTURE-ID: 64566e1cc216962a1e112990 ; CHARGE = 0; SPIN = 1
I -1.5796425370013933 1.2755222355898486 1.3191235829638637
C -2.117955158618496 -0.6243913619330383 -0.355110802260696
H -2.760998728762157 0.04049514138278587 -0.9165864297685226
H -2.649077246589899 -1.178973274097287 0.4053375797920641
H -1.5538892212142748 -1.2861097354491053 -1.0236427138123898
H 2.265180925127814 3.312355335218774 0.6231594724536962
Rh 0.267768002954592 -0.0019304582021037937 -0.029998344250382256
I 2.730632590963799 1.97326806501451 1.3104744073023464
I 0.14315037860518334 1.617322990473092 -2.1315438748585707
O 2.3254249181312576 -1.3085723274337335 -1.784633590455406
C 1.5415947759962463 -0.8496754638847686 -1.0971787997231304
O 0.8148869311408897 -1.818410550733629 2.2858671202473237
C 0.5729243692664675 -1.1509005959453278 1.3947323923698145
