21
## STRUCTURE-ID: 6456774453adf943744dd53e ; CHARGE = -1; SPIN = 1
H -5.166687196783286 2.2172793351952906 -0.713096540037927
I -3.8305957755030096 2.013899429481528 0.11681644977525646
O -1.3980042151658474 -0.5379690337475299 1.366347730496009
C -1.128635871214442 -0.21189269671645297 -2.229169784523392
H -1.6190147698381008 0.37245425038143687 -2.9958000072385906
H -1.8102377993736558 -0.9614649537261856 -1.8518420224002892
H -0.8425707837212858 0.4469652078737437 -1.4148018690221473
H -0.930053874325603 -1.3918426409146913 1.328668671573264
O 3.471949269222062 1.2131563245186598 1.7938866376195957
C 1.4445376756472985 -2.6084457450654344 -1.0131293725197277
H 0.43718675095033416 -2.8964272959896635 -1.2440587881540675
H 2.159138724681928 -2.4293924807855074 -1.792778215296602
H -0.24369799553363736 -0.6826917886150863 -2.6356676658376257
H 3.791123698481395 1.173075254771348 2.6997308389553423
Rh 1.363150072500198 0.6330175784096596 1.5873361159073016
I 1.2094910523334117 -0.08283225303940067 4.089917893438385
I 1.8454432671243313 -1.8744024644874822 0.845566431385525
O 1.5589469691730187 2.0251365881099086 -1.037838538703164
C 1.441989794941314 1.4092310822363974 -0.07312950435822935
O -1.1432790184271953 1.6326018248844134 1.657820619641532
C -0.6101799751692059 0.5405444772250241 1.5152209192995414
