12
## STRUCTURE-ID: 6456681643933d0a874d3030 ; CHARGE = 0; SPIN = 1
O -2.347351113208571 -0.4647128919027002 -1.279590576619727
C -1.6497814589452973 0.7355898360814807 -1.0576497213288634
H -1.4964585964171822 1.29841653669954 -1.9824615366832008
H -0.6516951228254165 0.5423204136142334 -0.5836850945475431
H -2.2497596458074995 1.327280115147655 -0.3682054087906859
H -1.8721721610126816 -0.9905735565884857 -1.9343278537840807
O 1.877459507973446 -0.00997592775913876 0.6171155732171295
C 2.111238547534477 -0.9437959458240791 1.6277063944378458
H 2.161691957338484 0.8598325977791028 0.9469127789778755
H 1.7747606590309564 -1.93106852525942 1.300113025156946
H 1.6197201537506507 -0.6946852124939974 2.5772313762906642
H 0.7223472725886393 0.27137256050581154 0.13684104367363153
