13
## STRUCTURE-ID: 645673a50a76a701c97cab7a ; CHARGE = -1; SPIN = 1
I -1.1869277944635943 -1.372271528007557 -2.3749572933958616
C -1.481609586817924 0.5911353978242375 0.4879195790103751
H -2.3786137076793996 0.27010131421458133 -0.040977443817867755
H -1.4716719196644008 1.6815854749938741 0.5389351273512855
H -1.5181360581903087 0.19595853498464355 1.5049424820205775
O 0.9537979940940358 -2.317497211788882 2.3998640631672488
Rh 0.2605903849236678 -0.16890239045326397 -0.5071594243201326
I 2.736628794345523 -0.9232896354305582 -1.6034196137655365
I 0.04642196118848157 -2.4825499774197466 0.7767793453633771
O 1.9745729714408804 0.5955127761162778 1.8172237350286777
C 1.2962807526460707 0.3779383756033907 0.9312127409171534
O 0.4273953274780604 2.208915941500914 -2.329151204480941
C 0.341270880698897 1.3433629278620973 -1.6012120930783735
