12
## STRUCTURE-ID: 645668a75c81132cc2230d78 ; CHARGE = 0; SPIN = 1
O -1.1702353676159365 0.10486317012096696 -0.8347732648149154
C -1.8046718200590814 0.563910917467121 0.34109562872188304
H -1.951951624947447 -0.24997948184145663 1.0569197627175233
H -2.767825441911559 1.0298261668611655 0.11782689723475262
H -1.1463553993394688 1.3101682870325373 0.7824172692917852
H -1.73699774101101 -0.5456276727795729 -1.2668671776804643
O 1.67648259628231 0.46971059847098845 -0.7164579933888642
C 1.9726126261539454 -0.5762925448793492 0.17917369232193842
H 3.0368959044700157 -0.5127565317071374 0.4026725995274969
H 1.7604496386163564 -1.554222284830771 -0.2647778848609923
H 1.4074108023137795 -0.47730270258130914 1.111413799949782
H 0.7241858270480961 0.4377020786668246 -0.9086433290199296
