12
## STRUCTURE-ID: 64566aeadce4792123630f13 ; CHARGE = 0; SPIN = 1
O -1.3714951078523265 0.9633930641259537 -0.5478271788796102
C -1.116976554580096 -0.2673590663170542 -0.7220709334944209
H -1.849994967304886 -1.0739641632723504 1.0958872548552845
H 1.5006146779143483 1.4521693738061359 2.039954436600107
H -1.8560533810115143 -0.9264274548195088 -1.1680782432905772
H -2.2973946975600454 1.2524186570613989 -0.6721147921305876
O 2.0291973712309956 0.9991080136882957 1.3789897683350538
C 0.2845995019744457 -0.6787348954531085 -0.7699011082434478
H 0.9032256179425949 -0.07138217921268425 -0.10923044532720262
H 0.406001993715671 -1.7357025846784235 -0.5642055167130398
H 0.6050575800349319 -0.4982165384931194 -1.801308582855972
H 2.7632179654958535 0.5846977735644716 1.8399053411444226
