12
## STRUCTURE-ID: 645668f3877c1d77296cdb4b ; CHARGE = 0; SPIN = 1
O -1.6580724891732352 0.6449109879449586 -1.5786054077452205
C -0.4056787178983633 -0.17694170725467992 1.360678952446866
H -0.46141897833222134 0.28085013315046037 2.345203242684962
H -0.4377960962918298 -1.263592754018649 1.4262648820588613
H -1.2332892861545923 0.16583437152978972 0.7384244538665061
H -1.661721116989106 0.8230595676991531 -2.524485668824977
O 0.8069542630504697 0.28004096016325514 0.7252310474797372
C 0.878234361461454 -0.11387831810402922 -0.6670160560560191
H 0.9987967481867754 -1.1888852706301707 -0.7718863349029418
H 1.7021014971356747 0.42323565547094555 -1.1238065668229307
H -0.11079485670493822 0.20401130036492773 -1.144368291136147
H 1.5826846717098833 -0.07864492631596377 1.2143657469513423
