13
## STRUCTURE-ID: 64568c70c3b2c72b426b0e0a ; CHARGE = -1; SPIN = 1
I 0.06318055457440729 0.9891167183141937 -2.8639742457946387
C -1.3401127759511626 0.10083393855262698 0.15697630650572145
H -1.6299967130505426 -0.644464024487667 0.9239549375307254
H -1.8829702506783081 -0.11619696666780721 -0.7616686297477095
H -1.6581550250606978 1.067120375852356 0.5499360580750157
O 1.0913941722281062 0.3598774001390399 1.9983705308662056
Rh 0.7040840850773481 -0.6062572690080232 0.2619012214987145
I 3.0319212402429336 -1.7242530756254362 0.6615194023253743
I 0.08159267412806707 1.7504242676755697 2.9477385535314875
O 0.4882777395054022 2.1469346067981565 -0.2023688045088008
C 0.2581284832321587 1.0620748322224918 -0.61648338836366
O 0.33891696377772634 -2.606979568903634 -1.9184268490726724
C 0.45373885197448344 -1.7782312348618678 -1.1374750928457025
