13
## STRUCTURE-ID: 64568b4e8755684b6a5c0afd ; CHARGE = -1; SPIN = 1
I -2.194740025147018 -1.8013249692594073 0.16019582519168307
O 0.11671926844877682 0.14131261822604796 -2.21890652658741
C -1.313225823593619 0.047706617976936344 0.8062807953028439
H -1.6954298840800612 0.24673386076587525 1.8068724023467853
H -1.729163615322183 0.8079957338606313 0.1272342645634282
H 0.07717758172422297 -0.33843313122924 -3.0718272778533176
Rh 0.7007288442963803 0.7244435549162647 0.2667149842489199
I 0.21193806391497008 2.9848539719686 1.6019113004382162
I 3.056480937012115 1.4361281930575875 -0.5886619535197908
O 1.1634360236214263 -1.6636781435399268 -1.3815901055854611
C 0.7453706094797985 -0.5406843141062404 -1.2480939801375137
O 0.433647145038271 -1.433103336862078 2.2781539783200877
C 0.4270608746069244 -0.6119506557750536 1.4617162932715264
