8
## STRUCTURE-ID: 6456647e88e5695e111688f8 ; CHARGE = 0; SPIN = 1
H -0.7343541088942488 0.48939325570312725 1.2937163126190818
I -1.8606353657801107 0.1241450478935054 0.18973008435270924
O 1.1369769294451817 0.40540580352694533 1.3614939511765372
C -0.2986167165708667 -0.5493677768446553 -1.1370671365853293
H 1.1350406932340236 -0.0695131468684034 0.5114475258181351
H -0.5530837504424736 -1.5977591465233252 -1.3650614503488212
H -0.47641058056460533 -0.008687344279394138 -2.0812244323615006
H 1.651082899573102 1.2063833073922023 1.2269651453291905
