23
## STRUCTURE-ID: 6456b8c5bc92f7433b7ffa7a ; CHARGE = -1; SPIN = 1
C -1.8946863857412646 0.7279767765765159 1.999678023176899
O -2.9899868855849996 0.6280625056433963 2.3820443007023235
H -1.6266713751162019 1.4239406519997688 -1.688452823535774
I -0.7572604268504092 0.198006229871262 -1.0574145245452782
O -1.661118282840272 -1.7555165621503566 1.1227359825816046
C -1.0221052684554597 -0.40418049140304924 -3.283545574242584
H -2.0780299679465615 -0.5567819242352416 -3.459167263845824
H -0.46672190843255235 -1.3249895894834551 -3.3982680426724095
H -0.6085626017026406 0.38887384917866563 -3.892110084450311
H -2.468399564572783 -2.052138506328383 1.5712045176892162
O 1.447900718042047 -0.6333546279836083 2.5131327874081175
C 2.7545237341054807 0.6539994943441096 -1.2613600601454267
H 2.414186387750264 1.1357086584267786 -2.171513788152186
H 2.2619012807497683 -0.30401190785393567 -1.1145666969699932
H 3.8336222488779854 0.560295030470787 -1.2337556948505077
H 2.298616881614557 -0.918838791780879 2.1438312803332735
Rh -0.23120230824987192 1.1875516646478417 1.4081939859412145
I -0.8186281529055944 3.8005787279355063 1.8048519677196164
I 2.1541160073035783 1.9193924441533452 0.4055248566523335
O 0.8687845377893327 -1.3192631676696565 0.3752277403419194
C 0.46958131100712375 -0.8252408978236234 1.4916269225192804
O -1.0693234222254822 -1.3340596329338712 3.281617877529887
C -0.81053655661604 -1.196009933601899 2.0604843108145845
