12
## STRUCTURE-ID: 645669fe75d91e7475351d70 ; CHARGE = 0; SPIN = 1
O -1.1145839899997485 -0.40254231126216505 -1.4172453172507933
C -1.242367960373266 0.10725269459157573 0.5050701716637238
H -1.3009835436726958 1.1748156709034183 0.6192783143633848
H -0.6388258833291793 -0.3989079322582547 1.2390803230641854
H -2.1932197546361425 -0.386050989736797 0.3547706303134607
H -1.6080233266574082 0.2895294053326725 -1.872395370149304
O 0.6645546836828671 0.5993114909286109 -0.24340248325285924
C 1.6720254329556015 -0.09455163373533751 0.37461166475569113
H 1.6014362418209749 -1.1824203594688532 0.20888879994741397
H 1.6812809800162383 0.08968203202886683 1.4618285398293414
H 2.6432385513968 0.23962151197933068 -0.01968446462499668
H -0.16453143120402974 -0.03573957930308425 -1.2108008086592357
