12
## STRUCTURE-ID: 6456672de4796142a132dfd8 ; CHARGE = 0; SPIN = 1
O -1.383782686246601 0.5430411719106519 -1.1404342869948112
C -2.0683133795535675 0.02511863893631049 -0.02460547839762735
H -1.66830032508133 0.42812811212303636 0.9120009734911774
H -2.015801387353596 -1.067954053821994 0.005776747131511814
H -3.1105402099230086 0.32727079222213035 -0.12094854606586355
H -0.4545437774085571 0.2551227631032468 -1.0831722888896438
O 1.3202243945696386 -0.28830066027850804 -0.7174371435348695
C 1.7704258243978515 -0.09473750977171815 0.6088010002389455
H 1.8956138744225066 0.9678202448893568 0.8348216258877695
H 2.7124905792243053 -0.6181811843998506 0.7883342830929546
H 1.0067358187545996 -0.5098752302958783 1.2638200242740185
H 1.9957912741977666 0.03254691538322031 -1.3269569102335679
