18
## STRUCTURE-ID: 645689af8441c94b3e12b08a ; CHARGE = -1; SPIN = 1
I 0.03985489637536937 2.0431636294616062 2.7786905439567615
C -2.0275818560829335 0.8927693916233087 0.3932030077880759
H -2.437140533803599 0.25831052438677143 -0.3986012543251391
H -2.3998247251495366 1.9172361316901176 0.2519240251484347
H -2.3936466512645023 0.52128293866858 1.3523805394558048
O -0.5305489501556995 -1.1024836546842791 -2.3644486936633773
C 1.5471192374576035 -1.7827925495672625 2.341045678530156
H 1.6285518015720846 -2.8444261273589033 2.5461620157338123
H 1.0688978041779102 -1.2519072889892764 3.1577435050196385
H 2.512100068185658 -1.3444026179129276 2.1048863197449648
H -0.3866924689124258 -1.8055759261957622 -3.0322890181627233
Rh 0.056730488036111436 1.0380188037039717 0.27520714811104635
I 2.759268479101915 1.3752781213617442 -0.09792155159578868
I 0.2897224841287282 -1.5597551911804877 0.5794573453986952
O 0.7014456077429676 0.22301706933679372 -3.6835657116710188
C 0.05950246409536985 0.036694776181601683 -2.6767405530442288
O -0.37129714920491125 2.273735850116479 -1.9012741556728139
C -0.11646099630002796 1.1118361193579371 -1.625859190752288
