13
## STRUCTURE-ID: 64568bf09b1d77120540f1e4 ; CHARGE = -1; SPIN = 1
I -1.5855050354694495 -1.081634389577587 -0.8725589017572585
C -3.146976765608408 -0.47430788866702966 0.5463927582186405
H -3.3703862591688054 0.570015080365852 0.3521140157474599
H -2.732941507948648 -0.5952713140764119 1.5410590320554867
H -3.9943830385502594 -1.1269413530326702 0.36450988698270087
O 4.047078113591633 1.6998815885213794 -1.1652320723778054
Rh 0.6924821445011193 0.26592833701373614 -0.33793047128956893
I -0.5166283935964819 2.1483189783516305 1.013010490922619
I 2.4646377737619956 2.183393299825594 -0.30298042889098004
O 2.482863084402084 -1.0265164187197968 -2.3332541931724715
C 1.743262558112022 -0.5937280838295921 -1.5573202887128041
O 2.5067557354772676 -1.1718153697572151 1.396286471381437
C 1.4097415904959578 -0.7973224664178739 1.355903700892555
