33
## STRUCTURE-ID: 6456be0768278f75916cdb3d ; CHARGE = -3; SPIN = 1
Rh -2.628097701072379 0.6410520019693867 -0.29238112964493806
I -3.5343997300651697 2.4825003864122013 -1.9105927209284075
I -1.3008712971271261 2.372044688741819 1.3079983441401994
O -1.5235398170954375 -1.8002960209778074 1.027428231086614
C -1.8954252178944297 -0.7968449453276105 0.5773159760755803
O -3.514265468062201 -1.283938347953389 -2.3884227796681574
C -3.2060724474209166 -0.5382648950255929 -1.5664088449636602
I -5.167411339166533 1.055120509555582 1.41883252421331
C -5.3791924540415295 3.224199614568551 1.3270930662715763
H -6.064673068799835 3.5087001648709344 2.115178993832953
H -5.752953083074118 3.4647942458909196 0.3382893509662842
H -4.386251426269509 3.6360332854112625 1.476112642715336
O 1.847413878633113 -4.47833939467635 -0.1015413764803273
C 4.458636294379358 0.13610106315826045 -2.04302814198983
H 5.539266828529559 0.15168434489393498 -2.095928492952175
H 4.116105538702276 0.43518803903158093 -1.055570865741502
H 4.003488962555974 0.7595900528715 -2.804331978882875
H 2.077230533418896 -4.48275580296462 -1.0452855929697573
Rh 1.4955681628507596 1.877501797592686 0.7672918721261697
I 2.041155609784422 4.383073135186639 0.05865691390155929
I 3.803657966932197 -1.882508177920178 -2.3711871438203724
O 2.560497189066375 -0.7641202131476836 0.7124786416817221
C 1.6144584375164173 -0.03869022019743069 1.133888374320648
O 3.2337649483460806 1.195598346221239 3.082339456932515
C 2.602376335235805 1.645543281595867 2.1924365764768066
O 0.8085017693687632 -0.5702637680434388 2.1215118661681966
H 0.9633922410415622 -1.5496251357183954 2.1350846810333315
Rh 1.209146692436332 -1.6607148181868718 -0.7893668493938106
I 0.8177124711276226 0.8393079128410346 -1.7377725942598532
O 1.1737996322193407 -3.2245368558482745 1.566247362157149
C 1.3892390572930147 -3.2629179776004005 0.34891049533947216
O -1.2039026686280625 -2.984413335303592 -1.9176046441835974
C -0.19835683072062488 -2.4898029619217668 -1.5876722135601
