12
## STRUCTURE-ID: 645664ff644dd80e4632dfd3 ; CHARGE = 0; SPIN = 1
O -0.4334020605384721 1.4097928715623806 -1.1522559288295502
C -0.6575964338460651 -0.4059240062034558 0.7803905022277354
H -1.4887188453488795 0.2792605307052803 1.0531072681559432
H -0.3110656025224829 -0.672348316178445 1.776609928919337
H -1.0924601547258634 -1.2798059174656804 0.30123457641682017
H -1.1069747459111101 1.1859094297438215 -1.8009450004578909
O 1.2383855933403909 -0.3220821401700991 -1.0986313547954498
C 1.080600148928057 -0.4412534508370915 0.1880811266297271
H 1.3571307704264972 -1.430379938142176 0.5752114792446401
H -0.5411736013371341 0.5492762494875275 -0.05999870239475726
H 1.535657726900079 0.35658546939490804 0.8006319272988741
H 0.4196172046349918 0.77096921810303 -1.363435822415434
