18
## STRUCTURE-ID: 6456707a41b99a78295eb023 ; CHARGE = -1; SPIN = 1
I -3.831743580860005 0.7144400166781633 -0.5362578848054083
C -1.7221763739524343 0.16874863559528883 0.788097520113512
H -1.1720094975152806 0.8663623625023406 0.1859109812167795
H -1.8152583393058384 -0.857932865068396 0.4927971921636584
H -2.2221027143512186 0.5163869995255055 1.6691975533079737
O 0.996405582318351 1.4754410554236443 -0.044576904850152865
C -0.14669878255641797 0.27190508567933086 -2.731388354326217
H 0.3073190085521837 0.3606582697444599 -3.709594150485037
H 0.16073411390986217 1.0797057678665443 -2.07509986793966
H -1.2255061205749278 0.20128235600112018 -2.795885785217875
H 1.5615645860920937 2.2377148182050703 0.10576569434300008
Rh 1.394040338949588 -0.24180591478369678 0.8568208489393799
I 3.9935487348732006 0.24681365168921598 0.6649946595884794
I 0.5836846824899099 -1.5508361872821186 -1.8297548145181208
O -0.49125923864367976 -0.5442122383180621 3.0697424705178515
C -0.17800333130028362 -0.30627091516921384 1.9662149073378599
O 2.027228180461578 -2.8053216735200808 2.2460329850075174
C 1.7802327514133147 -1.8330792247691194 1.6769829496064756
