19
## STRUCTURE-ID: 64568e3720e70901831fea70 ; CHARGE = -1; SPIN = 1
O -2.0653173968217775 -1.259710042700312 1.679907309493091
C -1.1672284914200546 0.4027809498286196 -1.333611299155369
H -2.1086647690195037 0.18648900204001603 -0.7996351593828941
H -0.9835273176421983 1.4706517222280973 -1.228305385207056
H -1.3132557748339515 0.15086181019702072 -2.3813288386415064
H -1.9515195386540998 -1.9297248952483967 2.355677653288185
O 0.989928436434395 -0.6546141957308663 -2.4503691832644923
C 1.1259178625044277 2.2994443181642104 2.0978120020384523
H 1.5611871482679642 2.3388708175107875 1.1065143725788873
H 1.8815223146371842 2.0440806107139795 2.8294434709683682
H 0.6480724541067608 3.237354679220939 2.348240725775904
H 1.7904169403431214 -0.2880467230517381 -2.872745093687683
Rh -0.28213339123882253 -1.0673109439282493 0.065309558612845
I -0.38944327307683835 0.7068451720659977 2.0587939686431946
I 1.510399984962856 -2.594548375431057 1.3632123344880551
O -0.836223889391164 -3.433426642912071 -1.6284163240808067
C -0.6032864095327946 -2.4826306586398754 -1.0233206104440684
O 1.4554736937498247 0.8947540311014571 -0.906989487870145
C 0.7376814166244565 -0.022120635428714314 -1.2801900141529359
