12
## STRUCTURE-ID: 6456677f6632d535b55a8520 ; CHARGE = 0; SPIN = 1
O -0.7459513763674688 -0.6025707164390157 -1.3145615608505414
C -1.7532696115594975 0.032947901790576405 -0.6647905953031009
H -1.2699826185567007 0.49296308987853854 0.30401369178013726
H -2.565603779822212 -0.5959648519046813 -0.3072511409639163
H -2.0833636830793036 0.9019623273226098 -1.2334329398888926
H -0.7498326190900371 -1.5630771533432093 -1.1616162280059432
O 0.05691447651109525 0.6349063466358418 0.7339392934319168
C 0.8978740118670719 0.032435150399102664 -0.09644033724004288
H 1.3752877539045822 0.6181095670937932 0.8569656725505199
H 1.2241737279939013 0.5381258511404161 -1.0075529807599048
H 1.135980538260916 -1.0247182723578943 0.0339381281487567
H 4.47777317993766 0.5348807597839175 3.8567889971009874
