21
## STRUCTURE-ID: 64567678f3969a4d3667100e ; CHARGE = -1; SPIN = 1
H -2.435948037284742 0.30345245342204213 1.7574003103228626
I -2.984648596530911 1.964246455762922 -0.7500966962190634
O -1.9205734078707277 -0.37952724374478847 2.1974404909884644
C -0.78754606417092 -1.0844704333584056 -0.9794424035075003
H -0.9177004901615976 -1.1327815427386208 0.10321509281971535
H -1.6876714127793024 -1.478176378683281 -1.4666091225619584
H 0.07880734889406324 -1.6759520006330995 -1.274217797970349
H -2.5606780493395025 -0.9541017773027859 2.629670594232849
O 1.7855236495401061 -0.41783148469955483 -2.551718370934643
C 1.3719806823660552 -0.35468761270358373 2.8453763144432633
H 1.5968014260271655 -0.9919930866337211 3.6898326610505494
H 0.3175621080058283 -0.38965700714824597 2.599036359062108
H 1.6862529370068557 0.6645879990095691 3.029767850402868
H 2.6575013428827194 -0.30803230685435423 -2.9845164857736193
Rh -0.6563987931920904 0.8927205889545965 -1.6331628006080354
I 2.47801975590719 -1.085312931414274 1.157865478326389
I -1.4830553678965257 0.4953341597335387 -4.091549562914817
O 0.5866056494338775 1.9524031684731282 0.836526155970414
C 0.09123690305486727 1.4459682318007054 -0.0688159617968155
O 1.6306345755903713 1.8095684624094248 -2.675179026832567
C 1.1532938405172446 0.7242422863487913 -2.3708230785001523
