12
## STRUCTURE-ID: 64566dbfe9bc1c4ebf2fdd77 ; CHARGE = -1; SPIN = 1
Rh -1.1020219195564025 0.720946992722832 0.49819133476611277
I 0.449042942595514 -1.352594985164353 -1.3757275798233912
I -0.12287470027697801 -0.44734459809887706 2.669079834716942
O -3.5881306670624658 -0.8426846092138718 1.0349701459665983
C -2.6222811100362597 -0.2560109168487935 0.8043482202550403
O -2.4612867567500127 2.3412437216311734 -1.6086154072013177
C -1.9330506703133306 1.6944054571354137 -0.813298130672869
I 0.8971487398896568 2.44858248283486 0.2647075094070991
C 2.401302978099752 -1.106101116643658 -0.47313757705680537
H 2.978384420345517 -1.9919016377941527 -0.7034733349415719
H 2.8455371676428425 -0.21148801318731636 -0.8933163193745416
H 2.258229575422167 -0.9970527773732608 0.5962713039587109
