12
## STRUCTURE-ID: 6456689d42ff5a5f7a3288bb ; CHARGE = 0; SPIN = 1
O -0.573344999099418 -0.4856288588773267 0.19705092859903736
C -0.9571178481943449 0.32416743123070463 1.2674877448068356
H -2.037433559541364 0.37981110665895035 1.1204338460750036
H -0.5372834985271179 1.3298928322226138 1.2021745016681147
H -0.7417410550248265 -0.14394323271690748 2.2302914730732417
H -3.9712179728639394 0.05599868027227884 -2.742674002382152
O 0.8877882300674478 -0.7583605896653896 0.21719717838677433
C 1.6103632924561917 0.09475658724133537 -0.6939225971741897
H 2.634511434290029 -0.28067798082390655 -0.7031682411488485
H 1.592729345617462 1.1102079560112534 -0.299261264173711
H 1.1798710467634785 0.07700627411934725 -1.695551306516362
H 0.9128755840563998 -1.703230205672969 -0.10005826121372019
