14
## STRUCTURE-ID: 64568eefff0bdc563b28a813 ; CHARGE = 0; SPIN = 1
H -1.608030791777265 0.7304479031246985 1.4840964594764865
I -0.8235601673723495 0.06827738279181468 0.24006753827644434
C -2.842446406874106 -0.6565040792501851 -0.34761681027308383
H -2.6911767426513573 -1.2327607673371452 -1.2567575554011061
H -3.2118667329515023 -1.2802347551113908 0.4630971507048268
H -3.4627113700106613 0.2182758172029895 -0.5285751882313753
O 1.9167775464228864 1.722069105164078 -1.2419205585382853
Rh 1.9260949652192367 0.8414396707438538 0.674346613267531
I 1.5834735725500955 0.6702420030227835 3.2211669034975614
I 1.271374923653841 3.2022953211402947 -0.22162521400249255
O 0.5795815208213205 -1.1938999502067345 -1.7158891730129182
C 1.6690481068000707 -1.1308656743646057 -1.224204130065967
O 3.3847296240078846 -0.9588470758794322 0.5257577166603354
C 2.3087119521619104 -0.9999349010410202 -0.07194375235795714
