18
## STRUCTURE-ID: 6456894d0e68a537e5530d60 ; CHARGE = -1; SPIN = 3
I -1.8709685880386857 -1.8716918882677964 0.3782093808596197
C -3.531191295735608 -0.5790019871562692 -0.1934373501166017
H -3.1676265358797653 0.1070030722291993 -0.9522624517485524
H -3.8374412474550907 -0.036378323926370325 0.6933814395741954
H -4.320982778569012 -1.2148991619044853 -0.5717306899393313
O 2.0474663809118923 2.1547046150397913 1.4678776976539851
C 1.297887354614118 -1.0228323157169528 -2.30095621626696
H 1.6230956763356956 -0.9851894205992221 -3.3321180868981193
H 0.7624548082716375 -1.9406979319852644 -2.0838438124521104
H 2.127685825658609 -0.8811555704536957 -1.616138001949749
H 2.931995932495175 2.52424348302717 1.2775728883957762
Rh 0.04473851373613033 0.1717994415739636 0.7776852870395963
I -1.5678645400982654 2.195923151794189 1.6649456964057865
I -0.07400826821775774 0.6354307913507505 -1.9880294601354926
O 2.7877315772409323 0.42488410641275837 0.2528647513793466
C 1.8771850799493521 0.940409244619786 0.9105395689221514
O 1.878464595410378 -0.2974400569431987 3.205327935201083
C 0.9913775093707737 -0.3251112490943044 2.4101114240750983
