12
## STRUCTURE-ID: 645666d41ffb490eb44ed2bb ; CHARGE = 0; SPIN = 1
O -1.305266580895901 0.2713584366280408 -0.8408343962792677
C -0.5478978006021437 0.9018797826999456 0.0854493747076063
H -0.16991526339559657 1.8339205808875045 -0.3446893229987985
H -1.0274529095089504 1.0730842144992074 1.0536087796965208
H -2.757040378371546 -2.377670356124493 3.1913917501651516
H -1.940356093134462 -0.3545878226637057 -0.4671439994333545
O 0.687376629524999 0.1203637283414128 0.40631608023652266
C 1.4987765589339095 -0.14426662477363628 -0.7714388931058567
H 0.8993732864982851 -0.597302691923492 -1.5610504079535756
H 2.311309338026241 -0.8023900678875354 -0.47557267361339134
H 1.899465424769946 0.8100764632841908 -1.1082999013486161
H 0.4516277881552218 -0.7344656429674398 0.8322636099270686
