18
## STRUCTURE-ID: 64568b0fbf05dc71934d91d4 ; CHARGE = -1; SPIN = 1
I -3.4154949126337755 -1.572401260952288 -1.062296808128852
C -1.6972080065332538 0.13449786773751726 1.8498967345612727
H -2.666882756562331 0.45832462993285533 1.4566823859099467
H -1.3552466115190485 0.8780830290208641 2.575554922337725
H -1.8230675815487285 -0.8281287896793393 2.362513703961494
O -1.1869985807191037 -0.2518067126930569 -2.7174152486040493
C 3.189059013008598 0.9375249040352072 0.3752620093231154
H 2.9554969224739542 1.9964234444307098 0.3588070428817075
H 2.8819766557876987 0.4602439447384315 -0.5497917975902209
H 4.2356241934400805 0.7582110264356579 0.5871670558536825
H -0.6023152332282159 0.30345283232032344 -3.2612756713336464
Rh -0.3219004263399702 -0.1506182721829566 0.35050764231825626
I -0.3657707640845688 2.374832345139765 -0.32263828308855647
I 2.027345330328853 0.03745352844616766 1.9689727737593457
O 0.7420142120871999 -0.8590514042842534 -1.6604628595583226
C -0.5138218483711067 -0.8367453711041687 -1.7134366411722755
O -0.7865483315575826 -2.273744177527348 0.15330763589064836
C -1.296261274028561 -1.5665515638139837 -0.7513545973213464
