13
## STRUCTURE-ID: 64568c0cd9dff575895eb028 ; CHARGE = -1; SPIN = 1
I -1.254665745197844 -1.5832389796172102 -1.694891702481819
C -1.8989440161608477 0.29160694896271927 1.1605555312964666
H -2.7119645338835197 0.4674276640835094 0.4504909984561114
H -1.8047177360438775 1.1564245100348558 1.8218798311849873
H -2.125947672994655 -0.5975869840894228 1.7523228108462992
O 3.4155545067148974 0.3621057905191381 -3.0299679186509816
Rh -0.13165069552646647 0.09162156438985576 0.057195617676182094
I 1.4024337940988334 1.4471625608504308 1.7796152273212011
I -0.566758266597612 2.2217722532965065 -1.45723273304005
O 2.0198189572057634 -0.2295875573022887 -1.3177765783705129
C 2.7157689568228482 0.07344903599324244 -2.1797641702422976
O 0.6286060713563811 -2.3149534697921523 1.6250648994320696
C 0.3124663802060862 -1.3862033373291867 1.0325081865723464
