18
## STRUCTURE-ID: 6456894f8c8140335d324914 ; CHARGE = -1; SPIN = 3
I 0.18755343306187836 1.9168460835836212 2.214129181056363
C -1.9785859269911164 0.6798050170911478 -0.367180543690556
H -2.3716384837936126 0.969323764665526 -1.345954253018134
H -2.401973113211154 1.3721253123511663 0.3668240998253508
H -2.336545715503893 -0.3285696747750112 -0.14054230154209568
O -0.40105658232856034 -1.4214132829826636 -1.8659127565745914
C 1.774049508331553 -1.6664612890313681 2.6714489308731384
H 1.9436530645705126 -2.607184043363556 3.179547524490507
H 1.4932874426321707 -0.8818770423320305 3.365532490689065
H 2.6364321391028778 -1.3730423548443809 2.082014188684055
H -0.534462777306596 -1.8460769678538342 -2.7379692913877616
Rh 0.16437210632063406 0.7832284990974014 -0.21978975134964227
I 2.7457092265425893 0.2284704778881178 -0.743973762311407
I 0.12023404333763306 -1.9603373204319472 1.3042255662172357
O -0.21449599512442197 0.46272073093598826 -3.037865466352269
C -0.20424131012065566 -0.10156866997797989 -1.959685182734559
O -0.7251862081503693 3.1884296845157145 -1.6568113807419793
C 0.10289514863058993 2.5855810754640465 -1.1080372921327342
