12
## STRUCTURE-ID: 64566a7ac4aa9d18341aaa18 ; CHARGE = 0; SPIN = 1
O 0.10968756033044393 0.9528853736857817 -1.0812334375701833
C -0.6847848021314301 -0.46359679273447607 1.8802771867226082
H -1.6698524653813258 -0.4222529597908756 1.4045883336901843
H -0.10207462020050954 -1.2701289789934913 1.4233023932710895
H -0.8128535378764716 -0.6775892879166824 2.940752963020701
H -0.5096895346885856 1.3808981695948541 -1.6845657829012557
O -0.015650268938506375 0.7724329834801318 1.7880742405663193
C 0.7594143753285225 -0.10299043265749694 -1.7584932314717097
H 1.4682758157353426 -0.5377442425890976 -1.0561179188573075
H 1.3064085383930921 0.2612102157256216 -2.6319269544757735
H 0.04798986819883025 -0.8731135662136877 -2.070232551516905
H 0.10312907123058335 0.9799895184094277 0.8455747595222382
