15
## STRUCTURE-ID: 6456b7de27a5a83d540b39c4 ; CHARGE = -1; SPIN = 1
C -1.844013438123294 0.9291241337433338 -0.1662957026862054
O -2.560450923620047 1.5463331379760068 -0.8216962272652326
I -0.36848180477255904 -1.3877836060403437 -2.276413586276557
C -0.903197905934731 -1.8403593288981424 1.664213723173666
H -0.694701790277971 -2.610672548635389 2.3952843339987564
H -1.3252539558488066 -2.2749775080343384 0.7667191563595954
H -1.5470198847039827 -1.0714887135648954 2.0690846553322118
O 1.7180131170394017 -2.464730016455493 0.509443942528865
Rh 0.2452562271671497 0.7133859745726456 -0.8218245657901789
I 3.666721062617366 0.3896899593487002 0.45812901464683015
I 0.9719484018651297 -0.9372596958036927 1.1368252564030938
O 1.1392754602840658 3.0657653394280104 0.8046045753911751
C 0.8287200273723512 2.1676741073133083 0.17690328291531998
O 0.3731456384210549 2.130934832443764 -3.46257403835617
C 0.30003976851487424 1.6443639326065276 -2.4324038203751703
