19
## STRUCTURE-ID: 645679ef79b9a177327b9261 ; CHARGE = 0; SPIN = 1
H -2.997291833963666 2.4405684577638267 1.123524473212687
I -4.487573475418572 2.884827433052095 0.7939346660349029
C -4.342701704440775 2.408942645286147 -1.3083562064338332
H -4.127957564856745 3.3381569487417226 -1.8266487034265244
H -3.513416442452771 1.7006915296740404 -1.3424461172776874
H -5.294118860637667 1.9756914628144642 -1.602376709696815
O 0.8438504353210152 -3.2884796526041717 2.749047565873725
C 2.8031102383320086 -2.617938426312845 1.0165696208135206
H 2.702532594738907 -3.449465810308096 1.6960131213927316
H 3.630457913211578 -1.9836045250073846 1.3235784379858673
H 2.959172377020392 -2.9772302511415925 0.00270612831829484
H 0.012777835529921464 -3.298556077885079 3.223713964557684
Rh 1.377729165942869 0.3330307662177691 -0.621477455567816
I -0.9508461206579996 0.7193686364291804 0.26315262536004447
I 1.028759502698594 -1.5398697783185542 1.1094683665135328
O 4.132886286909235 -0.6918080176855881 -1.1634344300031247
C 3.0731921717722894 -0.27371623410355705 -0.9835508302922262
O 1.6586334027521141 2.5712872499346355 -2.6118575109812645
C 1.4908040781992744 1.74810364345297 -1.8415610063837042
