17
## STRUCTURE-ID: 64567574450d1a10ef293423 ; CHARGE = 0; SPIN = 1
C -1.159276480030346 -0.6064584513102046 1.4893837109082264
H -1.214586860188121 -1.2199368982870136 2.3923726202703643
H -1.1511344406058144 0.44887031007386957 1.7603510852597768
H -2.0011115092955345 -0.825179446420027 0.8355436425304068
O 1.5522137491706047 3.0239223991529514 -1.674910763910353
C -0.6460033698328842 1.4428207003553304 -1.6167108527187635
H -0.8540314413307962 2.4953868200511513 -1.755746767414683
H -1.4643948556537767 0.9253926796413379 -1.1324622525124728
H -0.37867719209522427 0.9888875274354053 -2.5629180921944674
H 2.3444511842909153 3.4711177957163275 -1.3783549449376837
Rh 0.7244508298596057 -1.0997294126956352 0.6119260141265896
I 2.2104335911792425 -0.25035915705750145 2.582896278929904
I 1.0548791898787901 1.3399837818506286 -0.33451693406713845
O -0.5153555834742524 -1.9386841037414888 -1.959069473367065
C -0.09593589758283137 -1.621637333061208 -0.9472547863239328
O 0.7071708699312668 -3.6757322949443556 2.2487504500525155
C 0.8869082157791947 -2.8986649167595013 1.4407210653688751
