12
## STRUCTURE-ID: 6456668ef518493a091dbea8 ; CHARGE = 0; SPIN = 1
O -0.9947383233180117 0.22548496529653328 -1.139927983142084
C -1.8726289549092616 -0.03194719947603288 -0.06194124054409927
H -1.4149632070121934 0.4009306934227991 0.825807288611522
H -2.0073059853132267 -1.1061781903030576 0.0928495711878306
H -2.8463757234345803 0.43705319863276937 -0.22266305848605553
H -1.3907045268194396 -0.1094750358393801 -1.9536986060527572
O 1.7332311556044353 -0.4337696609253588 -0.570162930213954
C 1.9375886723549334 0.1036930680709581 0.7148555793724836
H 1.2481947869470726 -0.3330695631747653 1.4453801867068168
H 1.819309165282887 1.1920848233107018 0.7181510514060034
H 2.9586155743814904 -0.14190407086167128 1.0047170266088783
H 0.8297773662359028 -0.20290302815349506 -0.8533668854545852
