13
## STRUCTURE-ID: 6456b79be2b6d80ec66cdb3a ; CHARGE = 0; SPIN = 1
C -1.7593559553278066 -0.5222573159155597 0.45806992427901466
O -2.7803930883721444 -0.9861397488662631 0.6083760723671993
I 1.1283217740556288 -1.5836973093354767 1.6893424866114197
C 0.13275001462985406 -1.0832789869355988 -1.5093087081716359
H -0.4439458689124365 -0.7102704125756574 -2.3542928486816495
H -0.22982567030797615 -2.0723476443617197 -1.2282435906623967
H 1.1843409874931121 -1.1557997985683928 -1.7890400789650862
H 0.24424885985319109 1.2628753307387874 3.7271875551790026
Rh -0.07323231282643443 0.2438297446952191 0.14273961824819068
I -0.37493279285581255 2.067461970398797 2.5089896857699516
I -1.2296474784073512 2.1375286682423056 -1.3869481474936987
O 2.601944441469795 1.4169354522762472 -0.582899805170432
C 1.5997270895083624 0.9851600502073166 -0.28397216330991676
