12
## STRUCTURE-ID: 645669ae53179a2af822414e ; CHARGE = 0; SPIN = 1
O -0.02878928402813627 0.19405785231785774 -2.270966637303336
C -1.6523344025481552 0.3759020467312231 0.889416445477118
H -1.3094652771263389 -0.6096178859951733 1.178535226451063
H -2.732006993598663 0.41222822307764634 0.9504130527790441
H -1.2314263408332506 1.1174225893768148 1.5560475341266
H -0.1793850204402309 -0.329367221023855 -3.061708178129556
O 1.8004992828338244 -1.0075295383239222 -0.3311621085237908
C 1.9642419326296827 -0.3579104974597278 0.6647248811441294
H -1.3424236417265634 0.5811729731498427 -0.12725990151922714
H 1.5221648536056345 0.6395470071999593 0.7893584006393244
H 2.5651719199751684 -0.7251827969726085 1.5076682647607629
H 0.6237529712570319 -0.290722752078069 -1.7450669799021272
