18
## STRUCTURE-ID: 64566fa360956d20f84b6a5a ; CHARGE = -1; SPIN = 3
I -1.0039376935351463 3.1359971362463717 1.572002180604376
C -1.8958483039969738 0.5894947175695849 -0.8759070545385877
H -1.9777101730484887 0.8061391839684393 -1.9446819300486202
H -2.6721634851482357 1.1594016128937412 -0.35599134990436526
H -2.1048265272726825 -0.47300855570836 -0.7283733648497939
O 0.44961906715745714 -1.4449570155452356 -0.8539875599395615
C 1.227365380190546 -1.9933989512343746 2.3970544446428295
H 0.9736305145548834 -2.8925970869603597 2.9443191330526286
H 1.9540531051697492 -1.3890634794257566 2.92781420144117
H 1.5725296314229127 -2.215890812874808 1.3949743452343313
H 0.6803441652370664 -2.1160794679165327 -1.529082130740632
Rh -0.004888088967747892 1.2149851219942605 -0.04886602261486253
I 2.601907086298066 1.0458598355506263 0.6150448489546338
I -0.5848024202329669 -0.8210015918543556 2.2037827302546886
O 0.6732750875034208 -0.011182583082268995 -2.539556866237266
C 0.4161012992758728 -0.20680713333847855 -1.3673316852013968
O -0.497089611167622 2.9892321479760597 -2.3358983239994786
C 0.19244096655987628 2.622876921741434 -1.4753155961101003
