13
## STRUCTURE-ID: 64568c6314ac7a2c430b3f54 ; CHARGE = -1; SPIN = 1
I -1.3723283052027784 -2.5067088306374172 -0.7108024075430669
C -1.2372355125534888 0.7726722839697755 0.31097421752778487
H -1.3824516319285143 1.296612177413866 -0.637837163249709
H -1.0246660858581065 1.5138526814939988 1.0843267418645883
H -2.1658650188323056 0.2626208269819662 0.5689620115807629
O -0.301531148414541 1.6884254983670528 -2.790791225902848
Rh 0.36356642994353033 -0.6133674092581317 0.031317124899318136
I 2.5659089570942633 -2.1585642113295807 -0.5530053574079704
I 0.7946492029486375 0.22232323365087206 -2.4714089875233243
O -0.04409261887818338 -1.764167617928053 2.7664033959953374
C 0.11786779575167658 -1.2914982657101062 1.7462957541079045
O 2.1825271554212873 1.7452059907094066 0.3690048068320053
C 1.503650780508528 0.8325936422763636 0.2865610888192163
