13
## STRUCTURE-ID: 6456889058251a7508750ef0 ; CHARGE = 0; SPIN = 1
I -1.6023275101233911 1.1143383744144006 -1.779592032218147
C -1.2760345338946788 -0.6649504255406943 1.1969632012296147
H -2.279974800041369 -0.7544764223499527 0.7853285055496755
H -0.9974506945428118 -1.4675858947706775 1.8779005095743468
H -0.3148533115451307 -1.4594973648660063 -0.46105765760506573
H 0.7050740829324382 -1.2664159591831614 -3.5818363127473827
Rh 0.2777115750794905 -0.07610888668116532 -0.2382860899294572
I 1.8267184631511781 -0.7961021954114668 -2.560048356631828
I 2.2015066902598415 -1.0228943558748373 1.4341950851781877
O -0.7289254797588613 1.609533834353471 2.0434654904078564
C -0.8060275923245457 0.5952553730497554 1.4701002767090308
O 1.7897429451016813 2.57790355918077 -0.055174352244813325
C 1.2048401657061638 1.6110003636795658 -0.13195826727202228
