12
## STRUCTURE-ID: 645667ffab91961e886f2cab ; CHARGE = 0; SPIN = 1
O -2.7852779411587623 0.12914639721757581 -0.3059751364607206
C -1.4357045721115513 -0.09152130543013118 0.06901074586142053
H -1.1573001557565392 0.9376240072874547 -1.7825965406156883
H -1.2575403521891306 -1.1695244638959028 0.1833689258314781
H -1.238553602957561 0.39109433202412197 1.0357396865523136
H -3.368133905046245 -0.20597809737698675 0.3849027691592465
O 4.165731736675587 -0.6185556246247831 1.3553794136103878
C -0.5272654641734877 0.4918546722500922 -1.0171354697502155
H 0.12262046003173845 1.2632152531484047 -0.6162602116838345
H 0.0813166559965657 -0.27847518976671076 -1.4799957195758073
H 3.957551823751837 -0.7245226128707023 0.4235026968921785
H 3.442555316937553 -0.12435736796243563 1.75005884017924
