12
## STRUCTURE-ID: 64566601ab1d8f33e319eb6b ; CHARGE = 0; SPIN = 1
O -2.132503706554216 1.7684164095144363 -0.08852215885452921
C 0.1609108362361968 -1.094982203986449 -0.8837776911653823
H 0.7959109910183912 -0.6465062330943099 -1.6557001561119207
H 0.6236594370493599 -2.0252634264998317 -0.5371950256436953
H -0.8220344489780433 -1.3072064929727025 -1.2976959570532005
H -2.8116549394564725 1.399756481032204 0.4816390044210372
O -0.03448765863081651 -0.201321220267778 0.19104069842677113
C 1.1716754854240594 0.16192772854927562 0.8273289309900824
H 0.9088048598001173 0.8448388250536139 1.631695536578823
H 1.8489086228419047 0.6625541269070748 0.12661882165663263
H 1.673914107325769 -0.7190025662281078 1.241387378892305
H -1.383103586076251 1.1567885719925717 -0.03681938213692532
