9
## STRUCTURE-ID: 6456b668b0124350b237418d ; CHARGE = -1; SPIN = 1
C -1.6336468223072507 -0.27897456162069056 0.9071938460391544
O -2.5098930970839888 0.39508243083151945 0.5749209526549914
Rh 0.2730652873003999 -0.3689778131066615 0.036211186366007925
I 1.6331965996098088 -1.6380851726355976 1.983891602448279
I -0.28171704626251565 -2.6107644873680114 -1.3120584622113731
O -0.15628689813661883 0.9182008752450084 -2.6315801049062615
C 0.0015399301993019147 0.4521281928634899 -1.5931078366159077
O 1.601930516363272 2.012816026192958 1.2591761130874952
C 1.0718115303175806 1.1185745095979849 0.7753527031376101
