18
## STRUCTURE-ID: 6456716cc319de5d98623196 ; CHARGE = -1; SPIN = 1
I -1.7609038628609868 1.6231112143744857 0.19615762808181444
C -2.1745970535405035 -2.1982421988679803 0.5816454722735105
H -2.733275671628546 -1.5556799718593473 1.2581284243147395
H -2.488307370827096 -2.0814680209529515 -0.45749711367680507
H -2.2097099104515054 -3.2416784688835514 0.8693395406706917
O 1.989800004486276 2.636061349316361 0.8076694193284608
C -0.20893511112267638 -2.212481327366153 1.0402716787097988
H -1.1315295134653651 -1.6207234347208412 0.46976277049761167
H -0.37357306061016515 -2.4286764830874987 2.092673285453043
H 0.12003204611233866 -3.052787042959853 0.43186547862192803
H 2.342945353966618 3.45210745263496 1.207694981284732
Rh 0.4703291604515505 1.348255523207431 -1.1952263031123216
I -0.4377925166019409 -0.7163155684623572 -2.6215726628072167
I 1.3378415861440283 -0.6542682683352443 0.950107012972841
O 1.078977542985735 4.121535843791074 -0.5877559123230159
C 1.1864868348178796 2.924483288452786 -0.28740546422553176
O 2.992777583664192 2.0204294124272915 -2.6296971293605824
C 1.9994339584801604 1.6363367012913896 -2.126161106703663
