12
## STRUCTURE-ID: 64566b6b1a3bde0c735ede0b ; CHARGE = 0; SPIN = 1
O -2.8391637800614014 0.5770853709570736 0.03670866355134439
C -2.6781180084700025 -0.618436159445686 0.7689122279704118
H -3.592433965431892 -0.7576123866917244 1.3433485915723007
H -1.8301179521744315 -0.5555249765676739 1.4574489022235015
H -2.540459686870527 -1.4780600504279322 0.10572242263425553
H -2.04045458235586 0.7308304515077378 -0.48188005935851663
O 1.9709233030794246 0.39465748815705615 0.3517733031546789
C 2.7225095901558047 0.15931474285649913 -0.8189975595481834
H 3.787790678620134 0.35045436570821437 -0.6583058222639961
H 2.3675993505323416 0.7736922517972185 -1.6524557444441377
H 2.586196624273212 -0.8912586746021207 -1.070126018953982
H 2.085728428702978 1.3148575767512527 0.6178510934624647
