12
## STRUCTURE-ID: 64566a6323ba494eea112998 ; CHARGE = 0; SPIN = 1
O -1.7228443322442146 -0.3729594056221667 -0.14953949491784788
C -2.0360006560015433 0.5860406263451734 0.8328178303704381
H -1.7268494967119716 0.2537857744676087 1.8286347664820162
H -3.1177991605140076 0.7132477401905326 0.8202261803078511
H -1.560829939270513 1.5485552425168903 0.6174910334560215
H -0.7587678563451354 -0.5084430665042688 -0.13478352394202664
O 1.1041181924585663 -0.6004435819875216 0.14428027252250167
C 1.9266506010145055 -0.1579403100014134 -0.9165007581871805
H 2.029599724993243 -0.9262731807008929 -1.6872268071168621
H 2.9171923695480677 0.1297216296781907 -0.5549304556907126
H 1.4397553292377383 0.7139559941467508 -1.348905632287911
H 1.5057752238352862 -1.3792474625287598 0.5484365890037788
