18
## STRUCTURE-ID: 64568be5ce33111d536dc160 ; CHARGE = -1; SPIN = 1
I -2.0792192923586805 0.8036320203027721 -0.8287136128740621
C -1.66791452127118 -0.48374200176960874 2.4850273235095064
H -1.9850918249407679 -1.482497887820308 2.1924246109275924
H -2.4965960718780327 0.21050822719255347 2.327137583003951
H -1.390010248946415 -0.45992138841310354 3.538857092497902
O 0.28483756823737316 -1.1985682120336194 -1.688966479983731
C 0.6308168813157199 1.6317691024326313 -3.4590581150588937
H 0.3176918517611808 0.6045718149537146 -3.3012576492439116
H 1.3315233291909707 1.7081002722874057 -4.2800844195547025
H -0.22814264536481174 2.2763562265750332 -3.599105313628636
H 0.9017814878947145 -1.939572841246877 -1.6982947038943985
Rh 0.2718409337980003 -0.21396622325617964 -0.046219359422602774
I 1.643738846458451 2.2692322306721704 -1.667558739306258
I 2.6879905025560222 -1.2725802992499544 0.5337609154000097
O 0.23517981375682495 0.9143641070783688 1.804993102181885
C -0.5358414261343405 -0.014712046418617397 1.658829588400918
O 1.2590212251389512 -1.4805958016848388 3.5073651678652564
C 0.818393590786054 -1.8723772996015642 2.5208630091802564
