18
## STRUCTURE-ID: 64568bc9a1da443ee5351d70 ; CHARGE = -1; SPIN = 1
I -2.234973803230243 -1.9442179117850908 1.3198470689021906
C -2.516976599878051 0.40960889654604676 -1.32892344192075
H -2.6238566788793505 1.12659862859522 -2.1476848853820387
H -2.9638163582574912 0.8456204315973098 -0.4282825310042348
H -3.097420147668214 -0.4824926162603779 -1.5607906294889984
O 0.7133492340154192 -1.2447905925822569 1.4453677659396251
C 3.1517302669833938 1.064214452242489 1.1679498653840894
H 3.127554730107992 0.12805436898923972 1.7145393279822014
H 2.5522929269967 1.8237146176790597 1.659783843554665
H 4.1660690666201745 1.4045915461798206 0.9983519120294976
H 0.2703092449666874 -0.6988571901696264 2.1238339915405855
Rh -0.4632129384312592 0.32036494333379606 -0.49100522661813567
I 2.2613982078024164 0.681467662046216 -0.7868889229667294
I -0.657792261780867 2.0487974393163975 1.5126667696530565
O -0.9839436146705532 -1.0522476346992307 -3.08988359465631
C -0.8672983749537891 -0.5126284442971206 -2.069925285270315
O 0.24056247042135945 -2.398054086510737 -0.4118943338765991
C -0.07397537016433678 -1.5197445102211546 0.3729383061982094
