20
## STRUCTURE-ID: 6456b8baad2f3b7426068a04 ; CHARGE = -1; SPIN = 1
C -1.6896301479872686 1.1041607363137989 1.2799956247312458
O -2.748529479056956 0.869712436000306 1.6896514282622284
I 2.7166773481984454 -0.08820612581500983 -3.100888956590088
C 0.39142419295001407 -1.1272644728557262 2.6727683133880564
H 0.4130968121808859 -2.2176570308653925 2.6441178751146523
H -0.44516628230362687 -0.7860330981312834 3.2823970462481573
H 1.3102677960686024 -0.7544820834708797 3.125286424782165
O -1.7757475770769948 0.7610298465390583 -1.532253065610798
C -0.3251814655796019 -1.3561477878962367 -2.7263914423633704
H -1.3939641879171276 -1.4277982890639045 -2.5691755492672548
H 0.20053629816710128 -2.0798789142286482 -2.112584866736264
H -0.05562229984355552 -1.4425181995734555 -3.77398977922728
H -2.1163006283426706 1.5746322906228323 -1.9038608339235827
Rh 0.0884416039102878 1.3700483689495224 0.8330522638171133
I -0.1975916979934862 3.851401660922209 -0.13516327148028398
I 0.19016973835317308 0.5954152595069805 -2.0141668521225236
O 0.26713989604691935 -1.3601742886346317 0.3211574653717534
C 0.26828840497521433 -0.5726766321546909 1.2646254770710177
O 2.993037551611405 1.5717029667096816 1.5749385828815932
C 1.908654123639241 1.5147333571254606 1.1804841156534442
