12
## STRUCTURE-ID: 645664f26d63f510a40876fe ; CHARGE = 0; SPIN = 1
O -3.6033691237165875 -0.8738126618490979 -0.5552182474904543
C 0.4618282120882576 0.3980652597097804 -0.08021251549341826
H 0.2058885193948443 0.9344704650607858 -0.9887800591938685
H -3.9034914620824415 -0.3307282583726397 -1.288654520835322
H 0.05333998429312735 0.94022326554058 0.7701373221215633
H -4.387083257518324 -1.2426565778630037 -0.13993120194327574
O 2.386133279401333 -0.46273174735940115 1.1697235003094213
C 1.9762262112427347 0.27589428099833335 0.036677792451626945
H 2.3813632106683404 -0.2664473680926827 -0.8211993840627799
H 2.4325736661731403 1.2765731031018044 0.05740770725813342
H 0.004514491490286751 -0.5874782782760856 -0.11453447053994123
H 1.992076268565309 -0.06137148259840356 1.9545840774183572
