19
## STRUCTURE-ID: 64567b645bf53f7bb267f9d1 ; CHARGE = 0; SPIN = 1
H -4.630359516213234 -0.5864619403136362 -3.528183387677215
I -3.8130424947205372 -1.4000927599002881 -2.462560920379616
C -1.1340485923145613 -0.4321978348782051 0.07365368942691852
H -1.4300032317823452 -1.4771291725435591 0.1559323247669126
H -0.639464986921646 -0.29279624920836844 -0.8857320731559135
H -2.023188501892308 0.20632179034114698 0.13637673870995584
O 1.6159222502522639 -1.3992628096462705 -0.15080161422596677
C 1.5934426997024216 1.9321825949367524 -1.5650661911564225
H 2.6377051017884923 1.6810322962374282 -1.4173440502245749
H 1.4885801705888457 2.8067336648459422 -2.1980324861892684
H 1.031043261915215 1.0917954087567185 -1.9572854231037822
H 2.4728572306938785 -1.8328246203742233 -0.3530945274634744
Rh 0.04183002171314179 0.24017652798009884 1.6681841202339898
I 0.7512772715034196 2.44069266695113 0.3795751648213657
I -1.0011976944202752 1.751997012200517 3.644297579586345
O -0.7128227173809519 -2.189016047432702 3.2025151421049816
C -0.43481214744727065 -1.2613261276333183 2.599540953336088
O 2.5717722538626075 -0.5625697393708576 1.694868249747987
C 1.614509621072742 -0.7172546609483159 0.9631567108414785
