12
## STRUCTURE-ID: 645668f3877c1d77296cdb40 ; CHARGE = 0; SPIN = 1
O -0.8145942542492158 0.4366530570820103 -1.4518434372579205
C -0.4393130007314674 -0.18004946952788256 1.3760845493768614
H -0.5372096533945541 0.3207079043226738 2.3364694226588423
H -0.4449405438267418 -1.2639046540708372 1.4902334280625265
H -1.2441862620191058 0.11145967569263572 0.7038669680636324
H -2.102057967970496 0.8348059415641876 -1.8371172944862455
O 0.7797374572564884 0.2766539025491875 0.7595786523029977
C 0.9092582288771279 -0.15926753952278666 -0.6327870992751538
H 1.0050438823165775 -1.2413073163607689 -0.6934334521922547
H 1.7669955862694142 0.3590047829592423 -1.0488186442584537
H -0.4117740634443282 0.5390492942402166 -2.315521219134562
H 1.5330405909162848 -0.03380557892787909 1.3132881261397344
