18
## STRUCTURE-ID: 64566f174ea4be730e4609e3 ; CHARGE = -1; SPIN = 1
I -2.4418768993885687 2.78540820676416 -1.0548211860414813
C -3.1595142754831786 0.9425207131074771 1.2539793679765678
H -3.216679654043504 1.9628403762976074 1.575563464936318
H -2.806041433213559 0.24552823835123896 1.9889772407638526
H -3.9240327606851806 0.5919816111598409 0.5895009247284541
O 1.9518751692839458 0.4316079284795158 -1.729127338561088
C 0.2749891347662868 1.2774169646649547 0.9530838089441628
H -0.36535374244714663 2.152460464545744 0.9534434316708732
H 1.1443171824022007 1.440597439503834 0.32457512803530525
H 0.562295326146795 0.9834240490679493 1.9554180888221249
H 1.725268282648138 0.5896456352098502 -2.6505145355574022
Rh 1.6173743639077403 -1.498955613650013 -1.12124655004962
I 0.5432898052710787 -2.1269200348941455 -3.449662773165677
I -0.8094688517477612 -0.3351124341665255 0.058827878167060886
O 3.475883776696409 -0.7298567382466202 1.0898881278127577
C 2.7487785383413343 -1.0778240613557504 0.2705347026940742
O 1.2773126728408137 -4.375892000385069 -0.38010442483444473
C 1.4015833647041585 -3.2588707444540415 -0.6283153563418276
