19
## STRUCTURE-ID: 64568dc10b1c0c697b07101a ; CHARGE = -1; SPIN = 1
O -0.27749706085636056 1.8465817573293741 2.128294644540722
C -0.978373165069975 -0.2195804543929619 -2.6350921537172503
H -1.584694158943007 0.6090692107666527 -2.267543904378309
H -0.9986753027645376 -0.20154530507373195 -3.723418563788252
H -1.3642472192776796 -1.168938948094379 -2.272332673740946
H -0.641184806908246 2.682804861282509 2.4760052040451233
O 1.070787481516033 -1.2480575072885511 -1.8604934863724722
C -0.1862307860817478 -1.4999247549417354 2.823294935553953
H 0.16912684809200515 -0.503749880888365 3.0609028944708
H 0.646442667034285 -2.1590429599042595 2.6093012010464682
H -0.8256032447797685 -1.8971795894611452 3.6005471287823037
H 2.0351912658505973 -1.1636033984776324 -1.9582491633959225
Rh 0.4761287293738415 0.34999003916687355 -0.1550626446735379
I 2.8658578212899988 0.34428999447157493 1.0891817094336247
I -1.3634158777944514 -1.3250333524477507 1.0082503575275332
O 1.1810213593866334 0.901191859681872 -2.622058763184719
C 0.46911667482990754 -0.03038485449923105 -2.203453788609836
O -0.5264259098045556 2.820624429417055 0.11333678423631274
C -0.16732531509297185 1.8624888533538788 0.7885902822243194
