12
## STRUCTURE-ID: 6456697d241b1d52c064e48b ; CHARGE = 0; SPIN = 1
O -0.04666392719456634 0.2944379296543466 -0.12577982296026666
C -1.4051710630803074 -0.07482800594148786 -0.22744186533660277
H -1.9018542562576337 0.3096506048603548 0.6602528400242842
H -1.5131417512044345 -1.1643026231327622 -0.2666270291981373
H -1.8609676694819672 0.3614657518329076 -1.1226748352504943
H 0.7646559779328463 0.08944239864439964 1.6041287725977336
O 1.174070314597307 0.06921872785038272 2.48222736267783
C 0.7219958184651696 -0.13824150129518864 -1.227633851853446
H 1.7405574610767887 0.19924960967395774 -1.0511615258247988
H 0.34573665837831286 0.29733887607187426 -2.1594399214067646
H 0.7056794904408396 -1.2303905645314768 -1.3119838920224003
H 1.2751029463277017 0.9869587963126405 2.7461337685529728
