10
## STRUCTURE-ID: 64568b03defdb125af2abdc4 ; CHARGE = -1; SPIN = 1
I -3.011520440779614 0.32595386650782077 -0.713982912349567
O 1.50584267132105 -1.3624603928325707 -1.2156482588408166
H -1.6953491593166325 0.9257494032285312 1.9368433317654459
H 1.932432254218657 -1.1374155304721507 -2.0705979621186965
Rh -0.9251238909862186 0.9782895050124366 0.6467215443408896
I 0.929681425253396 2.401685911909402 1.7266220468928934
O 0.4953586636098102 0.6285208195737031 -1.3520668956739958
C 0.7059168343563813 -0.4314627998000683 -0.7696154970604017
O 0.05743289948068534 -1.6477267297084328 1.2653810313598592
C 0.005328742842460471 -0.6811340534186615 0.546343571684411
