13
## STRUCTURE-ID: 6456887978bc4d755d5eb01d ; CHARGE = 0; SPIN = 1
I -1.590715180457838 1.7048066790958307 -1.6383154803210633
C -1.1282299443162451 -0.18508857053318242 1.2174795523704134
H -1.5943837874027649 0.6759709351422937 1.7033929752869745
H -0.6981851886686914 -0.8102277029848135 2.0024883867689467
H -1.9454991820157577 -0.7359194818262061 0.7391325067693094
H 0.24381704160710505 -3.330328730673811 -1.000389196272809
Rh 0.26597701655514605 0.2011454729741729 -0.3609446055125945
I -0.5307812547528576 -2.164245287999465 -1.7525467318185075
I 2.2535499605895257 -1.1130374519386468 0.9038960821820062
O 0.6121459064923573 2.334628121554918 1.6713992884930744
C 0.4745499780289857 1.5217631428889944 0.8892460945489667
O 2.1558947532865385 1.2137907779308446 -2.5581651618732506
C 1.4818598810545043 0.6867420963690688 -1.816673710621466
