12
## STRUCTURE-ID: 6456684f2162b01198462284 ; CHARGE = 0; SPIN = 1
O -1.5077891707572966 0.13472841290776394 0.06650478635342112
C -1.285118153612651 -1.2006168772506154 0.028374334302994637
H -1.4080665278204842 1.7355449616172478 3.039123445063787
H -1.5732583351306144 -1.6694710248576747 0.9588058298449795
H -1.4497689609537299 1.5076380084382945 2.2958748837209444
H -1.249729356256449 0.5336324798548214 -0.7773725302297514
O 3.292459650124304 1.7017366643395582 -0.9323976454497429
C -0.7827910085033649 -1.87538541542696 -0.9908129193559939
H -0.6417306699787455 -2.937110567285402 -0.9325958190854634
H -0.49711671665287477 -1.3906744436737368 -1.9091691119844494
H 2.9134077716688256 1.4588626118128887 -0.08344026303920238
H 4.189501477873094 2.0011151895238037 -0.7628949901415637
