12
## STRUCTURE-ID: 64566971d690d038ba4d303b ; CHARGE = 0; SPIN = 1
O -0.8744697996290507 -0.3129255551071755 -0.6523190186631729
C -1.2265498130291639 0.05741240097440983 0.6978429993259752
H -2.1339179219667477 -0.4781064771821773 0.9659610368401255
H -1.3578859908442396 1.13413244318403 0.7961003905060742
H -0.3995422977592183 -0.26166158695879665 1.3347811274285883
H -1.5441273386633356 0.05417963120738738 -1.2740394394768526
O 1.9040044260317708 -0.6501362010707279 1.2335198383517503
C 0.44783010518969246 0.1494682609577891 -1.0210182130197676
H 1.14610806301946 -0.17969742883899714 -0.17903376931952117
H 0.7255941961670629 -0.3390624264357732 -1.948458467435483
H 0.4805360224426592 1.2316821045152626 -1.1158514442483307
H 2.8324203490411093 -0.4052851652452116 1.1625149597105764
