12
## STRUCTURE-ID: 64566a4b14b95e60107cab88 ; CHARGE = 0; SPIN = 1
O -1.9045513077641498 -1.3548110145334613 -0.3570168982788828
C -0.29349221150810717 0.9257119680773926 -0.5551489371895625
H -0.2644149056134609 1.3829715407820362 -1.5380072506175912
H -1.0300886587555522 0.05189233056846536 -0.5482450478087244
H -0.5827446393014795 1.6427342212825689 0.20841074140984042
H -2.612569530279804 -1.3574920700737692 -1.0091468994652981
O 1.0144225092695172 0.36187549976541095 -0.28925520665227766
C 1.0108985125425791 -0.5139067744900181 0.8583469134122218
H 0.20184039022054193 -1.2291430419455236 0.7036495441175558
H 0.8261428672398611 0.0345965329423951 1.780834164712852
H 1.9676440249093123 -1.0293370820153969 0.8881522187009724
H 1.666912949040748 1.0849078896398932 -0.14257334234110225
