21
## STRUCTURE-ID: 6456789c6ef509382a2726c1 ; CHARGE = -1; SPIN = 1
H -1.9566260254248118 -0.01644232149605772 0.0798111148217256
I -1.2925358662025273 -0.8204007309717626 1.285470001201957
O 0.1307017680895955 -2.302626864351382 3.5872943956861754
C -1.4866147295691767 2.299367794997664 -2.992900858570042
H -1.7181167842952003 2.894781835937793 -3.8724465430954966
H -0.4702874153667401 1.9223854250564074 -3.086517437844217
H -2.1683659779500237 1.4524539295981842 -2.9646116843910377
H -0.37558168599541253 -2.3282994021386267 4.40393482612703
O 2.566804395301339 -1.2983392755643275 3.9602985304870804
C -1.6093013816070296 3.1395184180168996 -1.7303677201462744
H -2.633442633173338 3.472129834772576 -1.5800560620184863
H -1.293885659398758 2.5668036217246986 -0.8620211472975771
H -0.964260309623874 4.010768044763224 -1.7982412916535295
H 1.0218496037928837 -1.9449345901484991 3.8282058041175495
Rh 1.6255926913537375 -1.471339648805896 0.36092582188762545
I 1.8929181106282376 0.8750057618275585 -0.7527810879939598
I 2.5756476225887166 -0.20399059215089738 2.4239545250484476
O 2.0909061448432764 -4.005341719082701 1.8757689926093157
C 1.851176000126385 -3.0585425405145177 1.2714090629229549
O 0.998875371426892 -2.8680508718436313 -2.2093486730460374
C 1.2145467604559232 -2.3149061096265044 -1.2277805688530516
