19
## STRUCTURE-ID: 64567ac581a8f0670241e57a ; CHARGE = 0; SPIN = 1
H -1.4660467285402752 2.2088133963410463 2.442383960020362
I -0.48847541007502243 2.772588279658792 1.3168641315374388
C -1.9042490704826949 1.217162088931757 -1.920302428708256
H -2.0474329167487326 0.6919351377483537 -2.866263898792181
H -2.2398306375593493 0.5614548542176422 -1.0990827605945623
H -2.502506373916394 2.1289265481055826 -1.9290623140596563
O 2.1958080834006393 -0.1479059063406492 1.307081799262009
C 0.10691421672229003 -3.1329212324062414 1.402605386992746
H 1.136147292415324 -2.822060848193354 1.2765711569628586
H -0.2853020690128474 -3.540005590352012 0.47851021511932734
H -0.00376270270743848 -3.8279346853971634 2.224702029318854
H 3.0984035389999507 -0.09522270842999296 1.6807992543543206
Rh 0.11351260999366038 0.5918668886330153 -0.22318395522822268
I -1.02923302717741 -1.382899522718252 1.8805336151597343
I 0.8226299356515835 -1.3204320869010495 -1.8866815673585586
O 0.2110502695924682 2.3372706348223984 -2.4369677744864764
C -0.4575016876406535 1.586340991129574 -1.804596536970642
O 2.762243903974185 1.4751804244273823 -0.15890901503551236
C 1.9776307731107452 0.6978433367231578 0.31499870250641626
