21
## STRUCTURE-ID: 645677a42837724895071029 ; CHARGE = -1; SPIN = 1
H -1.4189489681185783 -2.040961708116372 2.0444174237669106
I -1.0236931545489591 -0.4274546376094147 2.1250852537076836
O -1.6002342370063478 1.6360618296939675 -0.3047513556636061
C -0.28662688704169054 -1.390582749789777 -0.2819811183007245
H -1.1917128264508237 -1.9596926773175025 -0.32812873518113583
H 0.5856072379385397 -1.7878525446226283 0.194909460488037
H -0.2824943176901896 -0.38649156251027283 -0.6516883490395147
H -2.2408773662518593 2.1457030911717347 -0.8420063705308901
O -0.7609136379139736 2.203700497372381 2.8760923588999856
C 0.3619899411310898 -2.11674866103762 -2.154837047280169
H -0.5381509721000879 -1.7144345633275735 -2.569974119056767
H 1.2251702279639178 -1.4911033409746832 -2.056786161083092
H 0.3688809243401501 -3.1005869941917585 -1.7345076466194005
H -0.46248286305768355 2.2353995094108536 3.7902312208242996
Rh 0.6465370740700365 1.627039401200783 1.4881058781221896
I 2.5184969696079973 1.2471561369504434 3.3691336760930772
I 1.1115250973444897 -2.953658430749025 -4.379430854698745
O -0.5620371284335681 3.592622265849161 -0.05607651432350561
C -0.6292863333808046 2.3988658501827054 0.2111284020132852
O 2.427648537515764 1.0599184550397382 -0.834192590229704
C 1.7516026820825283 1.2231008333749467 0.09525718809168954
