12
## STRUCTURE-ID: 645667db9cfa066e3e233630 ; CHARGE = 0; SPIN = 1
O -1.7854773250355749 0.7125192457479652 -0.27388973333231215
C -1.376505194575281 -0.3713248851476948 0.3691109043839423
H -1.978513213804807 -0.7085448019260923 1.2102144277351645
H -0.3608665074915631 0.014000944419342288 1.6151567547955668
H -1.0415155368776043 -1.1611177367467176 -0.28356568674993105
H -2.1942902243113633 1.3692832050180843 0.3144069495144097
O 0.8230154638889605 -0.02884121588639475 0.10944035188970212
C 1.6755724840539123 -0.022719299859298398 -0.9634051867517801
H 2.3528250152515184 -0.8984459386753093 -0.9775767588575638
H 2.2985510895805232 0.8887330098014049 -0.9880839528971623
H 1.0968756850167087 -0.03497107077263995 -1.9020778993069114
H 0.4903282643044986 0.24142854402728606 1.7702698295769386
