12
## STRUCTURE-ID: 645668e9c522ed76151d80bb ; CHARGE = 0; SPIN = 1
O 0.17501375646087425 0.8352187172278887 0.7423488342281067
C -0.6924527625507545 -0.09623299851939522 1.387097863170658
H -0.9438318742116447 0.3438482699418662 2.3477363487325946
H -0.19640050813859047 -1.0560880560556096 1.5368118208691022
H -1.6046560865995236 -0.2422561823981293 0.8040252420875335
H -4.213530307025213 -0.5572107870466179 -2.6041432824604898
O 1.7225615143643096 -0.44831643772670743 -0.4316870826917228
C 0.5501716081113449 0.5310455391056064 -0.5095216139846229
H -0.20380780012772953 0.00243302741675269 -1.1031584304545312
H 2.0734363632121258 -0.6779504087989868 -1.3236582702029795
H 0.9064289414597706 1.4402570757106725 -0.9998869490703566
H 2.427067155045023 -0.07474775885734526 0.15403551977671137
