13
## STRUCTURE-ID: 64566e0db8a75848f12648be ; CHARGE = 0; SPIN = 1
Rh -1.5001423019502984 0.062015241088091075 0.053606077481521935
I -1.7462374583243174 -1.763223916382611 -1.8089141412871848
I -2.2245512395647205 -1.5240973445401755 2.0156597874904936
O -1.76048240506337 2.0944410865015404 2.2394776538884553
C -1.61882888179565 1.3453952934099962 1.4008136637425643
O -1.4413997749229261 1.892485054122374 -2.311171763616247
C -1.4128412697099064 1.2222200403475556 -1.3976925929709625
H 4.035057968337112 -2.407993457547294 -0.7805563701291296
I 4.190629030813938 -0.9879772041672606 -0.13084920620347634
C 0.6156156963440668 0.0448443458875613 0.1634790250745036
H 1.0161688865647152 0.9012414812204144 0.7039962769362014
H 1.0235388569782111 0.007722192089629521 -0.8473579623501241
H 0.8234728922931063 -0.8870728120298592 0.6995095519433704
