12
## STRUCTURE-ID: 64566798587a9427d91aaa1b ; CHARGE = 0; SPIN = 1
O -0.8853975863648472 0.11876496760472602 -2.6102503208591123
C -0.8559407264924769 -0.1618561650603883 1.1367698021872985
H -1.7832254290923164 -0.6090050511305793 0.7861833130978726
H -1.0280950713221422 0.889327110735959 1.3927865494826828
H -0.5045525910504346 -0.6932762321913969 2.0276491308575193
H -0.7923264333909072 -0.7652571677844027 -2.97399020813477
O 0.0759295392884123 -0.278906657569269 0.08319489169948706
C 1.339913035788247 0.2586542436860645 0.40802730959109706
H 1.7716177551484302 -0.2574907888652761 1.2722055084139912
H 1.2652178044996627 1.328401799831618 0.6317607887321822
H 1.9762897732161644 0.11099671072229325 -0.46150497042375954
H -0.5794300702277968 0.05964723002065444 -1.6928317946444784
