13
## STRUCTURE-ID: 64568a214e983e50d72a1570 ; CHARGE = -1; SPIN = 1
I -1.6394961846256915 -0.6397189559028202 -2.8635262081676993
O -0.5076173067996435 -0.6844536779056343 2.1966692964649535
C 1.8571659046564462 -2.295327428185837 0.16659669960478327
H 2.6921761562267132 -1.653158572290459 -0.047069163155872035
H 1.9920496011262252 -3.322151175878225 0.4477041485096442
H -0.6834486665968594 -1.367097084393264 2.8494128255001594
Rh -0.3701160029129218 0.7532110062856998 -0.9129754443026229
I 2.191504354598376 0.9889607664845785 -1.6500387901286098
I 0.033375508247429506 -1.5374633222535086 0.29537437696283836
O -1.8167203097674778 2.01581278632828 1.4192367307982432
C -1.2896813568741583 1.6829609978367734 0.42343371549029035
O -1.4222137416071665 3.578250825279585 -1.265014956972198
C -1.0369779556712526 2.480173834594857 -1.059803230603911
