18
## STRUCTURE-ID: 64568ced6a7c3f62da399e3a ; CHARGE = -1; SPIN = 1
I -1.9761761403069902 -0.7553853791417616 -0.30935474506005534
C -1.0248842568108478 2.967318393223249 -0.1283550868965726
H -1.8008830276256635 2.1329272965189805 -0.04583274999419648
H -0.8718002216660414 4.063548006770692 0.060575264641894264
H -1.6562447372483726 3.2485382345776923 -1.0155937319161377
O 2.4613413044712766 -2.5168720134880793 0.3079676295283556
C 0.2969345221875572 2.357492055579339 -0.6373403386768921
H -1.078693302856841 2.899945350356959 0.9951765573038965
H 0.16702169631410851 1.786165784262984 -1.555864374701121
H 1.0877388784267428 3.0921193703182865 -0.7693300036512049
H 2.540029146998709 -3.1852115528853724 0.9906919053545654
Rh 0.42428474872557637 -1.779632498158446 -0.06725067383799319
I 1.1821967066274859 -1.1174394161514498 -2.5983988231732034
I 1.2177911035458349 0.8525963407511926 0.8120396483003247
O 0.12571570348001943 -3.1056272462997887 2.646846897605087
C -0.011671626886315534 -2.8946222881740753 1.435006400030618
O -0.7764381125921938 -4.508595727312501 -0.35342792557901204
C -0.30626238478404577 -3.5372647107478725 0.23244415072164692
