12
## STRUCTURE-ID: 64568824aaa5943ccd4dd52d ; CHARGE = -1; SPIN = 1
Rh -0.5188037752979473 0.5267153348911845 0.23524882569427458
I -0.7788854113033636 2.076940864874633 -1.9486795941037576
I -3.0814663016152197 1.0046398587239673 1.0929653990623607
O -0.2806563290244947 -0.90858709171011 2.8471543170486817
C -0.340127873778562 -0.39554087424022916 1.8294398943815493
O -1.0001021691764695 -1.7571663514395182 -1.634401858875792
C -0.7118728206254438 -0.8941299984778045 -0.9301996800393294
I 0.6768152518111235 2.4559769722218436 1.7809514513095213
C 1.2367353392233462 -0.4735889775366306 -0.7396937545503345
H 1.946100536111011 0.2624989328448077 -0.3368780443615595
H 1.3340627297462517 -0.4382090667367872 -1.8244154946718993
H 1.5182008239297715 -1.459549603415357 -0.37149146089371077
