18
## STRUCTURE-ID: 64568a98f2067273325a8517 ; CHARGE = -1; SPIN = 1
I -1.958368704798525 -2.6867317957188943 0.042307664054373986
C 0.48507680177197177 0.7871543302529264 1.9413459658084562
H 1.5403692101250746 0.536819985169481 2.058778754124991
H -0.15943370789718003 -0.02132237171363232 2.2889276858589533
H 0.27218151377801536 1.6659648619198606 2.5515637769826864
O 1.3644982300296182 -0.14310387273434266 -2.3349879935692157
C 1.314279771911284 -1.944756586979244 -0.07250218611424342
H 1.4726894172267009 -2.9716597980351245 -0.3867643690949066
H 0.9405651911333751 -1.9050644284853 0.9452323695970615
H 2.214191265161912 -1.3539811050334138 -0.19378490775380366
H 1.4670818702670259 0.7151194058564445 -1.9185126926437657
Rh -1.5014129280430213 0.8181358475649273 -0.42562907003145634
I -2.715354515776224 2.4225184617936897 1.2728963447795827
I -0.12174118639347073 -1.0663333483806778 -1.4054059536518912
O -3.0495866311547184 1.3248179621551541 -2.8718965804625824
C -2.782822940481966 0.9175778735422706 -1.815115651608121
O 1.0389977764786245 1.736344723209583 -0.1826588385731527
C 0.17878956666152687 1.1684998556163053 0.5062056822970592
