12
## STRUCTURE-ID: 6456689f811ac655785eb020 ; CHARGE = 0; SPIN = 1
O -0.6932064985241105 0.586906641389417 -0.19174761294094034
C -1.6459898969901772 -0.15530616010880371 0.45636430408916046
H -1.5969480854977762 -0.010240992142862518 1.5484488416167568
H -1.5582276842501455 -1.2342778386936801 0.2467699151578877
H -2.6462578109874486 0.16681061901090485 0.13078292474367928
H 0.10098398609386108 0.000703376119129275 -1.2159440396249028
O 1.0483726490172809 -0.3339648281474174 -1.4823689511597304
C 1.2631414472104119 0.13326296002572294 0.4435798958147635
H 1.297118877603808 1.1990043916398339 0.5823433505576784
H 2.218417831098634 -0.3273317000095815 0.2306504205532154
H 0.7142892115951566 -0.40878328958978744 1.1946860263606118
H 1.4983059736305098 0.3832168205071297 -1.9435650751681857
