17
## STRUCTURE-ID: 64568ce22f03c175ba1aaa0a ; CHARGE = 0; SPIN = 1
C -1.027054115484567 2.699497786413155 0.4284000427528723
H -1.5468979629262782 2.812546718457947 1.3795993655087875
H -0.06770620078298124 3.2126127559250617 0.45395665683191516
H -1.617966803564973 3.148490982231668 -0.36902959755494463
O 2.0855608583011334 -1.514414724056926 1.8700482036155317
C -0.04949869570549113 -2.8368426162737634 0.7385604674734234
H 0.38246343250561793 -3.227586665350213 1.6515568977694963
H -0.24463062455107493 -3.6150779520476766 0.009114455772421754
H -0.9318785916734121 -2.2371370965418538 0.9409022203707162
H 2.8503054070777756 -0.947511999317673 1.9860362712621216
Rh 0.09108702505131301 0.3094733125122575 -1.3006798561153372
I 0.21366593428856245 -2.01508364283241 -2.7186412104062674
I 1.4482939204290957 -1.5301541905535634 -0.031954095490803316
O -1.2910915557365568 0.3234908921431196 0.751144738802863
C -0.8249765592733431 1.2563718296812738 0.11961969869193137
O 0.344021239339037 2.462281644135914 -3.377922233117852
C 0.18630329270614052 1.699042965473682 -2.5307120261668765
