12
## STRUCTURE-ID: 645666c414ca460a0b248ae0 ; CHARGE = 0; SPIN = 1
O -0.7304420036189836 0.5294298691791475 -0.20645704797977313
C -1.534332661277207 -0.00012985639403707011 0.7690179174439042
H -1.3096364011463117 0.43437097795378515 1.7572514578253897
H -1.4436611303231357 -1.096544853912222 0.8445802999630032
H -2.586003361794405 0.23139472793665544 0.543503288167687
H -0.11472962653700293 -0.3077888678571556 -1.1807579100651113
O 0.7811724336408521 -0.7055791968261209 -1.5240507703278676
C 1.3183209656733361 0.20713913374806023 0.16491394776181822
H 1.3402207335511929 1.2764041490726985 0.053682282877128805
H 2.2375524667485975 -0.2946777616767025 -0.10561595516015422
H 0.9262545508198178 -0.14761024998390107 1.102673250525878
H 1.1152840342632546 -0.12640807124020553 -2.2187407610319023
