12
## STRUCTURE-ID: 64566884d5e5d35d7b40860e ; CHARGE = 0; SPIN = 1
O -0.7736629060210524 0.2768641992726285 0.22881685560895304
C -1.2324933540386267 0.23297013166826705 -1.101467515571579
H -1.9912209412744335 1.0123488985848097 -1.1398927109495707
H -1.6615608505532986 -0.7432776358788824 -1.3406578312939699
H -0.43192612251820467 0.4505133170445765 -1.8145046971832735
H -4.044558006174329 -0.09368379147168776 3.1995209149931694
O 0.2987815325643786 -0.6412215905113329 0.4419115450893003
C 1.3855768521401475 0.01694494247797294 1.04115858085465
H 1.1195045985625303 0.38623278653843446 2.0351006187106444
H 1.74854045038028 0.8406949340677843 0.41999254952543785
H 2.1570336104286065 -0.7478980541630375 1.107883307579894
H 3.4259851365040115 -0.9904881376295361 -3.0778616173636473
