14
## STRUCTURE-ID: 64567b0692ab54797509292e ; CHARGE = 0; SPIN = 1
H -3.3857659386429306 -0.37437858757630016 -2.6973787273584895
I -4.312061566471561 -0.5969550868023143 -1.450949032408772
C -0.8030083017779978 0.0356707084359751 0.9011970170215773
H -0.7155632547071744 -0.2260217837365964 1.9542139771019962
H -1.4422934299596066 -0.6831311717422628 0.3895547779055433
H -1.2079739082702698 1.0450561607462288 0.788220854100858
O 1.1431304570550533 2.1788346715102653 -0.18502628215609543
Rh 1.0998937011515422 0.11393867768905999 -0.05483170791404139
I 0.012371424089687211 -0.025459738768239766 -2.42854400741599
I 2.860342713659903 2.0510925527365687 -1.0711088736190038
O 2.421254420673878 0.7136176497420782 2.5602313724218027
C 1.90964494540401 0.3858801020813688 1.6071509563401924
O 1.2228431280445513 -2.873229158549064 -0.2020927183086316
C 1.1971856097508153 -1.7449149957667556 -0.11063760571073351
