12
## STRUCTURE-ID: 64566b6dbd016c1dd167100b ; CHARGE = 0; SPIN = 1
O -5.194483237704841 -0.6093135062455305 -0.6284560595460577
C -0.14753548991094262 0.3481244188191631 -0.5598705430408538
H -0.3422120462705059 1.3921621747926003 -0.7435970811300642
H -0.05518821710330488 -0.2778906404052516 -1.4323453358055822
H -4.595449208746711 -0.43612745391533553 -1.3589677004039609
H -4.6509222216191315 -0.8521963336154037 0.12529459290505365
O 4.683026699947583 0.201400161532997 0.5894491954550181
C -0.029205574577564 -0.13462339871588458 0.6594815630331948
H 0.16827735947496547 -1.177805797625718 0.8440779583106688
H 5.461756121682906 0.28575303579131744 1.1458721453343594
H -0.11837215987545735 0.49122591197971976 1.5322880412917048
H 4.820307974702999 0.7692914276073 -0.1732267764034572
