21
## STRUCTURE-ID: 64568e32b0b5e27f8d2c50b7 ; CHARGE = -1; SPIN = 1
H -3.979219751902405 0.7856761751698521 0.9363807581722535
I -2.2657637231999845 0.6261381058332316 0.9084198710396126
O -1.7268572722926343 -2.4227249048360067 -0.09685859323505547
C -2.828188593100176 0.20343822199126962 -1.1547643044903937
H -1.9648624870112683 -0.22140041408835104 -1.6577474191570791
H -3.107109773892065 1.1439219942821703 -1.6149736324207127
H -3.645804022644302 -0.5043942366031559 -1.150562680383681
H -2.1606247984090716 -2.6958597667111373 0.7320180753197473
O -0.05885445796205107 0.9998975386344718 2.279229642448702
C 4.125648966059854 1.4272220424892643 0.006370457807761107
H 4.654858114878153 2.0392109641043272 0.7259594086024794
H 3.311923448736153 1.9794831193604243 -0.45281069459741197
H 4.795122764638308 1.0298342957275597 -0.7461005402339671
H 0.18449255419538968 1.9283206483331325 2.3142777559689507
Rh 0.3210243873808315 -0.17063907137655754 0.4621758561676199
I 3.2652917477909633 -0.264315727800025 1.0858264804087128
I 0.333268016075679 1.9525711391809486 -1.0621916645042846
O 0.7182098957656915 -1.8498897815872175 -2.031499709718383
C 0.36938748087816575 -1.4951566830268483 -0.9140114131895836
O 0.06868057185033842 -2.33675576381391 1.2905577502038832
C -0.41062306783556707 -2.154577895263455 0.14030459579077775
