10
## STRUCTURE-ID: 64567138cc16386f421aaa07 ; CHARGE = -1; SPIN = 1
H -1.0479402862809009 0.5953698558841198 1.3825619604243193
O -1.0570940435945884 -1.0763532395676618 -1.2636826535597951
H 1.5712798921799724 -0.8700802922492872 0.3700408669338828
H -1.4212353144760044 -1.0924716058508928 -2.1743408323287867
Rh 0.2605528791218353 -0.12040384153383593 0.8498087791547839
I -0.5486348738053831 -2.328024756214928 1.965296508908184
O -0.21732881189139394 0.9283448996235254 -1.7865800660765903
C -0.3730013309635299 0.03283067680399298 -0.9913511658319715
O 1.7110633313821098 2.458635002120489 0.8715669735990442
C 1.1223385583278889 1.4721533009844832 0.7766796287769225
