12
## STRUCTURE-ID: 64566a6717675153182b66bb ; CHARGE = 0; SPIN = 1
O -1.643552480470336 0.10725761011511087 -1.5323178450447512
C -0.5222267937535473 -0.2995650718883555 1.1253263416849517
H -1.2249045135446908 -0.17067222257516262 0.27248566080208964
H -0.9018399526874118 0.19205505482825588 2.015401946377812
H -0.36009127669287533 -1.361359573899878 1.293475822659092
H -1.953631196056314 1.0025304462299587 -1.709424152730916
O 0.6964391219332928 0.37409427958213515 0.7283900006958961
C 1.077117033518719 0.053633443700381055 -0.6323614980692325
H 1.4831300872955435 -0.951393090733029 -0.7115787067214838
H 1.791546101600862 0.8004598621846948 -0.9630313862528119
H 0.13135430651989768 0.11442170860439402 -1.2306873862710188
H 1.426659562336862 0.13853755385149005 1.344321202870376
