13
## STRUCTURE-ID: 64568cfb968fc61d4a3d7d83 ; CHARGE = -1; SPIN = 1
I -2.389086037158486 -1.1727262024371945 1.0350859831297607
C -0.5020316801150112 1.9122543095165705 0.4713938098735841
H 0.1258834810906476 2.798853722679397 0.5783908502997863
H -1.4968803978342435 2.201407276136883 0.12774386898960394
H -0.5868490639736409 1.4300122171589777 1.4581124516266584
O 0.7778257734818406 -2.444405768265934 0.3203167407473016
H 1.7340873034144826 -2.5161624004626657 0.43460217649626276
Rh 0.14555006026779166 -0.6274002299667327 0.3783547615517377
I 2.5913598519763887 0.13576026821848597 1.1647785050360218
O -0.7300506849090991 -2.5696214571423637 -1.985746682318019
C -0.3121186976381228 -1.5416920673341916 -1.7207970541742343
O 0.5057584487925544 1.348589083507561 -1.6751623803354057
C 0.13655164260489785 1.0451312483912099 -0.58707303092306
