17
## STRUCTURE-ID: 64568b351f7c0704a273b9dd ; CHARGE = 0; SPIN = 1
C -1.4245611069479367 0.630458940074441 0.7788114517390685
H -1.8090348159600607 1.6471099164563918 0.6658117050072709
H -1.4606142767281205 0.11814841531686333 -0.19171151975810025
H -2.0897007750087497 0.06689696172871629 1.431153268621949
O 1.216506654151612 -1.8448733611948709 -0.025836383810662573
C -0.1964670038015535 0.27475630629354886 -2.9706610091151404
H -0.38521593206163035 -0.7527329654886925 -2.6808049971989742
H 0.12935863560097507 0.33364544365363374 -4.002816905073406
H -1.057485521849212 0.9108358972056416 -2.798873638525284
H 1.364128294518689 -2.8145649453103396 -0.004879641850445322
Rh 0.7608493461424173 0.6276619714510642 0.8730964183424317
I 1.4445561208740707 1.0064606660158655 -1.738012970425445
I 3.239693710423836 1.0030390338736785 1.7113555710592612
O -0.7504804677091562 1.1573530819032385 3.37635433511315
C -0.28017920224266374 0.877518221842474 2.3635950371121623
O 0.5011682744986353 -1.9146112794106669 2.10757570148263
C 0.7974780660988391 -1.3271023044109962 1.1058435772795083
