12
## STRUCTURE-ID: 6456687f89f71b7ec27c7c40 ; CHARGE = 0; SPIN = 1
O -0.5392958246641526 -0.6880493576573501 0.30568814510742315
C -1.5781430304186057 0.13239073702023693 0.6607379363979328
H -1.240321637940003 1.0430665300672106 1.1827333590806235
H -2.2565714714206155 -0.40716931839174153 1.3382209507207277
H -2.1704637657545742 0.4372095599225775 -0.21805719136520224
H 0.7674906393370449 -0.47107403508640444 0.827183925022151
O 1.7379772720688265 -0.1702930826055317 0.6105189795715312
C 0.7639110594526562 0.20407589784444272 -1.0883233191887138
H 0.5480996959993696 -0.7008332305198653 -1.6275985943522218
H 1.7321847045305743 0.6372794501556229 -1.3000071086259688
H -0.019234719469041876 0.9427336898592995 -1.1009653059185895
H 2.2543670782785146 -0.9593368406084909 0.40986822355031666
