12
## STRUCTURE-ID: 645667837051d338b06cdb48 ; CHARGE = 0; SPIN = 1
O -0.8610955015806775 -0.7535454423834745 -0.3731226948201221
C -1.763293650266433 -0.15964162724894165 -1.284173083412943
H -1.4036660943272905 0.8504167112093484 -1.4704992064522038
H -2.771245758556512 -0.10623614051622665 -0.8637139994483728
H -1.7923930653135838 -0.7071910828604155 -2.229952153984164
H -1.137955837033107 -1.6627698882179052 -0.20699078194515103
O 1.8386106731433256 0.12199996078865875 0.05125427293523978
C 1.7393729179405981 0.5633943300487185 1.3851711772061264
H 1.470110929901536 -0.2565106087254233 2.058648262629889
H 0.9998848006133362 1.3635608627592322 1.4877319175682737
H 2.7192166852777824 0.9469628825323233 1.6672131868054998
H 0.9624539002010414 -0.20043995738589623 -0.22156689708211097
