18
## STRUCTURE-ID: 6456712e8c6d0e73db41e588 ; CHARGE = -1; SPIN = 1
I -2.8555762627378773 -1.0475980838149892 3.0970663557895572
C -2.7616521689589755 -1.5003842578572661 1.0070296687978766
H -1.8906321979611074 -1.000883151939639 0.5944307360349648
H -3.6674312675578915 -1.13549461707778 0.5422725857904585
H -2.668967188779561 -2.573137581914243 0.90127368893731
O 1.7129809209216798 2.0213588544833616 -0.009228148918447567
C 1.3869303604605907 0.8466573878811746 -3.0046337579405415
H 2.068976269541658 0.07365140934724151 -3.3362512993091404
H 1.8480362407690936 1.4666762127220352 -2.242709027979428
H 1.0096880133857324 1.4371632796115292 -3.828999969734421
H 1.2936972858042122 2.8278443139779688 0.2963066912539377
Rh 1.1333993695590445 0.19905570330030295 0.7905203936706534
I 3.299720836890117 -0.9120050155003223 -0.22327832162436623
I -0.2836943894015334 -0.11930018431874839 -2.068366381408405
O -0.7670915611770235 2.0294843486174154 2.169722699357762
C -0.10054128942867861 1.222079971272299 1.6827651058193083
O 0.5145677236883781 -2.425642436946597 2.0702079270508325
C 0.7275893049812473 -1.4095261518453768 1.5618710544118792
