12
## STRUCTURE-ID: 645664add6e0ca1b701aaa1b ; CHARGE = 0; SPIN = 1
O -0.5614033224326445 0.4731772347519822 0.7927476594545703
C -1.1436596656163525 -0.09289625371581414 -0.4076963239032463
H -1.95851639743736 0.5513957748544625 -0.7200421596676664
H -1.4788021222135066 -1.1142139395462571 -0.24907840954954905
H -0.31634807576786617 -0.09191134649536666 -1.176216580637385
H -1.1594792012614916 0.32415641214990526 1.5600532787793655
O 1.2708044542205708 -0.09020521302478585 -1.889686765871621
C 0.7430441366680767 -0.08230600816441315 1.0795283305360701
H 1.2262250279114821 0.559318566347267 1.8106832844060106
H 1.296109107700958 -0.06825933606003541 0.1257416785169151
H 0.6752468127261608 -1.10884081118304 1.4332439252067304
H 1.4067792455019748 0.740584920086094 -2.3592779172702
