12
## STRUCTURE-ID: 6456672e716971049d3dae5b ; CHARGE = 0; SPIN = 1
O -1.200685707268774 -2.339761135917426 -0.824941002007205
C -0.5182012050205436 0.8721015044317331 1.0101342260672486
H -1.1807879777204815 0.28505212529813806 1.6416689278623993
H -1.110782377851531 1.5435938892406071 0.3791957226066744
H 0.15274451327223526 1.4700412543057344 1.6361650665385357
H -0.8386407400152539 -3.058961442005286 -0.3017320867497287
O 0.21305554514881964 -0.044335913922387435 0.224295907537543
C 1.1302457953260432 0.5878110583212216 -0.6424561032704038
H 0.6131042934375929 1.2524742353263718 -1.3431083514793682
H 1.6358992250965085 -0.20145865455852402 -1.1936718372332733
H 1.8645652922567266 1.169369228358113 -0.0748601205151662
H -0.7605166566613023 -1.5359261488782712 -0.5106903493572684
