12
## STRUCTURE-ID: 64566952ef3ae2395361a6e0 ; CHARGE = 0; SPIN = 1
O -0.8376549831224022 0.39653087324501946 0.021512052161718084
C -1.3857314592428525 -0.5456921809271637 0.852286162673625
H -1.1028986423995046 -1.5741478537648563 0.572377324688673
H -2.483049018003223 -0.4789894078737799 0.8092446362248282
H -1.0905399512469771 -0.37950647308078467 1.901764131495931
H -0.22086890561254152 0.012028925527227622 -1.2034257774192085
O 0.6768111631928962 -0.07973416080131578 -1.7181750388712798
C 1.2664943503576218 0.438416996216097 0.11354448992512087
H 1.0801386143544092 1.4803360879854928 0.3030606346918969
H 2.215249360639956 0.22646507763078502 -0.3608633362351789
H 1.0770869317632235 -0.21890188936940952 0.9449712992120012
H 0.8049625393193964 0.7231940052127527 -2.2362965785481395
