12
## STRUCTURE-ID: 645667276b9a3050fc3eadd0 ; CHARGE = 0; SPIN = 1
O -0.948032229251516 0.1810528631107162 -0.5080092614454251
C -1.6879400527542285 0.02699026596462075 0.6895813449865353
H -1.3373703801214105 0.7895380000551633 1.3814817835646822
H -1.5304807552030577 -0.9574800327542238 1.1353353187006368
H -2.7529305736298477 0.17679679533420006 0.5030198536384184
H -1.2365911357399104 -0.49315549163368233 -1.1408401325434792
O 1.506130703319333 -0.20023479236502187 -1.3992045861226097
C 1.2257378852115854 -0.042400223580087125 -0.16988202540794448
H 1.1035722591982757 0.9226329480761639 0.2935761409059485
H 2.9760548457186875 -0.09582231201507088 0.7161951259177078
H 0.9689484781148602 -0.9283132929039808 0.38742764608935065
H 1.71290095513723 0.6203952727111959 -1.8886812082838293
