12
## STRUCTURE-ID: 6456674a83fba732512eaac1 ; CHARGE = 0; SPIN = 1
O -0.40723444481594534 0.14840548343895602 -3.0900646999580506
C -1.4211400704464638 -0.4575690010238349 1.9464504701888263
H -1.0662022565532054 -0.0010181691467338462 2.8611924245230185
H -1.6577303660777338 -1.4973252560968913 2.130770444172759
H -2.3092862120700044 0.05959139258071336 1.6075236312838095
H -1.240715578544814 -0.3049586034109054 -2.9418577719358696
O 1.1102139689613062 0.08027118916933093 -0.5658837710119968
C 2.1783659408919602 0.5875881831790002 -0.36113196528368163
H -0.6536348472841472 -0.3913442550242801 1.186482393288118
H 2.700867923153471 1.177846757669252 -1.125921903696728
H 2.6938934339880984 0.4901145380890612 0.6037058299414815
H 0.07260250879748217 0.10839774057633031 -2.2512650815116886
