12
## STRUCTURE-ID: 645667a123fd791c3776345b ; CHARGE = 0; SPIN = 1
O -0.652600189374064 0.8002826450271439 -0.6429980442337738
C -1.5914641105184588 0.20916712060641995 -1.517560519414012
H -1.700078768426765 0.7917714259496219 -2.436158546337766
H -2.5676964886321416 0.10152105424325561 -1.036198182290402
H -1.2091855997920586 -0.7785185341958267 -1.768375352824523
H -0.9493797819996013 1.690832814071898 -0.4200425911318428
O 1.5786393709919393 -0.7702245786623872 0.2692336950603396
C 1.5488295691832474 -0.4961059308412026 1.650764192860941
H 1.7736084154633576 0.5559331102571065 1.8539302106900744
H 2.3143390050533594 -1.1172314043479614 2.1147908612204804
H 0.5754140887216574 -0.7432945199911949 2.085980520867385
H 0.8795744893295371 -0.24413320211687523 -0.15336624446690514
