13
## STRUCTURE-ID: 645689316f128074ff7c7c40 ; CHARGE = -1; SPIN = 1
I 0.778412254052923 2.4468081814478126 -1.4161564108857025
O -2.749649505829119 1.3072754668722337 1.2711980575714934
C -0.9464888922296922 -0.4857852960046116 0.136177585179272
H -1.571582801500593 -1.236656545065493 0.6167658200914173
H -1.5617215472421115 0.0011529059536301055 -0.628724489179878
H -3.048559475643588 2.152748379463348 1.6134678156394446
Rh 1.1288820632048608 -0.08505856737724429 -0.7164375919267703
I 2.002855541299685 0.3359068964835405 2.190870482236809
I -0.7647561549036991 0.9987826892441647 1.6491429111505376
O -0.05711642485816813 -2.8542219149642323 -0.49582103282084455
C 0.3485324486759165 -1.7508080897137324 -0.4877743839637068
O 3.7211827441060707 -0.47919875704768383 -2.1471768267011395
C 2.720009750867479 -0.35094534929178384 -1.5855319363909288
