12
## STRUCTURE-ID: 645666d456325a6e1d28a81e ; CHARGE = 0; SPIN = 1
O -1.5524793735415756 -0.36421073053962166 -0.30456571495052104
C -2.150931136876469 0.6766622534960941 0.5106533316289807
H -3.2266306476655906 0.6541735416148948 0.35566194536688367
H -1.7498387667312671 1.6573723648950704 0.26350496219958136
H -1.9323381121261562 0.4420841254744534 1.5492949778041887
H -1.7683565163198744 -0.21519968549164242 -1.2499093461484434
O 0.98968095648815 0.09267701635584098 0.14503562937943607
C 2.017382827098434 -0.40415712499523565 0.5239008359362214
H 4.8832594326196075 -0.9141519301249827 -3.036974750337417
H 2.1183305251296454 -1.4821104881463574 0.6986153840189103
H 2.9143048824266415 0.19233635843194036 0.7163732052864523
H -0.5423840705015136 -0.33547570097043 -0.17159046018430033
