12
## STRUCTURE-ID: 64566b7daa3bc756f35c71b0 ; CHARGE = 0; SPIN = 1
O -0.8029887574301081 -0.31113768473454684 -0.3396265113183445
C -1.562891524330073 0.19351189091780094 0.6830723578539798
H -1.2631985822281069 1.2152077656043192 0.9702033116661447
H -1.510455416330102 -0.44687464427073265 1.579290754007678
H -2.617630356684331 0.23158844184544097 0.3722922053441632
H 0.05265714515728359 0.5371135239597602 -1.1020293105265628
O 1.0374089053047608 0.7877030711500561 -1.315306549058963
C 1.2283352571530377 -0.5160232287319542 0.17971124836061445
H 2.2497670134569256 -0.18027860824178035 0.06097861564938866
H 1.0447568243525818 -1.5233584540253318 -0.14859513315137368
H 0.8348239617915931 -0.2725284413716246 1.1518045055613764
H 1.3094155297865446 0.28507636789859736 -2.0917954943881094
