17
## STRUCTURE-ID: 64568ea5ea21e75bd76aac68 ; CHARGE = 0; SPIN = 1
C -2.306389234102669 1.9832556535852168 0.007183222988718401
H -1.9612600327576013 2.950393411996738 0.38074809009504895
H -2.6168804459958266 1.3477428828802265 0.8713758321168565
H -3.1782272700134326 2.130257291404839 -0.6382891938134209
O -0.02264701372348134 -1.809358653868604 0.34879199974855907
C 3.143289022053364 -1.4586440243366627 -0.10190320520259437
H 3.6092828433118638 -2.189938968639727 -0.7490789982376156
H 2.348781695350812 -1.9048335108100152 0.483222995595589
H 3.875296072004199 -0.9719097798549409 0.529126202260722
H -0.4215065808506967 -2.4841133641047537 -0.21764202805637545
Rh -1.125382734364235 -0.22993389567876715 0.3400231667566697
I -2.963532744603185 -1.4082603326767518 -1.0386405726126045
I 2.2360499109108383 0.03925844720556054 -1.3461907211861166
O 1.0689557648825256 0.5782705303579552 2.2125022324970596
C 0.1877592835929722 0.41786312429910244 1.5143301613937994
O -0.6506037291452914 1.6459370882988202 -1.790230798738821
C -1.2229848065501674 1.3640140999417094 -0.8053283856055232
