16
## STRUCTURE-ID: 64568cdbac71e03b8a37418a ; CHARGE = 0; SPIN = 1
H -1.6329397997926112 -1.7772517889305595 0.2525968606082399
I -1.0002200356368878 -0.3017621312510596 -0.07318163164767692
O 1.1461246583743907 1.7089036970036007 2.2134025568784073
C -2.9370685190965697 0.18919392730560708 -0.9083861064529885
H -3.1400832264788754 -0.4962777762884135 -1.7243738864764977
H -2.8352735259943365 1.2072943722309193 -1.2665676230484946
H -3.6780218958141893 0.12418888692815067 -0.11903556506041299
H 1.231692114468415 1.1156185748397491 2.9930760180897797
H 2.3066043738956363 -3.5987973838017036 -0.9815619659326843
Rh 1.9608686461899743 -0.35786973986387216 0.10566848963589151
I 2.4705500837339067 -2.19385863836371 -1.729391942378321
I 1.3838783126049672 -2.0110308102166994 2.023175459149765
O 2.0846218829458376 1.5106894292621473 -1.116199611072769
C 1.504279402804891 1.1792714371814907 1.08870446620892
O -0.03295037737076596 2.003937081203307 -0.5042491492578209
C 1.1679379051662082 1.6977508627610391 -0.25367636924333614
