18
## STRUCTURE-ID: 64568bc44e578a01286cdb3d ; CHARGE = -1; SPIN = 1
I -0.9322687968801353 3.0946932879016984 1.3615266867444455
C -1.7937407196562993 -0.3379738510706487 1.7297864903763283
H -2.3497438271793767 0.26938854049621486 2.44500245924379
H -1.7068974105629469 -1.3560437494669484 2.1113190389639223
H -2.391003762900667 -0.3744159578973667 0.8089506498574364
O 0.8103941247980754 -1.62015514220221 -0.88934920680073
C 0.8448937024565453 0.8196842223856322 -3.217767151014935
H 1.4328757446491627 -0.0535270003380912 -2.9607158837885827
H 1.4043034617467904 1.7294547151315478 -3.0287112023003426
H 0.47521911624015395 0.7771862736792711 -4.235221908721031
H 1.1411176942400405 -2.5342488678184023 -1.0038350817682364
Rh -0.017557921729523314 0.5391003260699986 0.7375229061839661
I -0.8815883634750453 0.831278968248393 -1.9046980663608097
I 2.500413384082516 1.3087558251592708 0.1674309304482603
O 0.06614557384115585 0.11964419591807082 3.6748485652142255
C -0.051801662376210776 0.23124931967686926 2.5294377669369825
O 0.831466576441297 -2.1341739464443696 1.2734033113431953
C 0.6177730862644479 -1.3098971594289237 0.4010696954420948
