34
## STRUCTURE-ID: 6456d33da30b17582a6dc163 ; CHARGE = -2; SPIN = 1
I -4.241129350670417 -3.3197366530356245 1.1337425194961104
C -5.748121804367096 -4.532737595788945 0.024435436817844127
H -6.6930901502252 -3.998251333472234 0.06643103908143375
H -5.803052713039097 -5.484687924666992 0.5446841145896241
H -5.37789679304055 -4.657126751008464 -0.9904162390623008
H -6.791417391194052 -2.0667265816488354 -2.1155616571377562
Rh -3.26899351814884 -1.4133916878462522 -0.42487594555130564
I -6.401675791724246 -0.820728486580592 -1.2072796180267689
I -3.123496684211411 -2.978693645371517 -2.5042275884946164
O -1.8174401933075361 0.7568218429835131 -1.8721018762970658
C -2.3815996216068465 -0.10901578579951723 -1.3463618092271032
O -3.398021786534065 0.728980677424563 1.650644054561396
C -3.3797960693990277 -0.15797019962054043 0.9201945450631113
O 5.193167330330762 2.8967006804900093 1.836851846418618
C 5.073020251453003 -0.45994398622448573 0.5333601182219385
H 5.885925755002219 0.06209558704771683 1.0251715027347146
H 4.875644405591204 -0.034439584391780215 -0.4459385196259373
H 5.2478520056594835 -1.528388122787662 0.4786808527320223
H 4.925878469855799 2.577863487727285 2.716491383534334
Rh 0.8158542384785941 -0.09311137786718897 0.019633585446923545
I -0.24284827417320196 -2.343124184760579 0.8888756605694416
I 3.2847331926538352 -0.14287564435720237 1.6936680355069338
O 2.8754628538291134 1.3441109381458187 -1.3440228448805733
C 1.748607128164747 1.4524720748287825 -0.8198200518338912
O 0.8105023166343444 -0.5151956021345875 -2.9242054591875974
C 0.818339165033418 -0.49040228034941064 -1.75282941655657
O 0.9718194861522144 2.5302473871951388 -1.2514257493426926
H 1.4822052290195749 3.060037678125787 -1.8894826930289415
Rh 2.3600849291608674 2.3436806126707057 1.4202458485278857
I -0.08678825659823124 1.4378327966995357 2.1102100756334163
O 4.425552807379162 3.522690165234808 -0.1318222515173978
C 4.145194538116413 3.0157052384429166 0.942838994206597
O 1.8163685660633524 5.280979754664254 1.480315702826316
C 1.9991557296620917 4.136328506031666 1.53389640380163
