13
## STRUCTURE-ID: 64568b36100f7701ba4975a4 ; CHARGE = -1; SPIN = 1
I -2.706421930644461 -1.5107714844430329 0.10512895547952336
O 0.5104869097287095 0.08310619444018473 -1.9161885811067978
C -1.3291121250710474 0.01867531491072672 -0.40819795237780415
H -1.1603750626745462 0.6113216604885249 0.5584378843236356
H -1.7603260977839128 0.6875572034291533 -1.1502820451980473
H 1.2510117809865764 -0.41323279632378734 -2.307808620578296
Rh 0.5358817173392341 0.788037422151475 0.8360550463983321
I 3.0214485322864193 1.2190880055375923 1.5169371526295816
I 0.18077602045362876 3.103433046206718 -0.31143202484462706
O 0.30189275261505677 -1.7515647840051825 -0.6317930054954145
C -0.03887056313152781 -0.596760018097103 -0.8812473390452896
O 0.6030412554772392 -1.5665883952612403 2.6559277156098795
C 0.5905668104186212 -0.6723013690340249 1.9344628142053204
