19
## STRUCTURE-ID: 64568e228a92de56fb67f9bd ; CHARGE = -1; SPIN = 1
O -2.7405423814764434 0.3258278354150894 1.3807837423391007
C -1.8085421077183628 -0.9848300083313475 -1.1379570419563876
H -2.401391789238165 -1.9015189841258524 -1.159140971617182
H -2.3273200553743303 -0.3153791407629722 -0.43878751685501277
H -1.8007875964368663 -0.543750518386845 -2.133518701233477
H -3.301725361381357 1.01061511080897 1.7428230543448382
O 1.53214920708493 1.184113077386251 -0.9802211683227505
C 1.6495230312210951 1.5844116556892691 2.250904420349298
H 2.2763799381704573 1.5529426464200242 1.370725959080982
H 2.045259879109068 0.9178052976647252 3.007134742762249
H 1.5960360237212057 2.5939397384418674 2.6372926741569094
H 1.9736179447125388 1.756768464219925 -1.6437773244905363
Rh 0.08507153031999136 -0.936474988808095 -0.10373011370009835
I -0.41317792491104044 0.9435459409680574 1.7253582090260948
I 2.303326005927792 -1.767480087717083 1.039150913439888
O -0.28995353695286297 -3.1724503286150623 -2.0414250623141124
C -0.19137634790655905 -2.2849837791085874 -1.3120510032349233
O 0.8931739833143701 -0.1034347075002024 -2.692921452927336
C 0.9202795578146495 0.14033277634194458 -1.5106433588475658
