13
## STRUCTURE-ID: 645688808bf1b345512abdcd ; CHARGE = 0; SPIN = 1
I 0.5958507291321624 2.4704401967136023 -1.404341779201807
C -1.596123517204877 0.3453728315219906 0.41809683599864106
H -2.066320565205263 1.0746024699541483 -0.2429222189446846
H -1.8020924690543068 0.5905257188785321 1.4589154375005506
H -2.087377337225947 -0.6232846440873757 0.21830023362897394
H 2.5236200451559174 -1.6619315662200558 -2.665062871568586
Rh 0.31526437630020443 -0.5059404914491109 -0.21780232794840246
I 2.772338119880538 -1.3739521603681375 -1.1202014489778909
I -0.7911980637047167 -1.2153230211315165 -2.5169953457902303
O 0.2624862818410769 1.8833187446233914 1.5004756352672493
C 0.1093012919530224 1.3040943251400723 0.4848872705645531
O 0.9872860223114313 -1.324906719519965 2.5727458126797074
C 0.7769650858206038 -0.9630156840555061 1.5139047667918568
