12
## STRUCTURE-ID: 6456687d459e1f0abc64e480 ; CHARGE = 0; SPIN = 1
O -0.8239546535889298 -0.5842613718619916 0.3228406415057109
C -1.7019043553537931 0.3907126440633372 -0.2180252070092588
H -1.6930332854814503 1.3122676117328713 0.36338092979748093
H -2.705174798198671 -0.04210429704739205 -0.22006023403819197
H -1.3845097344925035 0.5936842377677437 -1.2390862045534454
H -1.0401558700209301 -0.7506232740070791 1.2644513711298375
O 0.7517757440122705 0.09829655930345245 0.6009684885197019
C 1.5250359668409725 -0.431168082107543 -0.4232010608997059
H 1.0888378732539643 -1.3917398488970898 -0.717905543822443
H 2.521253097179953 -0.6557171106572193 -0.04043130265786147
H 1.5931996121567802 0.24686949331652805 -1.2787176923566759
H 1.868630403692342 1.2137834383943773 1.5857858143848516
