21
## STRUCTURE-ID: 645676884b8de25d274609f1 ; CHARGE = -1; SPIN = 1
H -2.2100958546971103 1.3775741699632562 -0.7831048696709761
I -1.0068987857925882 0.7961704495236441 2.1995069029886634
O -1.849325884783491 1.1060576936050712 -1.6315403342217412
C -2.7892749505909147 -2.1910940521765596 -0.8631505391246941
H -2.779029613326848 -1.224068864544012 -1.3476775419099327
H -2.480066916437046 -2.9592632128900913 -1.559011756535274
H -3.7847556469504338 -2.4045826411782145 -0.49826434117988966
H -2.0056416008664564 1.8268882150564538 -2.248863369715881
O 1.9430964525261263 2.8910009993974115 1.0973313589885934
C 0.5467595014020333 -0.7927572041510618 -2.0988592005689184
H -2.1039740727147684 -2.174953481687603 -0.024594120175478327
H 1.2638860454987186 -1.4701888972904484 -2.5190033952800337
H -0.5116085818945721 -0.9500354600958403 -2.1723178872848776
H 2.152166663382753 3.7968764590534425 1.4052680935513844
Rh 1.4757724696943622 0.12889723117514945 1.6614113460763777
I 1.1935953672066988 0.7510914810082402 -0.9759573381248859
I 1.0467744649459523 -2.5364586119108825 1.7371867139026682
O 4.438727825751004 -0.16855629127825972 1.6924544453049184
C 3.2883283074465703 -0.10549961259740076 1.6057844058978443
O 2.2323875693988184 2.311608574799794 3.2339014463720126
C 1.939177240801134 1.9912930562179432 2.089499980710274
