12
## STRUCTURE-ID: 6456676b06f25b48335ede0e ; CHARGE = 0; SPIN = 1
O -0.4840868461602661 -0.36541559016833136 0.6619731466405411
C -1.7964218076486602 -0.06485380719318858 1.0724228461090368
H -2.463176530985543 -0.7821903004905744 0.585894130993281
H -2.0965411133424268 0.9545988748790808 0.823604624709744
H -1.8428299737729548 -0.24683948275381454 2.1501935519070385
H -2.870299480064184 0.8673365898240737 -3.405512463913015
O 3.0371624610018886 -0.6173687246475104 -0.3806382857559253
C 0.2667587315408596 0.4189573041161669 0.09086162853086918
H -0.02181267218222184 1.440814599613794 -0.17019626273590316
H 3.228641274794233 -1.5484535156814587 -0.5187048934693399
H 1.2819647339885365 0.05899485713906589 -0.14644731964398883
H 3.760641222830748 -0.11558080463730754 -0.7634507033723232
