18
## STRUCTURE-ID: 645670086454a40e356cdb40 ; CHARGE = -1; SPIN = 1
I -4.102190940049262 -0.1012376351939795 2.05094690984331
C -2.961298911188041 -1.160504636088903 0.5946913696729591
H -1.909569114686879 -1.0162518444648858 0.823947112135396
H -3.191136080608652 -0.7509392742949917 -0.38087516080224365
H -3.224474982087309 -2.2080890605976227 0.6548648932320036
O 2.0315620683670224 1.2980976687840307 0.7782953133359963
C 1.1580155459375592 2.0134266530266642 -2.2518288832870197
H 1.7168754716137729 1.4840536654429033 -3.0139443667602563
H 1.750587389902882 2.1382522760244598 -1.351849382281864
H 0.7744575433600198 2.9587910696008763 -2.611357704324754
H 2.8508090388498455 1.3094245452626005 1.2789025497264666
Rh 1.2180322630907308 -0.6249944917980681 0.46983327813778397
I 3.0238718687058923 -1.2709534194186756 -1.3354905016825502
I -0.51573308010423 0.7860521938994406 -1.7044342788477207
O 0.3137848517931398 0.704926533570802 2.9887482082350605
C 0.5501397439578017 0.09668716208423575 2.0369163770118277
O 0.0369746523125109 -3.3635005950113355 0.5064747210362365
C 0.47929267083318866 -2.2932408108275504 0.46615954561935646
