12
## STRUCTURE-ID: 645669ae53179a2af822414b ; CHARGE = 0; SPIN = 1
O -0.5671591913865771 0.2914209985568489 -2.248939376040292
C -0.6117343351875038 -0.07309855370580959 1.3260919504277218
H -0.9057355063275362 -1.1050548230016715 1.5016586505062854
H -1.2231112990367663 0.33318505777085905 0.5232192571321611
H -0.7836994898064189 0.5032870076831779 2.230432969125379
H -0.9516850490569337 -0.35600092126977556 -2.846495408289637
O 1.153013299992872 -0.7410471537152995 -0.22919587529085522
C 0.8612752931513513 -0.0060477374856776 0.9379777738515696
H -0.16799547129071024 0.9765978642306054 -2.792846253097979
H 1.1615627085935016 1.0447220631596839 0.8037646855021038
H 1.483329367799456 -0.4403838727552728 1.7264709214185199
H 0.5519396725552654 -0.4275799294676796 -0.9321392952449754
