18
## STRUCTURE-ID: 645671ebda8ba94d2f333bec ; CHARGE = -1; SPIN = 1
I -1.1296905227419958 -1.2181964384659847 -2.4245984523502573
C -1.1013958994527844 3.0378803158750327 -2.069510154957461
H -1.9330425350587486 3.6036085968041434 -1.680494053548943
H -1.3968162899383685 2.3379660022486295 -2.840518947091314
H -0.26233424143535333 3.661929787126982 -2.3460625278224283
O 0.34155626165300307 -3.0915638017759246 0.17432592176420797
C -0.8786220735615402 1.9640946192476456 -0.07355901848611714
H -1.8756195035444356 1.5415158882681124 -0.09531189182002918
H -0.6114541836027634 2.3064322807390987 -1.2252515149750571
H -0.8092081629865594 2.8376895200672685 0.5634699697599154
H -0.5005619269037218 -2.087872223102844 -1.299653894114475
Rh 1.2560305258080586 -1.7100505278923515 2.375265976498303
I -0.7565254196975745 -1.7898772833490981 3.9546191605810277
I 0.5363924763052459 0.26857675335654013 0.8536823694922602
O 1.2424163564783843 -4.32056053152471 1.8440292485917942
C 0.8991808326557751 -3.3123324600913713 1.24346976408276
O 4.017357617412467 -2.1693647451562987 1.3282954450766267
C 2.96233668861091 -1.8598757523748684 1.717802599319189
