21
## STRUCTURE-ID: 64568e0a6fd4575b88230d73 ; CHARGE = -1; SPIN = 1
H -0.40843813496013265 1.7141681514427802 0.1497431566298957
I -1.631437447745679 0.8412169580438964 0.8564559404565109
O -1.3888015202187889 0.6224354848184117 -1.381009127869571
C -3.277124391226886 -0.5710872731752851 0.48563105813751345
H -3.9710255028129096 -0.11703315946634794 -0.2099190504159616
H -3.7219611277107902 -0.713852945954243 1.4648944351026711
H -2.8628247777961717 -1.4958483065296562 0.10227724992718545
H -1.9877068198134733 0.13802364985357268 -1.9514458027111588
O 1.453800008547534 -0.10620773180856509 -3.306963882755623
C 1.066510111935729 -0.33807735761183594 3.284626207826711
H 0.26987696485098767 0.38937619255780714 3.4034076874938486
H 1.6809022289991764 -0.4167113724021807 4.173367520199546
H 0.6683261319677999 -1.3041615658275192 2.992292381853244
H 1.9044041315853877 -0.8649872436520954 -3.7185954716569456
Rh 0.8575867779262876 -0.015851696356069724 -0.5687642827003944
I 0.10741447825248626 -2.5136913647603443 -0.01931261589905228
I 2.373054090743513 0.36544803483324617 1.6603298239884126
O 3.3584776128875373 -0.10990216412155407 -2.0695486335668245
C 2.226943688094495 0.3685918735437083 -2.268743171757806
O 1.6736934232120417 2.6723676115510857 -1.5853701752933471
C 1.6083300732819052 1.4557842250211017 -1.4933532469888728
