12
## STRUCTURE-ID: 645664960b062663ef0876f8 ; CHARGE = 0; SPIN = 1
O -1.2197700218408942 -0.450222074008207 -1.5048698841972368
C -0.9523635832566724 -0.6817567449509118 -0.22804974439541822
H -2.8405643835505527 3.9449391865713714 0.4119839509131456
H -1.4941152186416566 -0.1052204387089617 0.5239131145990877
H -0.9065541942708604 -1.7543684209692376 -0.03111849330463768
H -1.5403951660772957 0.4460157814768949 -1.6955195704961759
O 1.8064852058845582 -0.4207616642879431 1.3996184374792155
C 1.4556899587716978 0.01093634326580927 0.2011203708779928
H 0.24080989039649145 -0.3170962093461508 -0.002979822406205779
H 1.9452730191818188 -0.43027686647722724 -0.6704054094435866
H 1.3810297335563486 1.099353576070876 0.17477070484196325
H 2.12447475984703 -1.3415424686363389 1.42153634553184
