12
## STRUCTURE-ID: 645688300be922589b3288b3 ; CHARGE = -1; SPIN = 1
Rh -0.4506612460023487 0.5735387299464558 0.06677031091447908
I -0.38991021140346455 1.9023677444467215 -2.2657236801200664
I -3.0229480369751314 1.3773504591591463 0.6926549352452737
O 0.06147557684392804 -2.0828532196642144 1.4186385395184944
C -0.35695941917856383 -1.114230460732274 0.9070555669577923
O -2.286246041574719 -1.7874039100056256 -0.5660075624311341
C -1.4807530753640519 -0.9932761435642872 -0.2564672479183323
I 0.6009332328800716 2.4151902814063497 1.7225669408171023
C 1.5656830719723542 -0.0026738368452324853 -0.3629325329418097
H 2.1186219730967197 0.8686935872123696 -0.7171351638034927
H 1.559854772485978 -0.7582817433197396 -1.153543898821804
H 2.0809094032192275 -0.3984214880396674 0.5141237925834976
