12
## STRUCTURE-ID: 64566b3c7122314e352c50c3 ; CHARGE = 0; SPIN = 1
O -1.9869359910618691 -0.30353410241360734 -0.5758096406600869
C -1.4322481918338485 0.3078220623801605 0.436139236004255
H -0.24053960623464574 0.24798074034601372 0.20388851991157783
H -1.5382324835388654 -0.19338212594715248 1.4085819368568606
H -1.62634188148122 1.3872534833807948 0.5006705772146428
H -0.9272770326215516 -0.7382146520400132 -1.4359757984104855
O 1.6205150733837874 0.08892729169852057 1.0917186129138337
C 1.2192957003551486 0.11751542881178918 -0.2295749858326145
H 1.7872961485394234 -0.5932305345558597 -0.8224794489221112
H 1.2927202413218017 1.127416613905527 -0.6198215376101012
H -0.012243046873563644 -0.6392005030166901 -1.3282471936882534
H 1.8439910700453828 -0.809353702549588 1.3709097222225695
