13
## STRUCTURE-ID: 64568c9389339a09e112b090 ; CHARGE = -1; SPIN = 3
I -1.667639724049804 -0.19944738917514676 0.9589924706468755
C -2.954497113443628 -0.034014106901803155 -0.8032410905398325
H -2.741201669920058 0.9233226857470677 -1.2690936763864902
H -3.9776263126990847 -0.09129036828165674 -0.4472113941706824
H -2.708761620470612 -0.8595112376039842 -1.4640661865350555
O 3.6221791491692406 -0.4729758697401903 0.39490426249988586
Rh 0.8609186026120101 0.006161046226547431 -0.11350934311119673
I 0.4230040806054175 2.1860821770234082 -1.5791355518927608
I 0.602013752384702 -1.907193181610444 -1.8654181074622769
O 2.191766131868354 -1.5293615006501156 1.809545447621608
C 2.6158115906364983 -0.7036898871250994 1.0303161333815791
O 2.0543021436517264 1.723561202005304 2.0723216153667727
C 1.6797309896552408 0.9583564300861713 1.2755954205815505
