12
## STRUCTURE-ID: 645667ef7e9767367e40f1fb ; CHARGE = 0; SPIN = 1
O -0.7452509478586589 2.2924155208853145 -1.3554573921385147
C -0.46640947928453114 -0.4193479796175958 1.3117773052957404
H -0.5441938815298991 -1.4848339402641704 1.5534160366473342
H -1.419677399776222 0.06863283913570406 1.5000184593595633
H 0.308916204046262 0.033169500965114604 1.9398181260511476
H -1.5184771766463057 2.0799841066542837 -1.8840788814721827
O -0.1793374643661282 -0.23599305999099543 -0.05784146468980765
C 1.0359319446771393 -0.8389669433521059 -0.4471103199722848
H 1.152773403308342 -0.6505255210100302 -1.5116649111885325
H 1.0102313989611047 -1.9185414294447878 -0.26432732189653024
H 1.8814648144219859 -0.4048847553543001 0.09764626203721635
H -0.5159714159531066 1.4788916613935503 -0.8821958980331284
