8
## STRUCTURE-ID: 645663cd8101152ec6293428 ; CHARGE = 0; SPIN = 1
H -5.547218454159712 2.0604263970719496 3.968837683804729
I -6.55818163589533 2.650454436717045 2.920576094617867
O 2.812293814757667 -1.466025319720373 -0.8668991967539493
C 1.7389403868258468 -0.6997675325184747 -1.3683497640525988
H 0.9508137161105489 -0.5765277062504507 -0.6192934528158495
H 1.33563417625978 -1.2464278725453242 -2.218983970207116
H 2.0732551392944742 0.2855375442157057 -1.707134941865867
H 3.1944628568067266 -1.0076699469700634 -0.10875245272724586
