13
## STRUCTURE-ID: 64568c42bdb2c93cf0399e40 ; CHARGE = -1; SPIN = 1
I -1.4584895046914625 -2.6456475659831646 -0.36028048112802186
C -1.4577546809783302 0.7438720680587242 0.2919971292827188
H -2.346736018697175 0.3681478608051216 -0.2157244858443028
H -1.2225295863721688 1.7316948507265175 -0.1100408306510517
H -1.6738467915750375 0.8393661390113807 1.3575559517074973
O 1.1913444129892625 1.557746946291929 -2.37670922893062
Rh 0.18033823064651358 -0.5836664453950166 -0.08987002508971101
I 2.504639505038587 -2.062457734932847 -0.5586824881042846
I 0.04177090615119807 0.08712013271734495 -2.672829011968437
O 0.3770854953409134 -1.4475053298991045 2.763353962234292
C 0.2992464578764597 -1.0671157382966439 1.6954922392000331
O 2.182147375018892 1.6285307849343045 0.244246229068694
C 1.38278419925235 0.8499140319614626 0.0314910402231873
