18
## STRUCTURE-ID: 6456715909eb754bd8233630 ; CHARGE = -1; SPIN = 1
I -2.9048185717186628 2.148122655227051 0.8106173689731986
C -3.139539956986081 0.3546613250770528 -0.9987595758278389
H -2.6201095651755657 0.5429670394022091 -1.9334074565557875
H -4.166875045246212 0.6745925290004153 -1.0774658391880452
H -3.100703125153077 -0.672560771200074 -0.6483307934909339
O -1.556126417465087 -0.9000333960634896 1.4406550773669395
C 3.5771790065797267 -1.0349759528261644 0.28828337711688284
H 3.0519194371886726 -1.5475140291645517 -0.5082468631598772
H 3.0913401143370054 -1.2093882826948468 1.2405635487775681
H 4.617693196037608 -1.32798126927256 0.3228912969691451
H -1.1642575786287883 -1.7765186827319615 1.3885871570420487
Rh -0.8218078127865224 0.5012122202755706 0.1305940623361044
I -0.02357426262279465 -1.465147749423876 -1.6545052702198804
I 3.4962675018363414 1.0712776906164974 -0.11569953090361225
O 1.0143312819438233 -0.11382821971784722 2.4297926176988205
C 0.44569760869569763 0.4546011639191935 1.6059392742824405
O 0.32736874000490773 2.532441994176766 -1.7267149760314815
C -0.12398455084099005 1.768071735400643 -0.9947934751857987
