13
## STRUCTURE-ID: 64568c2d7acc6b7ccb0b39c4 ; CHARGE = -1; SPIN = 1
I -1.0353090359983055 0.8564312619332703 1.3269141680979306
C -2.615938833604624 0.8675025388015394 -0.16779543689057036
H -3.4944923616830024 1.2961246485609834 0.29789400551763034
H -2.781599078558963 -0.1578379997342827 -0.478138933654281
H -2.267965327047253 1.468709365747385 -1.001224014354069
O 2.005848878950205 1.0434684013935025 -0.9787990341207095
Rh 1.3010818566418272 -0.6893875781980348 0.015376702620700127
I -0.15856976792120836 -1.404990644247868 -2.0318852599506934
I 0.7715520563590743 2.355792962820448 -1.7303735960860311
O 0.8451456436290056 -3.3411560416545303 1.2991533658461714
C 0.9960334374149437 -2.299322120412016 0.8271905729366159
O 3.6929477391276047 0.21756404290017312 1.5544013526355427
C 2.7412647926906715 -0.21289883791057604 1.0672861074017748
