19
## STRUCTURE-ID: 64568e5746727c7e6956ede3 ; CHARGE = -1; SPIN = 1
O -2.620429614750461 0.9023417313299508 1.1428253212337638
C -1.7585249034145112 -1.3856591628028754 -0.7200479851974154
H -1.8655578272364857 -2.4762111889784055 -0.8457887015724322
H -2.582227632196243 -0.9784882541000983 -0.1290000271909959
H -1.763068763130896 -0.9088921891590793 -1.6982733203561509
H -3.045573497576542 1.3965326192948602 1.8454586530801675
O 1.2400810101358575 1.463233683746185 -1.370274883815026
C 1.8474104253552586 1.0258335159436802 1.6404120379857978
H 2.253659204127856 0.22955151390163042 1.015102578105169
H 2.0737621398973696 0.821846155815926 2.6801796038164407
H 2.2733859327894512 1.972459275507497 1.3396360738557676
H 1.0949043365978344 2.2987659588279823 -1.8597120488504102
Rh -0.08288088573498424 -1.277131726025721 0.4660567835127802
I -0.3666267670039653 1.1069748348026993 1.3943549350231668
I 0.38001207884534705 -2.4024994279457927 2.7473796038624263
O 1.399120769132913 -1.844293088087937 -1.5093512706369725
C 0.7725428195938954 -0.8495937842309803 -1.1729564705772906
O 0.07454205828413521 0.478036492393253 -3.009044983946624
C 0.6754691162841788 0.4271930397672445 -1.9569558983321653
