33
## STRUCTURE-ID: 6456c1c1d3c6f25faa3288b3 ; CHARGE = -3; SPIN = 1
Rh -3.6703266632023954 -0.4981359146380426 -1.041522435880498
I -2.0527299494798537 -1.5142173089073447 0.9164869149874939
I -5.83502254510975 -1.752786041047871 -0.06980834521550644
O -2.8002569693284625 2.017317887404125 -0.48052375682968196
C -3.6728790713640898 1.2589005321193325 -0.14687239740031366
O -2.2868752104259316 -1.429316651088872 -3.1685568640729884
C -2.1064005615311268 -0.6839079617309605 -2.245158354358497
I -5.0521333553373875 0.6807703077088955 -2.974130909355287
C -4.730605038008506 1.5642606775221573 0.8817399211854643
H -4.5317157804393515 2.56035175764448 1.273299116775162
H -5.719243746937647 1.5294053315094238 0.4224623588578682
H -4.701219348194432 0.8305854858225027 1.6882944852523805
O 4.229852542457243 -1.2257244944845092 3.0913843428744636
C 3.865158266025132 2.6095918480454676 -0.882696025890982
H 4.781110345234422 3.027713573442697 -1.2801362545686534
H 3.0841752166870915 3.351765361595441 -0.7653125890511523
H 3.510821821751406 1.7806182284116796 -1.4846281644223358
H 4.224035245441509 -0.31165961792181773 3.4264416807279368
Rh -0.21169917244779043 -0.5413641621807775 -1.3893162273042512
I 0.43258890576237896 0.8766294356418151 -3.680815674241142
I 4.2959091970234935 1.8251098303613655 1.0757936417777763
O 2.582549636992487 -0.9077203841132626 -0.6184956993185138
C 1.4193650551092294 -1.3309268589945757 -0.35143561691284697
O 0.5742774662635688 -3.052249989600708 -2.79435893663474
C 0.207376548681308 -2.112508927392304 -2.216387334341722
O 1.2804026926326764 -2.634237210610276 0.08476784213830611
H 2.1179269158095893 -2.8710376457750058 0.5760734143186642
Rh 2.1297671363621618 -0.10584697748882937 1.4008989632003501
I 0.3517814383840774 1.6077845835820535 0.15073380983917323
O 3.3750247512531693 -2.637504978329823 1.6608921664020229
C 3.3334950378006662 -1.4961287661840308 2.1176933916920744
O 0.4104673279501879 -0.26347388135859345 3.8442893369033992
C 1.1650218641849277 -0.15205706896382007 2.978904198866578
