12
## STRUCTURE-ID: 64566848508bf23d2c6cdb4b ; CHARGE = 0; SPIN = 1
O -1.5992969191122508 0.475853379023402 0.49019313706230533
C -2.8297449439570426 -0.5885766106449203 0.4470811136048151
H -1.6815530837636532 0.8726113253971368 1.3776189911188403
H -2.439833310099656 -1.3743616885340093 1.134331047684222
H -2.681257258422363 -1.0272192852706108 -0.5661110060952573
H -1.8658421107898433 1.1484142644939497 -0.16347696874393283
O 2.1872829624974215 1.0570689175608945 0.02021458595595882
C 2.1208897913405957 -0.1241420889235912 -0.7471457225091036
H 1.3859080365003371 -0.8257856179341834 -0.3398455100933417
H 3.0942486448949587 -0.6195251108022124 -0.8106009572562729
H 1.8106907774622383 0.16957611815318843 -1.7484798179173233
H 2.4985074134492757 0.8360863974809429 0.9062211071890741
