13
## STRUCTURE-ID: 645688a318eb9f7c9f5a8523 ; CHARGE = 0; SPIN = 1
I -1.3568242751027293 1.6699798101763628 -1.8963246516845125
C -1.3512982907248938 -0.6880655815666166 0.649144255130883
H -1.0516893156038856 -0.9874459268511883 1.6531346547406067
H -1.6403084049355758 -1.563968502069856 0.06376549515739445
H -2.1884910586982 0.005868230672815661 0.7032015266918651
H -0.8476757212755239 3.1796539105481703 1.038565296561082
Rh 0.2916586371883895 0.21875489599595263 -0.3758806203487498
I 0.3589513364456504 2.2034367841277143 1.413961738957416
I 2.695894993409739 0.8849371850946308 -1.8328489393272958
O 0.10626815684638652 -1.2851860021609816 -1.8828175545436736
C 1.1173464703767046 -1.48447623720089 -1.3465808035188864
O 2.3300007942387104 -1.3402729628144823 1.2157223073838528
C 1.5361666778352185 -0.8132156039516368 0.5969572948000257
