12
## STRUCTURE-ID: 645666fd137bab736c1dbeab ; CHARGE = 0; SPIN = 1
O -1.6183293731996777 -0.061106417734408336 -1.0979482371958442
C -1.7466427555461366 0.11614397138564639 0.2047489012916464
H -2.052447473149782 1.1355868124011623 0.44342224653853207
H -0.5565538460651708 0.08320219444742051 0.6934499453214521
H -2.2445600861179105 -0.659967034992829 0.7877228645207341
H -1.568977563164069 -0.9909603003866289 -1.3818426981851704
O 0.7548511186767487 -0.2594278122876693 -0.8944693254407449
C 0.6950793142034949 -0.10869865559540952 0.41591795954080296
H 1.1625320509602535 0.7671913834574805 0.8639799861090076
H 5.406052965827519 0.4530220990118921 0.4178751195149673
H 0.8965169267370462 -1.04097021856626 0.9428214133894326
H 0.8724787208376922 0.5659839788596026 -1.395678175404827
