13
## STRUCTURE-ID: 645689fd6aeeff7521111de4 ; CHARGE = -1; SPIN = 1
I -2.208706500810689 2.6898168442386003 1.0036126068081443
O -0.7382418585150035 -1.7165955914443125 -0.22298431704414584
C 2.019359841159518 -0.6714235772860558 1.8324774712107348
H 2.4924107785752376 -1.5221699524425458 2.2823977764776955
H 2.595764625585996 0.14578930726473702 1.43940898458575
H -0.9259658469751173 -2.638735906501475 -0.029258056167439685
Rh -0.6485422633398897 1.2760582761102 -0.6035819665697315
I 1.5323557625062467 2.6528296237558604 -0.07459843661533187
I 0.053724086841571754 -0.7071910421656287 1.5514878282904836
O -3.156062758943157 -0.09204834423678368 -1.4700534862759702
C -2.1845670070367826 0.4260565805732003 -1.134352455893258
O 0.8696069935393024 -0.21673502833285135 -2.690341588804546
C 0.2988641474127742 0.37434881046705953 -1.8842143600023824
