17
## STRUCTURE-ID: 64568ebfd1831513dc1fea6d ; CHARGE = 0; SPIN = 1
C -2.5051847845873767 1.030835593963557 -0.4715300549902707
H -2.669294698110924 2.0246397710303015 -0.05595571187663751
H -3.0860796148663514 0.321409056414266 0.11717837935267642
H -2.85809447776337 1.0061288225576543 -1.5101935605477663
O 0.6823216282005204 -0.31925273641757795 1.7159235512162203
C 2.5578516927946997 -2.1446587614734702 -0.6131190742985633
H 2.215552946599126 -2.7850313515497507 -1.4181867495620517
H 1.9729249430973033 -2.3014493477465194 0.28572730322846995
H 3.6195599202858766 -2.2603603522215585 -0.4307233781900512
H 0.8591239238759785 -0.3998662844555786 2.678011048839361
Rh -0.49957405771532026 0.4814455660943345 -0.5555842934666629
I -1.1888692159003345 -1.9891839883637918 -0.8375699498260771
I 2.238231713209504 -0.08759865851150236 -1.2277869774859307
O -0.9109597175107313 1.1895553169192692 2.1838650864466578
C -0.2800813679134181 0.5260673345714099 1.4112605938692806
O 0.009089202411451964 3.417668915870658 -0.6636768312292578
C -0.15651803610663573 2.2896511033183806 -0.6076393814792872
