12
## STRUCTURE-ID: 645669b27fb06e3930304581 ; CHARGE = 0; SPIN = 1
O -1.4049247144789188 0.12831513233859967 -0.6001915795849005
C -2.301403334143961 -0.13277439977478814 0.1525372721869967
H 0.7263806224422914 0.054453154629674046 1.2906386933158946
H -2.54622100418209 -1.1663173288055098 0.4355768228657624
H -2.9299189993122328 0.6461499883822498 0.605938181947837
H -0.38065377008529455 -0.5199628623372338 -2.255144108948303
O 0.12025659072587587 -0.7384541660653409 -3.050152219592765
C 1.7233709046915051 0.37477279386539486 1.5638286769982253
H 1.860667515737223 1.4071601058021919 1.2706519828586933
H 2.450319059205834 -0.24474366055881702 1.0555058540300313
H 1.85399074716281 0.2825777008024731 2.6339534115585543
H 0.8281363822369653 -0.09117645827888649 -3.10314298763603
