12
## STRUCTURE-ID: 64566b7fdc0b022a5c5eb028 ; CHARGE = 0; SPIN = 1
O -1.4869621755953815 0.683148739795486 1.0335566330139672
C -1.2925045305716951 -0.6514993503305783 1.438849725456007
H -0.41254506264502194 -0.7512993291109049 2.0830275326744974
H -1.1831171379695828 -1.3214304420811072 0.5800945361760959
H -2.1772726322406863 -0.9437821385911543 2.003252517857394
H -0.7243844401530642 0.9507054674120019 0.49144880686774806
O 0.9111501584690359 1.0616135559245263 -0.5217671535225257
C 1.124128398416151 0.10640208764981655 -1.541219579423088
H 1.5142657156758936 -0.8303965081250019 -1.1325752320918419
H 1.8100115687559288 0.4833842302090624 -2.303698302075316
H 0.15646404987866414 -0.08313729080000085 -2.0018712990752663
H 1.7607660879797475 1.2962909780478589 -0.12909818585766183
