12
## STRUCTURE-ID: 6456651f0b13143f805a852e ; CHARGE = 0; SPIN = 1
O -1.4226964440667604 0.7861309568753504 0.03146852893058071
C -2.4716645924685148 0.580976982162356 0.5737397507585675
H -3.1683164530957613 1.392403003587169 0.827938227228495
H 1.7687243510424198 -0.48899195944293133 1.7417986917334791
H -2.8008929914373786 -0.43114305808957726 0.8491005321039764
H -0.6280816894519162 0.4308967795034472 -3.1113887259599315
O 2.7554297710409865 -0.43993016714808153 -0.08572899875026252
C 1.6294407094807095 -0.7804878157484152 0.6953968774966399
H 0.7182312754591753 -0.3157459038230252 0.30999253032414237
H 1.5288160726339368 -1.8631311284351453 0.640738302609291
H -0.7417230286997024 0.6078976296616909 -2.361806810353929
H 2.8327330195628138 0.5211246808971558 -0.11124890612106465
