12
## STRUCTURE-ID: 64566b783dd61b77ac2fdd88 ; CHARGE = 0; SPIN = 1
O -0.6543432345383364 1.4636075642037634 -2.649845185120592
C -0.1227454881938948 -1.0449767001320904 1.8412330509356623
H -0.11313945887959549 -1.467400256933559 2.8502290857455552
H -0.7501573113550177 -0.14847908540428723 1.830732760701721
H -0.5451900954942442 -1.77825607815019 1.1565703147811786
H -0.28930670596038616 1.016294965629834 -3.422464279818609
O 1.1820398499415288 -0.7669186388999146 1.3837041965821493
C -0.16525588927612184 0.8332711760072709 -1.4857743496164697
H -0.4794047748150723 -0.21274730614489726 -1.430578474791131
H 0.9255483086671706 0.8801471942536263 -1.4281179098058088
H -0.5867472952705766 1.3731778593035198 -0.6403796244278991
H 1.598702095174555 -0.14772069373313512 1.9946904148343918
