18
## STRUCTURE-ID: 64567146d48c46168d30457b ; CHARGE = -1; SPIN = 1
I -0.7645590683673785 -0.3153554409891088 -2.981345819457555
C -2.5193961820613415 0.7882197356992752 0.05063324405761527
H -3.174065403132777 0.004572189692625047 -0.34649365940950616
H -2.7103601058249454 1.7181064382323832 -0.4896560606393147
H -2.7211414167630865 0.9341306343372732 1.1115286776417659
O -0.8316325699693566 0.5505315759781884 2.5710068091879092
C 2.4198721076358196 -1.4858660496435143 -1.0574356762832189
H 2.0943675964857134 -1.8483564879429424 -2.0256170400752778
H 1.7828220945158244 -0.6598894047512571 -0.7173591923250334
H 2.421030099311935 -2.283040616708643 -0.3240777748849067
H -0.380556860431928 0.5767604783844131 3.440368316211998
Rh -0.5826073982733483 0.08141885766324561 -0.29305367892658146
I -1.0247395000378416 -2.4252633749806396 0.355143392813083
I 4.402245267779731 -0.7365504874033478 -1.2404153987489466
O 1.206492595522471 0.17347191000722956 1.7494289933177207
C 0.003976413904248231 0.3011663210395019 1.5753636617231523
O 0.4055819353111799 2.83855960092585 -0.7729209985578663
C -0.02732960560492748 1.7873841204594665 -0.6050977956450514
