21
## STRUCTURE-ID: 64568d439270e937592abdd0 ; CHARGE = -1; SPIN = 1
H -3.0448511390832897 -0.3392408858382627 0.31374198164506917
I -1.2500936815746966 -1.216357682182948 -2.397668115398048
O -2.208008183573548 -0.31709078221110026 0.7980779798721612
C -1.6709903056651296 2.315319018401078 -1.0603377464075938
H -1.9205256289356392 2.000597273732529 -2.0765980870403142
H -2.564990933440809 2.2653535037478996 -0.43596879036974984
H -1.3246119169009076 3.3478041537687577 -1.0810569131381156
H -2.4310126956871656 -0.08949374720744208 1.7115942687447059
O 2.6704976323041287 -1.804415748423143 2.898989927135
C 1.455265038781835 -2.3610268475798795 0.534934828286455
H 0.5071517445562269 -2.636607271090963 0.08601610249153477
H 1.7513563238757253 -3.068850005015475 1.2934529729470032
H 2.228985550273263 -2.276038932316646 -0.21914166885150316
H 2.900721559336022 -1.3195584444934316 3.690905159033879
Rh -0.271038548741235 0.9786187472934741 -0.1695783000781768
I -0.395128921127786 2.3616566724519408 2.054899840463106
I 1.2344357128027372 -0.5048236585467284 1.5145889303506392
O 1.6270897289771198 -0.7333361445178987 -1.873821067896985
C 0.602727892673747 -0.18291174039440497 -1.5526873207671437
O 1.3779296624981883 2.0741775223817407 -2.4107202609491876
C 0.7250911086512123 1.506224998040929 -1.6196237200727677
