12
## STRUCTURE-ID: 64566ab283ba011d5f07102b ; CHARGE = 0; SPIN = 1
O -2.5989519316284397 -0.30259430420292094 -0.8907553887960011
C 0.43103869831340974 0.6940326453692813 1.1985061991516008
H -0.40297600005907747 0.7156159716969117 1.8960613336674021
H -1.6972238606909882 -0.20892382332511583 -0.5489491861107005
H 0.5928378979595729 1.696588567068935 0.7872859763338903
H -2.9639758024623015 -1.0798235762956108 -0.4606120095809113
O 0.08695547014091033 -0.21944213269144097 0.17919072340487083
C 1.1101733958402062 -0.3792991854254247 -0.779687363602928
H 2.017163786281406 -0.781894747054517 -0.3160982244242802
H 1.3490500186412715 0.5749228885482804 -1.261819519339627
H 0.7375081177827335 -1.080204111077327 -1.5229265425521412
H 1.3384002098812366 0.3710218073889468 1.7198040018489016
