12
## STRUCTURE-ID: 6456681b48006132fa5c0b11 ; CHARGE = 0; SPIN = 1
O -1.2481477073823959 -0.060816042376081084 -0.2879237989213097
C -2.2710552996209645 -0.03289067110670251 0.33891828476133334
H 0.9808687062526505 0.7504679485810934 0.6411729397758721
H -3.083664813088268 -0.7509514688414983 0.1643912865453624
H -2.452690354354052 0.7131631099465409 1.124198522401639
H -0.6680041857310064 -1.249489464955622 -1.7731262642548131
O -0.38732830053421724 -1.8204396343661755 -2.5012073388729132
C 1.9231695879975783 0.9454513083006099 1.1363072792953004
H 1.7567479744414525 1.0645110445413652 2.1990189314417963
H 2.3615253077705907 1.8504098438873204 0.7363545380585504
H 2.596144619311542 0.1147108945388961 0.9688998482138711
H 0.49243446493710574 -1.52412686814974 -2.7470042284446947
