12
## STRUCTURE-ID: 645666f7f327b4480d0876f3 ; CHARGE = 0; SPIN = 1
O -1.4957250496559567 0.5381411814597574 -0.39541177743341366
C -1.7216267642857035 0.2674564201825811 0.7817065822087668
H -2.707804734949292 0.4561788605510665 1.1947920794196667
H -0.9338638572296456 0.04913173248318637 1.4992705228407497
H -2.169851873035835 -1.797563330100161 0.8106229131830612
H -0.3439972094555943 0.4074627223059001 -0.847159748362271
O 0.8162805588025164 0.23840195336601247 -1.271950423477156
C 1.7488890052502923 0.11062221529867473 -0.1883761587169001
H 1.5100893618434037 -0.7406742304393726 0.44844504586462536
H 1.6956843877189687 1.0307164518062493 0.38811932046945474
H 2.7537999063062246 -0.0012927330633689179 -0.5914587913417021
H 0.848126268690632 -0.5585812438505187 -1.82859956465488
