13
## STRUCTURE-ID: 64568c71f8612a0cbd3eadc4 ; CHARGE = -1; SPIN = 1
I -1.4654006918452287 -0.7788144662955439 2.6091559266956406
C -1.3127500812933464 -0.5442611582578649 0.46811267434346165
H -0.6412008336258105 1.3889208986489097 -1.0417744623738179
H -2.271210293000857 -0.11426497160221487 0.17603906731319227
H -1.2682973807909026 -1.5696172461537823 0.09322588088812173
O 0.5306944983750219 -0.8193319791627434 -1.832706454788837
Rh 0.34170598196522484 0.518539251904877 -0.23483235241188843
I 2.5077902909052323 1.8352051996496554 -1.2784626116056672
I -0.8874885404113301 -1.7859009549400517 -2.7747320344003605
O 2.3349638808913924 -1.6451801960408732 0.3693977270114544
C 1.5866520388290077 -0.7872327974745441 0.37596197200764103
O 0.25805166818360703 2.553679681989758 1.9389534206204078
C 0.28648946181798907 1.7482587377344394 1.1316612467006284
