13
## STRUCTURE-ID: 645673ae9081dd41d1068a1e ; CHARGE = -1; SPIN = 1
I -3.0977165160462117 1.9153443428204966 2.471407327101883
C -1.3670379620562043 -0.9212709310769079 -0.5758713397469493
H -1.8722312308531055 -1.1393888647321453 0.3693858643488839
H -1.4709287854804596 -1.8059706706760366 -1.2214708603394522
H -1.8884056606179134 -0.08964769260064442 -1.0563205395717792
O 2.0268544201406327 1.5376872228884075 0.9902562513055053
Rh 0.6664061139591105 -0.6797126183627755 -0.3130460343452886
I 0.8041920027793271 -2.4184098558045575 1.583086091080717
I -0.498181151566415 1.6504202863144168 1.7195074506429624
O 0.9436513626826566 1.2595457226595643 -2.5611339179621564
C 0.7204824645243217 0.4756398972072724 -1.7426543531166687
O 2.920053163147937 -0.28648958842442157 -0.04680961813236499
C 2.1128617793863347 0.5022527497875098 0.38366367873471774
