12
## STRUCTURE-ID: 64566a6617675153182b66b0 ; CHARGE = 0; SPIN = 1
O -1.631688188852995 0.504494120420574 -0.8642990513827152
C -0.8507765812232025 -0.5038605524294453 0.9153597705461924
H -1.2193573440694567 -1.256511440385797 0.2443900885390952
H -1.6144405530168342 0.10570810864020445 1.3596557236561193
H -0.12763062801764702 -0.8899558135573837 1.6315539645921742
H -1.6015100833286553 1.4512118189403693 -0.7153091630427065
O 0.5111632999910742 0.5672972341596891 0.2809186637178686
C 1.2325944368357613 -0.06891169013571644 -0.7663240424877167
H 1.6736625442356208 -1.0100774917928017 -0.43396877395379824
H 2.005270970900143 0.6097135368701654 -1.1271126997581438
H 0.5035276089067043 -0.25081409250379183 -1.5545647416848025
H 1.1191845176394937 0.7417062617739226 1.0297002612584532
