12
## STRUCTURE-ID: 6456696ffde20658874dd538 ; CHARGE = 0; SPIN = 1
O -1.2774927669998364 0.7724892118609843 0.3227079377192314
C -1.3759147068733049 -0.2981779243909347 1.240817637042465
H -0.7960508562184772 -0.09819171302728864 2.146304164380106
H -0.9692360534794967 -1.1767844817025146 0.7432429677180037
H -2.415908039625379 -0.4955564309610196 1.5119892114775515
H -1.6753843499077232 1.5588611607867517 0.7158829798447588
O 1.3147988951865002 1.010120874031702 -0.8789974442918659
C 1.6217915872051285 -0.31360096187508274 -1.2466972100556397
H 1.63303025713581 -0.9787471564832085 -0.3762266655668369
H 2.6163561073711668 -0.29839918296352896 -1.6911929814392865
H 0.9089987534589782 -0.6999059472181314 -1.9823641257624711
H 0.4150111727466191 1.0178925519422706 -0.5054664710660056
