12
## STRUCTURE-ID: 645668509d51a069593288be ; CHARGE = 0; SPIN = 1
O -1.688396486670502 -0.41054745682056304 -0.5675469303706417
C -2.0631230640108305 0.06038690102645621 0.7050912091431194
H -1.4510219593260303 -0.3894972617501374 1.4941252543703418
H -3.1025411390149022 -0.22743268051429724 0.8583433228348135
H -1.9814292273481857 1.1498465248108536 0.7694923748678691
H -0.7717362427970875 -0.1253574027722099 -0.7352425824061722
O 1.0048622402137979 0.47099650100318846 -0.9130500281130156
C 1.9972074871365795 -0.14365293988809372 -0.1152608759358993
H 2.9362817877799747 0.41369943235497925 -0.15254121286951206
H 2.173967613097332 -1.1765401127634016 -0.4273670227567464
H 1.6253063713959468 -0.13989675706426147 0.907605477767329
H 1.3206226195439235 0.5179952523775075 -1.8236489865315
