13
## STRUCTURE-ID: 64568d646019aa3e4e5ede0b ; CHARGE = -1; SPIN = 1
I -1.4409802312329116 0.24436372187592592 -1.4111035266749414
C -2.921535804076917 -0.8750964030140361 -0.2612002382225533
H -3.284420974713153 -0.2296499324473654 0.5306265305476652
H -2.426372182214604 -1.7451976450525897 0.15437736095715734
H -3.7121245640758787 -1.1520670997599167 -0.948034763566292
O 3.514321474694899 -1.9375727019195124 1.3312760056314306
Rh 0.557572492483783 1.1950809953063894 0.08070138229494617
I 2.571008356876479 2.422888821520635 1.3672631845888525
I -0.5036580292156586 0.28007445048851315 2.3019933810095363
O 1.905423508786134 -1.0778304328818944 -0.05412670680539034
C 2.7114314634469214 -1.5026091235608585 0.645578347739283
O 1.749704940849229 2.443245862647914 -2.335605839242002
C 1.2796295483916282 1.9343694867967827 -1.401745118257685
