12
## STRUCTURE-ID: 645669a47ff38f41ea6c2b40 ; CHARGE = 0; SPIN = 1
O -1.1681477570221719 -0.2134976630706398 -1.4189866274405658
C -1.2011345038433088 -0.18734429173182385 0.5732855877539338
H -1.3707550605782057 0.8040095985718109 0.9536317294618026
H -0.4849501770438391 -0.7726186015678737 1.1242781087280802
H -2.0998908458818843 -0.748449582213549 0.35527419087188417
H -1.7750783278660844 0.4927857945387744 -1.6688144615786742
O 0.5639456467631196 0.7241538762421283 -0.12764064180584017
C 1.6947536197704807 0.05584932220945517 0.2632359226583216
H 2.5832893222898203 0.6011265621689129 -0.08843927484773101
H 1.7468839861772976 -0.966179865786888 -0.14770786316637113
H 1.766103003380812 -0.00921674191014016 1.3617251927752372
H -0.25501890614602235 0.21938159254983167 -1.1798418634100931
