16
## STRUCTURE-ID: 64568e3028b63e588b0b5358 ; CHARGE = -1; SPIN = 1
H -2.678381515084767 2.043383572383947 0.5406379920331911
I -1.9882865686636146 0.481395064961618 0.592911619661109
O -0.9205023837440386 -1.450132361008018 0.8224271642089407
C -0.16391128091570012 1.4667480304614369 1.0597568390294965
H 1.8172973757226483 -3.3515077558751787 0.6123806886848614
H -0.30451530174723546 2.037301843319952 1.9782039962026998
H 0.0659038214129551 2.0991314305369 0.2008828118513663
H -1.4438327300980964 -2.2172764448677267 0.5784010240116926
O -0.31207766338376036 0.6684184180184259 -1.8744250677017151
H -0.7177897595835617 0.8266160675330227 -2.756445159085475
Rh 1.0025246070742004 -1.0202957571494287 -0.04443462168329444
I 3.208856765296044 -0.14419797126407075 -1.0536680648629617
O 1.5238744697346305 0.22600679481744623 2.2345290801290214
C 0.8604543686827357 0.3943292542904972 1.2329042929191976
O -0.05468332098121539 -1.4909128830413478 -2.4507069196835696
C 0.10506911627880673 -0.5690073031175014 -1.6733556757145414
