16
## STRUCTURE-ID: 64568d6704c2485b130b3f5a ; CHARGE = -1; SPIN = 1
H -1.634251862012797 0.40181696292328745 1.3952159940229565
I -1.2699242937945356 0.6810746779544925 -0.15517825638805324
O 0.6343643653729906 -1.5864906267726435 0.7668565332756078
C -3.56522224892268 0.34446035593849345 -0.24954398032497915
H -4.029252114743277 1.123659993952737 0.3440761659481489
H -3.7527418488927995 -0.6503028750391509 0.13768124558134423
H -3.8386386012109597 0.4242264749834911 -1.2940766811140691
H 0.18175999636475307 -2.4035362733185757 0.4660492160948242
O 3.2405363003357186 1.1328896156207746 -3.0025469955860054
Rh 1.2931108289407824 1.2429797620885068 0.23673626864084987
I 0.8709569123057767 2.0645772137738683 2.6337244542566913
I 1.49149676338649 1.0585657073358643 -2.32759659752471
O 3.7138393678467225 -0.026183330126149706 0.8333149397039782
C 2.520939218123614 -0.15618781729370626 0.5852099097569091
O 2.3038442992936585 -2.2209323812129487 -0.5888981505574762
C 1.8391829176063998 -1.4306174608082138 0.21897593421366673
