18
## STRUCTURE-ID: 64567233726ee031eb3ae5e8 ; CHARGE = -1; SPIN = 1
I -4.669903861614529 -2.3465894366551985 0.7221105949027425
C -3.0664415281119073 -0.9470091080234296 0.6166575318084815
H -3.0629902325117424 -0.3606662331847351 1.5259037215156421
H -3.22004090002803 -0.3218640552071932 -0.25272325976762894
H -2.1424676876147584 -1.503180469553444 0.5216636219492627
O 2.7330309161065642 1.026902925743772 0.05740094950977308
C 0.25259904950644807 2.499845856217255 -1.3125381074703781
H 1.2230571771838323 2.4224149912315642 -0.8326540591263802
H -0.4932404646526146 2.8801606961208357 -0.6252801347704546
H 0.30304850226908814 3.082622291434542 -2.2224872410991847
H 3.2840155451006816 1.2721113301246556 0.805451919479234
Rh 1.4982461247334602 -0.636310213674502 0.42582638663388944
I -0.3140286429123263 0.492916808987505 -1.8476015124743081
I 0.12659953908331706 0.694976408907731 2.2271656949973258
O 0.08677614243725326 -3.202370768712315 0.9983154584033792
C 0.6035440421527609 -2.1946340145045817 0.7557057720577338
O 3.9299646541840976 -1.5329861520791277 -1.047080825849867
C 2.9282316246884013 -1.3263408571732969 -0.5158365106992809
