18
## STRUCTURE-ID: 64566ea3883b726f2c4efcc1 ; CHARGE = -1; SPIN = 1
I -4.296397689338317 1.6966594309266971 3.4209051060685365
C -2.6130660493461093 1.2417155371212585 2.1817065094496844
H -2.6517290262124233 1.8849615482287647 1.3125696615669793
H -2.6789677369179916 0.20094556772011693 1.892873542333573
H -1.7140183282340853 1.4247646066028987 2.7557074079314283
O 0.6985821610133218 -2.696100810825556 1.1404126871696096
C 0.44087426141752883 0.7825690758485511 0.04611225564884898
H 0.667921625590311 1.7156267242079768 0.5611851857746486
H -0.4010025789358701 0.915287362046612 -0.6340426891673433
H 0.18167507031388583 0.02993298205646179 0.7937080890299554
H 0.8165414166953907 -3.5509671568989165 1.559087035500441
Rh 1.4138816221584303 -0.852420121192427 -2.261805437491772
I 1.1561279817941483 -2.921998452197295 -3.951528979748523
I 0.8867712221742756 -2.9128530787685496 -0.8837282836440148
O 2.7899725608289145 0.44230798631544294 -0.1922193758430067
C 1.679862767419279 0.2705909994450319 -0.6851530332848378
O 1.9144697028746354 1.6610549099038363 -3.8084338593328466
C 1.7085010167047074 0.6679228894591044 -3.2473558219613987
