13
## STRUCTURE-ID: 6456886655e94c22467ccc04 ; CHARGE = 0; SPIN = 1
I -1.4578476093003399 -0.6076256229418073 -1.3767207502867669
C -2.7087877800773073 0.1564311530589192 0.2287456411730937
H -2.732606969403747 1.2363179410684826 0.14003406833195395
H -2.2704618527630647 -0.1617466858516669 1.1683435705017509
H -3.694094378358932 -0.2724801507015749 0.0959717869284183
H 0.2231784868841531 2.3995758680059778 1.9101822038537604
Rh 1.4097762605676865 -0.16878910840984523 -0.11385894813829914
I 0.7726673597640953 2.424061568033028 0.41515397771817913
I 0.6193935363062552 -0.9765521559149722 2.2639461515815227
O 2.6472533713727944 -2.8852055521104463 -0.1451893443267563
C 2.1860918033917938 -1.8382246394757529 -0.16436014998881973
O 2.7742073268274203 0.43950643551024116 -2.7067683639991293
C 2.2312304447891655 0.254730949729435 -1.7154798433488903
