18
## STRUCTURE-ID: 645671ba9d142c7b684d91f1 ; CHARGE = -1; SPIN = 1
I -4.162904960798673 -2.3671940633384865 0.011112072560057838
C -3.0079508050615176 -0.9026519988172159 1.0418890123759321
H -3.548551284264137 0.03515545201634758 1.032196973418469
H -2.0519181248817167 -0.7965606716753475 0.518999000255705
H -2.8479171935126737 -1.24715291941427 2.0561998785535347
O -0.11704685273100947 0.3371484654366908 -1.4548675250076923
C 2.2669504654425134 2.5412689021512205 -1.2908216922851075
H 2.201651452422852 3.3276773268027875 -0.5490670636272343
H 1.2793493658828274 2.1646561551965844 -1.539025757969733
H 2.8052031299399034 2.8617919348361753 -2.173213017835656
H -0.17425088435194613 -0.22515803067654272 -2.2301538067556987
Rh 0.513642403597621 -0.47823022464655374 0.34136520619000704
I -0.20116863077986424 1.744627346914109 1.5618734346073937
I 3.3509236549457 0.9013769612842284 -0.41462637484604503
O 0.7306199502577378 -2.987170262736457 -1.2574597734302917
C 0.6930480336627357 -2.050517159959655 -0.5831679466438396
O 1.2726002270850483 -1.664320044040908 2.974452694772191
C 0.9977200531446142 -1.1947471693326999 1.9543146856680078
