19
## STRUCTURE-ID: 645679f37ad96277ef051b91 ; CHARGE = 0; SPIN = 1
H -2.9141101498146593 2.5851891985413538 -1.0205995470697566
I -4.46105047796331 2.7838320238486043 -1.3200433790964152
C -4.907917733510548 0.6704386022305147 -1.317352772784579
H -4.052791542061998 0.240180599339142 -0.7932949774323597
H -5.85055753631279 0.543872724569575 -0.7929679970908929
H -4.961314932850529 0.3605130490184041 -2.3560338596473835
O 3.8716489865620667 1.1975426197668193 -1.738804291958291
C 3.9156753758441654 -0.6880926100747713 0.19041303811993887
H 3.7979357868662924 -1.7682309985505136 0.16352124066113147
H 4.184050895515892 -0.36177605939923885 1.1917657492525784
H 4.671757637121941 -0.37626739625127936 -0.5128372478231308
H 3.5624890228127373 1.8683959934129746 -2.3476557781684146
Rh 0.4001502637272757 -0.7753726200369067 1.2283781978466348
I -0.9402541115613875 0.7273882839920022 -0.28895657484291737
I 2.139610594792201 0.22644470105923867 -0.382043836979804
O 2.567216536089416 -2.3141066747521255 2.59735208722106
C 1.704720444164132 -1.7407347461947849 2.0897561623396337
O -1.7512709782598037 -1.796173777712699 3.0676293725704062
C -0.9759880811611532 -1.3830429128063522 2.3417744148827153
