13
## STRUCTURE-ID: 645673dba65cf834553288aa ; CHARGE = -1; SPIN = 1
I -1.3176589946499353 0.5405852021648344 -0.9021297275535958
C -2.6900385747667763 -0.4936685612912488 0.4724287662455929
H -2.4340423800655557 -1.546569615001149 0.48726495695127475
H -3.698193223412412 -0.3479116070174792 0.1050584148064786
H -2.574827678346509 -0.05867403890935171 1.459370175753597
O 0.42327417392488714 1.8464650053835854 -2.4262145708619163
Rh 1.1050320044500064 0.08011545094694382 0.23764824872014254
I 0.3244012564127504 1.0804652025965913 2.527139354268489
I 1.6502962446350957 2.655759763451818 -1.1797959890040155
O 1.8095886612257717 -1.174882537626226 -2.3792487672959632
C 1.5627789797422291 -0.7358991573481426 -1.3471795721835376
O 3.3468365325401876 -1.154794279390652 1.778772995824786
C 2.4925529983102463 -0.6909908279595289 1.1668857143286826
