12
## STRUCTURE-ID: 6456667e81798948d20b535b ; CHARGE = 0; SPIN = 1
O -2.0784128768983443 0.607446681842715 -0.16817545381686444
C -1.0642268176457346 -0.26789301329035686 0.24548337182377494
H -1.4471984200530943 -0.7753844068896448 1.1329499947505808
H 1.1661579993799887 0.20701869191302863 -1.1490203142822937
H -0.8525467255465233 -1.0349320236094515 -0.510720226818537
H -1.8467625336425952 1.005522036200481 -1.0180110706345127
O 0.881532077130814 0.958450095841358 -0.5800180784187268
C 0.2223194310105179 0.4609156594490133 0.6333395996742288
H 1.6529302084684274 1.528204248445649 -0.3490787183493476
H -0.02603975017505618 1.3388105847933127 1.230647313711298
H 0.8783196331867438 -0.2155881123737635 1.181037934078767
H 2.513927774784858 -3.812570442322342 -0.6484343517183663
