12
## STRUCTURE-ID: 64568ee394315c479a7ccc04 ; CHARGE = 0; SPIN = 1
C -1.4349244609912166 -0.0875662075758767 0.5657088670061294
H -1.3508235664643782 -0.5314704728013049 1.5561383266197928
H -2.1146365188327443 -0.6738825415960097 -0.051263449954322145
H -1.786486079834001 0.9454655837116401 0.6328482144184165
O 0.43133878737009235 2.106293358485258 -0.5400127467316178
Rh 0.45410579414082203 0.042392395852303415 -0.4066414796757296
I -0.614392735057985 -0.1481272290656027 -2.7997696141564625
I 2.162129980399029 2.0356663093782075 -1.4028735128788297
O 1.7219042458815577 0.71232697184653 2.216692199251967
C 1.2400037213705322 0.35278931448233175 1.259813464355498
O 0.6790141457247454 -2.9399780437813257 -0.5638862363231938
C 0.6127666862935734 -1.8139094389361927 -0.4667540319315902
