12
## STRUCTURE-ID: 645665b3c93924022b4f7348 ; CHARGE = 0; SPIN = 1
O 0.5007930239756936 -0.4210164602388204 -2.681733137373448
C -1.2297917153494577 0.5728715573664562 0.5757002352558054
H -1.7341787564820847 1.1540221585308768 -0.1926689017178581
H -1.791898615647321 -0.34737882306094686 0.7694393453281577
H -1.1717889011384814 1.15671580938807 1.5006106535224641
H 1.1021622450432338 0.2734354671716598 -2.9613912737071053
O 0.0607808313333036 0.28201624444217976 0.08459907134400244
C 0.8375665475508752 -0.46614963562353695 0.9953728375511693
H 1.7993794202071025 -0.6398274897694655 0.5188108152601464
H 0.3607994123224795 -1.4263465561459145 1.2205904706616186
H 0.9835431700616534 0.08788398500004233 1.9287272046248616
H 0.28263333812301217 -0.2262262570605949 -1.758057320749815
