21
## STRUCTURE-ID: 64567c22c07c565a49530d60 ; CHARGE = -2; SPIN = 1
O -4.1759482148543325 0.008507729327507223 -1.8663756231606172
C -1.8382053092151152 1.1911142753722928 -1.126693601838849
H -2.7214446048097827 1.6283022711119544 -1.5649753449270092
H -0.9615769232922963 1.386158143638594 -1.7361011862310038
H -1.6886054877709467 1.5601312590625915 -0.1168710446256738
H -4.804510533530167 -0.6936912637069234 -2.0356193509226146
Rh 0.07906215369800662 -1.6819907188057903 0.10427604980378494
I -1.0507264560779983 -4.004804070875645 -0.17840132605167786
I -2.1471646986719937 -0.901873691555214 -1.0261423943610843
O -0.9039687762681821 0.026423198841075468 2.287844211788941
C -0.07678340429769186 0.10885011605301222 1.4697906282217263
O 2.4691209588909886 -2.7183872608294584 1.6370618806334956
C 1.5732457680413048 -2.308661457773919 1.0481996589650855
O 1.9901436434517958 0.4351082706573432 2.7416994336238334
H 1.9148190377822332 1.3104621753963792 3.1322713388759476
Rh 1.501331510807969 0.5373186131378638 0.5206420160175299
I 1.1134650786840072 3.240273633366899 0.40486991302512965
O 4.387279148440462 0.8953533449087864 -0.19753942648581643
C 3.262114806588099 0.7144070387174439 -0.03255002898830601
O 1.1288855335907577 -0.4108065256187202 -2.3133896868917723
C 0.949466768812898 -0.32219508042608314 -1.1519961164710812
