18
## STRUCTURE-ID: 645672fdac0d5707ea5ede08 ; CHARGE = -1; SPIN = 1
I -2.941354207376888 -1.5512437176071017 1.8050329281428723
C -2.0107478125641594 0.26562153455801757 1.1908395013891995
H -2.7863905368462283 0.9691129890573337 0.9133251168697566
H -1.3580102989728409 0.05048085135484531 0.3105468282657016
H -1.4309999005386858 0.6465160409802285 2.023135681742449
O -0.8262307550080277 -2.379934594601995 -0.9046648356720747
C 2.7460824544201192 1.3907628928692972 1.7013549425811607
H 2.135459447008764 1.5306981297688662 2.5852939658241203
H 2.664277005340134 2.245222564927731 1.0382372608360368
H 3.7771054270276445 1.1833903870932423 1.9604482296508652
H -0.8207069305894086 -3.334687331587272 -1.1126464707803911
Rh 0.1660250026554332 0.215810680450944 -1.183020333785309
I 1.983078238018155 -0.3618726632237803 0.6189279961897732
I 0.1781930941339505 2.8247046040005737 -0.7434477965871414
O -1.559008465233306 0.11781867877297883 -3.6102960678363414
C -0.918908105867839 0.22603453412045646 -2.643464241235055
O 0.8635437446853103 -2.3340071944500145 -2.358555661885975
C 0.1385925997079204 -1.70442838648436 -1.5910470437096624
