8
## STRUCTURE-ID: 645663fe41c0340f44233638 ; CHARGE = 0; SPIN = 1
H -1.2842623935202377 0.26616461238608913 1.1332841419818407
I -2.8250029454507852 0.30254329384881645 1.5184367072841232
O 0.4514407551233859 0.1239220887094604 0.5937814767215855
C 0.6229055380242319 -0.039116912644013825 -0.8022669587201542
H -0.07470128905120672 0.6411202775080226 -1.2873225963638015
H 0.39859063853337623 -1.0631546284339068 -1.1114554405117596
H 1.6394098352037327 0.21968081201914882 -1.1047455912308262
H 1.0716198611375243 -0.4511595433936206 1.0602882608390098
