12
## STRUCTURE-ID: 645665249375150899092931 ; CHARGE = 0; SPIN = 1
O -1.155456903993514 -0.316355970458101 -0.24607261697357377
C -2.218093246376223 -0.07914152061796742 0.2585090905420949
H -2.3691281096050276 -0.12294663114208586 1.345450242667304
H -3.0995412614654465 0.19495402436260775 -0.33666534676383947
H 1.03578164554699 0.055499764145558315 0.9419050666839253
H -0.6733868051300194 -0.40212472561760176 -2.166229099719505
O -0.46838208206493975 -0.4742416912264623 -3.108536925983378
C 1.9086381155676548 0.3966507472629841 1.4829414486549033
H 2.4433771134013345 -0.45573337009859183 1.8811038152652562
H 1.6019847478727687 1.0418461230281686 2.2958657715121538
H 2.555536241027602 0.9467750249234359 0.812149436492177
H 0.4386705452188274 -0.7851817745619419 -3.1604208823775113
