12
## STRUCTURE-ID: 6456881bcf1160604c4d91d4 ; CHARGE = -1; SPIN = 1
Rh -0.3352204781350767 0.140360648418742 -0.3365500902207644
I -0.2064930850130984 -1.605086998881284 -2.4162331798713077
I -2.2165291305973165 -1.33600704888337 0.9360727924633392
O -0.06437432627328003 1.7486690616257043 2.151914337577753
C -0.21381642598129136 1.1688538168855578 1.180325045869527
O -2.4891902884327615 1.2034367207473233 -2.246375807216017
C -1.7072309965204364 0.8751953613014521 -1.4859063564175319
I 1.4831776444380083 1.8011389715890962 -1.4634815808168835
C 1.2113448362869723 -0.8418650298183804 0.7745909665816567
H 1.5534751888625753 -1.709917445852793 0.19699043726235213
H 0.8894261286130221 -1.223814277033704 1.750175376059464
H 2.0954309327526874 -0.2209637800983771 0.9584780587284112
