18
## STRUCTURE-ID: 64568917312f2733df6a6033 ; CHARGE = -1; SPIN = 3
I -0.37102954309686276 3.306706231699343 1.7473316518538689
C -1.9062188723265006 0.5154053863336776 -0.4774979984207245
H -2.3336614018589645 0.8966932375683334 -1.4052681363737882
H -2.336374923305964 1.085756930015256 0.3583859610804416
H -2.2137486047795054 -0.5199395071722115 -0.34169786805240204
O 0.01550757559792533 -1.4075488493000101 -0.836809240539496
C 1.643009771647489 -2.059004352976341 1.9937016198896844
H 1.4598320520640524 -2.9109500670121493 2.6365387310067416
H 2.577332440066275 -1.5645548810390262 2.2341886646748557
H 1.6100524881631 -2.329627998669852 0.945714050502387
H 0.0998465458901208 -2.0591593521180536 -1.5590847156759682
Rh 0.1446638379374902 1.2755223809847611 -0.013464446169343725
I 2.808866461500096 0.8387085394515481 -0.18845685741659657
I 0.04487457128342387 -0.6382494900926385 2.3314313048999735
O -0.1990468317294069 0.019806912920194233 -2.5390872699880904
C -0.1804906014261716 -0.16494232140232304 -1.3334796954927721
O -0.8747580495196262 3.060643143539292 -2.090185847938739
C 0.011343083893101924 2.654734057270216 -1.4622599078402172
