12
## STRUCTURE-ID: 645666ff9162891c90071020 ; CHARGE = 0; SPIN = 1
O -0.796325918419748 0.6973431494215183 0.20545948428007935
C -1.6238708549538947 -0.11487812722487141 -0.613664257939096
H -2.6518594953107213 0.23021766983247527 -0.4812032677447858
H -1.5310769869661802 -1.1416248263021282 -0.26454426503469153
H -1.340788116252725 -0.05259904329372447 -1.6643042960151828
H -0.8174617349775125 1.6278765267550919 -0.10287841885375318
O 0.8813224923519901 0.4157931145000679 -0.15105641027795383
C 1.29494615691978 -0.4362331397113999 0.8644557921228868
H 1.2246443957763469 -1.487782071747804 0.5717873920332918
H 0.6876315164423616 -0.22999945630847993 1.7523314859506036
H 2.321812706660213 -0.19175408604573962 1.137608443311741
H 2.351025838730095 0.6836402901249865 -1.253991681833139
