13
## STRUCTURE-ID: 64568c7a7c2e8670e373b9da ; CHARGE = -1; SPIN = 1
I -1.6815263928492925 1.9929582759141864 1.2476301943256618
C -1.6026025553168388 -0.9027075730229934 -0.6204610829503747
H -1.2840359859530401 -1.8847913318723886 -0.9747239020404671
H -1.9829516640829086 -0.32680751980532813 -1.4661354683456764
H -2.4145680178873064 -1.0377485456589812 0.09707892834205724
O 1.7028579686987662 1.2393340079559783 1.3965191455395816
Rh -0.024248596868504398 0.12273685223514356 0.36321091244528875
I -0.22286438242136275 -1.4123923917610992 2.514979507246473
I 3.427364842239749 1.6630142566168955 0.5739514484414358
O 0.4583364564332975 2.1586871192482397 -1.7534674323109045
C 0.21853513375901729 1.324986877113432 -1.0155875798101757
O 2.147767979871602 -1.814507367152072 -0.26351411487017995
C 1.257935214376818 -1.1227626598109968 -0.09948055601273509
