13
## STRUCTURE-ID: 64568c895f2a225aa56c2b43 ; CHARGE = -1; SPIN = 1
I -1.3125462697888157 2.2073232378300145 1.3477053256774865
C -1.3131435311421378 -1.1094072945909517 -0.6783438234655337
H -1.4930617602679326 -2.124294975718076 -0.324391763161948
H -1.2868458396577123 -1.0960821932026992 -1.7671490410389
H -2.1676572571517583 -0.5033887355474632 -0.34569399590206396
O 1.9901279853478784 1.0169164376146476 1.273388089100262
Rh 0.1624828671793009 0.1678272575460128 0.3962180727208356
I -0.056093998959985326 -1.3451727652723167 2.567495207968914
I 2.41866575457689 2.891365497564617 1.5596150204319237
O 0.8009576262881026 2.229820026285642 -1.6557641915118344
C 0.4791426411041852 1.3829927184858977 -0.9623532253035495
O 1.1109981675063096 -2.3319458654466274 -0.9470216301352784
C 0.666973614965649 -1.3859533455487276 -0.4637040453802925
