12
## STRUCTURE-ID: 645669c2c593273f8a7cab88 ; CHARGE = 0; SPIN = 1
O -0.34057977054341343 -0.030478920815507075 0.12868814000306453
C -1.4080804456075053 -0.15792562081139142 -0.8395494588948035
H -1.629509948246505 0.7958225623828628 -1.3188871607150905
H -2.2820201055675406 -0.5347519126198339 -0.31244864340647766
H -1.0946441976721124 -0.8905196380213511 -1.581017182555199
H -0.5907892166999392 0.6092755966548432 0.8361971813751647
O 1.706569613482879 0.996250075716205 0.5176071327591844
C 0.9758971401997387 0.413493452683853 -0.4546334573936504
H 0.7616347316389579 1.1641028481678195 -1.2241307339126135
H 2.1384754180802883 0.36094421946992294 1.105392325182793
H 1.4005059414741359 -0.49972359831518587 -0.8844756490157094
H 0.36254083946101556 -2.226489064492231 4.02725750657334
