21
## STRUCTURE-ID: 645675801017216d8d6dc177 ; CHARGE = -1; SPIN = 1
H -1.7712483335066596 -2.427548806530075 1.7180588493801392
I -3.0277464374014635 -2.330166889169952 0.6314360070861784
O -2.3695460139598787 -0.3011843326814043 0.8485879722027837
C -4.318566877058053 -1.1294043824942732 -0.7176315594112045
H -3.6813356184191304 -0.5834750059337994 -1.3977571245781042
H -4.898052580919356 -0.4468378011891158 -0.11303318247973833
H -4.947252453242595 -1.8402776140818582 -1.2365947849999601
H -1.747928759199081 -0.22816337916491844 1.5721318476587152
O 3.5845229512979464 3.249099789841893 -0.6487183974492924
C -0.10471673094272362 -1.3676664295328218 -1.3084327322227887
H -0.9075687285308595 -0.9241226420040007 -0.7275825611773203
H 0.34129665812459026 -2.202960821640813 -0.7797719792748273
H -0.4362875605757683 -1.6520539969687635 -2.2997255780081396
H 4.35702361975629 3.5895658144609865 -1.1428958068745774
Rh 2.421558137214584 0.9781869192194896 0.7374856604038931
I 1.433595381280935 0.18332178937008697 -1.546077422978828
I 1.1507395097918485 -0.7905457541547092 2.197198993752197
O 3.3269055357048236 2.7953596166370556 2.922312582671474
C 2.9654741668125997 2.050658680353941 2.10075416113739
O 4.84727958749863 1.4140751425867215 -0.5501092313242124
C 3.7818545462733306 1.9641401030763632 -0.2596357135138007
