12
## STRUCTURE-ID: 645669b5007600792c1dbeae ; CHARGE = 0; SPIN = 1
O -1.4892728508683861 -0.4259779485603466 -0.7035219465221738
C -2.0951319441301743 0.12841711083730978 0.4395537640685922
H -2.1963838531757496 1.2148769030843298 0.3514985435050946
H -1.5278536604047408 -0.10332784578722877 1.347181389362187
H -3.087396834497 -0.3142247486502386 0.5205134211553717
H -0.5971001480298211 -0.04015075321519149 -0.7909733057996189
O 1.1835477812613429 0.528588198451848 -0.8183552263089691
C 1.9218935974093556 -0.20804676818657553 0.13765000564970425
H 2.9765824622988837 0.07551924198760421 0.12940746851658794
H 1.83128883196133 -1.2837276996918845 -0.03670533462907335
H 1.4998678375296675 0.03156793755294387 1.1120426914116384
H 1.5799587806453055 0.39648637217742483 -1.6882914704093466
