18
## STRUCTURE-ID: 64568af7f553dc36bd111dea ; CHARGE = -1; SPIN = 1
I -1.3206145692317774 -3.1529446762709 0.07184613728515409
C -3.0654257292167997 0.7318906311387969 -0.19976769753421542
H -4.01717752100342 0.8460510902208295 -0.707019499519252
H -2.8634606605653468 1.6240433860175438 0.3952094297177064
H -3.0833288927996403 -0.1265785313689024 0.47382139180195487
O -2.236526334336664 1.088100393500011 -2.3784705960796
C 3.762888151031126 0.2806899334733044 0.17635726319231163
H 4.1455004979644325 -0.3966572425293178 0.9303216187299563
H 3.1508895154678176 1.0509143572810535 0.6321794262016661
H 4.561888994181565 0.7099128968871438 -0.4138460339536815
H -1.507614308376727 0.9992692813813009 -3.021722056103498
Rh 0.07644133688978808 -0.9171654980968442 0.6597382294050188
I 0.30502720006545275 1.4964633921359378 1.8220129571631776
I 2.5055456012878516 -0.8662463084322647 -1.152825356918901
O -0.8887641738003591 0.03644955868775998 -0.9802740817136698
C -1.9649676211033578 0.5722313525387 -1.1968168017007679
O 1.5096897666931481 -2.25023955046142 2.877882888843668
C 0.9300087468505437 -1.7261844661149093 2.0113727811691047
