17
## STRUCTURE-ID: 64568f3de749dd592f46227e ; CHARGE = 0; SPIN = 1
C -0.6199408469558345 0.19565235326674524 -2.4219527471594273
H -1.0040629721258545 0.7543136601973109 -1.5689344478328868
H -1.4133716375930083 -0.12623083716462086 -3.082759179390421
H 0.16445797725215675 0.7356797993943806 -2.9371354357383894
O -1.794158232761864 0.7269748681435951 1.2442547837701006
C 0.3117730353068514 -2.007190413741114 -1.4590189754350533
H 1.246771285582392 -2.114101497758706 -2.00248539685052
H -0.1282344369332841 -0.7655634908753778 -1.9841311012574978
H -0.5140897702686354 -2.6455786783143083 -1.7582730923247087
H -2.1586838315412153 -0.15837301020416178 1.3462124444002534
Rh 0.12229545995149882 0.9853848363907752 1.266440967312052
I 2.0638819924983247 1.787946791447852 -0.19849772931938284
I 0.5597610286126339 -1.8553635056099926 0.5980847989247119
O 1.2198694803645471 -0.6191431627540813 3.426917256521202
C 0.8233365728423685 0.4439883329085725 3.0113256111578326
O 0.5314184802896762 2.8844852076686642 3.4915276031956317
C 0.5889764154792467 1.7771187470044558 3.028424640026524
