21
## STRUCTURE-ID: 64568da64c89c90ae41688f3 ; CHARGE = -1; SPIN = 1
H -3.00819386186273 -0.43128654595957544 1.2208303114376131
I -1.457856712409275 -0.39929971232374245 0.43534697455336036
O -0.3487283288811858 2.1112084987453894 -0.7438378365237626
C -2.7758336153659937 0.37796040570316647 -1.1038112493834753
H -3.31800160516817 1.2136818671926572 -0.6800249718040071
H -3.4337919397585472 -0.4270994141942377 -1.4083746655203315
H -2.1582252929454144 0.6938557520060799 -1.9344175280998581
H -0.4170480416013394 2.9571497058649476 -1.218827888927932
O 2.890767300148254 0.6504228728073304 -0.10063982059006732
C 1.0114489827809627 -2.0823745728194147 2.3718968836350247
H 1.7399141210667803 -2.498962945890644 3.0559197859537193
H 0.00898918501677778 -2.4377546975158415 2.581333888081945
H 1.034166048075095 -0.9969260929612053 2.3746453932546223
H 3.408909171578341 0.7792924631082156 0.7136988784155576
Rh 0.6995890050207356 -0.5521595214902358 -1.0506752507176889
I -0.46654667790695986 -1.602054438767627 -3.2122673350084794
I 1.5246110230049006 -2.751005074671453 0.3738418318552802
O 1.2151755112137868 1.1558138520933783 1.3033947591901198
C 1.5543927042788543 0.8063867518223479 0.1684301335137377
O 1.5143026827620822 1.9974965382027892 -1.9941448616823478
C 0.7819603409530577 1.4356543090476737 -1.1523174316330609
