20
## STRUCTURE-ID: 6456b7588d4ae6634c12b093 ; CHARGE = -1; SPIN = 1
C -2.3756704500213157 -1.1166772132155436 0.5201950040123896
O -2.5509516503393743 -0.926104341068484 -0.5965788622437809
I 0.06427031228214079 -2.482926473492394 1.0334260195447036
C -0.6097357494510444 -2.0633554863121217 3.039813327977689
H -0.5087048940600956 -2.9717768915832576 3.6188921471757567
H -1.640842965471275 -1.738415297476293 2.960134056180291
H 0.010518731574965183 -1.267249102458254 3.435632418399381
O 2.9085735111373463 0.2722555810802488 -0.4354634691510807
C -0.6002910702433537 1.6768805099846622 -3.555888678734496
H -0.17389325198106245 2.630755721641839 -3.8398987269323337
H -1.4377499304860102 1.416402693735804 -4.190067729033694
H 0.15139839340607783 0.895969664606611 -3.5669240478895903
H 3.4746004658051834 -0.10228199506079623 -1.1409774442407283
Rh 0.1705729487840888 0.7585271075503118 0.45351779462204095
I -1.9722073741728163 1.482573233705647 1.9107444599435184
I -1.298718664327945 1.8182018426538673 -1.5322075068945773
O 1.3146380793960626 -0.283945627682803 -1.8780765857011683
C 1.5954422953007623 0.19906378350469647 -0.7746768564743823
O 2.106978987907638 0.9642004318832638 2.7136361089018606
C 1.371772274959971 0.8379018580030722 1.8247685705382195
