13
## STRUCTURE-ID: 6456889f99d6c23db5159873 ; CHARGE = 0; SPIN = 1
I -1.7033246216068738 1.1385795427801815 -2.0143466968892167
C -1.2433191973058364 -0.5377000468428198 0.7833059994834892
H -0.8469564857289729 -0.7113783268382685 1.7842659298582517
H -1.608795990524752 -1.4718152535138191 0.354844209910993
H -2.0728664351697166 0.16615811499486563 0.8483406972865644
H -0.8792628770420707 3.4976032142342106 0.7603780037448498
Rh 0.28548334341281245 0.2834652356607166 -0.4876794814294958
I 0.22911116516789473 2.536196367293863 1.3653020151291781
I 2.3648971485534305 1.4209245364171683 -1.850737909939839
O 1.5896497837177186 -2.0450623519291447 -1.9325852201707217
C 1.1393550808921193 -1.24742542449989 -1.2000370965827056
O 1.5424797566692687 -1.8750756027918893 1.2206737749710834
C 1.2035493289649812 -1.1544700049651822 0.3682757746275787
