12
## STRUCTURE-ID: 6456678f1ad4cb307a4609e6 ; CHARGE = 0; SPIN = 1
O -0.6059625369026279 -0.1869848810413997 -1.4725136265119096
C -1.2506275559335713 -0.09961783521538242 0.5304664625859937
H -1.0954797251808868 -0.3172986577561004 1.5859211347339015
H -1.9179894026375124 -0.8179549206302124 0.08562661663811025
H -1.5191566222802162 0.930292668485925 0.36777044636698836
H -1.078556513148124 0.5637527878538418 -1.8328853252063844
O 1.5569197113776911 0.6519260924315514 -0.6793074773721441
C 1.3990944217535861 -0.10177876446774452 0.44433508597745014
H 1.7974402247550227 -1.1203623298517502 0.3602355465668706
H 0.22782278112372362 -0.24990923844489255 0.5237922205146404
H 1.7642711761251777 0.410274797143621 1.3359856257495542
H 0.7222240409477411 0.3376602814925528 -1.249426710043086
