18
## STRUCTURE-ID: 64566fa040bd7d4b8107101d ; CHARGE = -1; SPIN = 1
I -1.710281504509894 2.1541972974269075 -1.286232547190773
C -1.966872955757195 -0.7887545414384085 0.9245223377391459
H -2.288755737706911 0.24729631598460086 0.9787999724126123
H -1.989394204679807 -1.2693104341039103 1.8983622026898999
H -2.538723512604522 -1.3529503113497385 0.19329206621990236
O 1.1462439229891066 -1.7659428085558775 2.2593058031537323
C 0.4582190533052569 0.744254613613316 1.7880045140417204
H -0.08835794523189976 1.6191199910031164 1.4518688499818846
H 1.5245868712448714 0.9341022235297441 1.7921487251875297
H 0.14425046736100955 0.41422483239756336 2.7672479229030116
H 1.2663328299396692 -2.709923458073519 2.1659390309238713
Rh 0.36311366674300144 0.5398708939746025 -1.8380618192131222
I -1.09718080457968 -1.8404423589865821 -2.4906495312996797
I 0.0972578508945647 -0.8224500942142957 0.38661883343568104
O 3.3180958737644555 0.04977380431622647 -1.5606439435338373
C 2.177523305649637 0.2043978576788459 -1.6729025864430174
O 0.624312122447607 2.142859496223659 -4.354501101677303
C 0.5596307007309222 1.4996766805735116 -3.403118729331239
