18
## STRUCTURE-ID: 645673cdd13d8750a6610ac4 ; CHARGE = -1; SPIN = 1
I -3.9911375062510044 -2.2455113719796245 -1.3057860685072737
C -2.997288110423776 -0.3630582550340001 -1.4193910621282
H -3.574477148555425 0.3654043073015698 -0.8649740499689844
H -2.917593494646631 -0.08193440823661233 -2.4618737266636006
H -2.001415964848252 -0.47691339930473886 -0.9768254415623715
O -0.17765435398378773 -0.3329917227855654 1.433607937219566
C 2.2002950172558124 1.6701056142465007 2.386143495192881
H 1.2098143322994235 1.225322215268933 2.392769803787502
H 2.1504667655309566 2.7145350378230164 2.104639960089919
H 2.7051592116022785 1.5294916449155265 3.332656568090666
H -0.267658445228115 -1.1881673351066044 1.8592246808093675
Rh 0.5250589139190329 -0.23852003616569176 -0.5114450427947735
I 3.331004290628693 0.6374339637114521 0.8741013887926394
I -0.18196612673486492 2.2968454289537052 -0.5975902926982966
O 1.3760957617853469 -0.11541301104068477 -3.3706150428829433
C 1.0672379472183466 -0.1475205205098074 -2.2569682909003737
O 0.807995864075496 -3.194050334730276 -0.2216482216840725
C 0.7360630463564519 -2.0550578173270933 -0.3960265941916323
