13
## STRUCTURE-ID: 64568c0bbd441d32fb4975ad ; CHARGE = -1; SPIN = 1
I 1.3692427818567774 -0.7006450707503867 -2.538509785816136
C -1.3299840181407552 -0.08867154452989776 -0.03206264129979748
H -1.6262258366514144 0.215843737731112 -1.0379396816577093
H -1.6674058104662548 0.7157508620587795 0.6454929297311764
H -1.8600254567178665 -0.9943766391113049 0.255755052344535
O -1.2277754831879644 2.4796187833095624 -1.771941788906399
Rh 0.7465390346549787 0.31664849291266595 0.4677071640144396
I 2.9872158867325402 1.452720659637957 1.2247112570835577
I 0.3662270342171126 2.5970328536400316 -0.8033170445602995
O -0.02184353353473042 -2.358651951051002 -0.4855665120593132
C 0.2495699807834659 -1.2157052919201061 -0.5799664228209184
O 1.0626542305038653 -1.5416047019057262 2.7883347366694182
C 0.9518111899502404 -0.8779601900216899 1.8673027372774524
