18
## STRUCTURE-ID: 645671b895bacc37b56cdb57 ; CHARGE = -1; SPIN = 1
I -4.497688549111463 1.579234086755145 -0.9484325080090755
C -2.53424281794012 0.7488915692372813 -0.9211800341378783
H -1.8766208359769874 1.3960761408711349 -1.48567846683532
H -2.581137964744493 -0.23785552182644917 -1.3619687044138518
H -2.198126254333582 0.6955417115908448 0.10585501494052608
O 0.6007390052462414 1.2478680217250808 -0.21620696388042135
C 0.5104690764342099 -1.4974396961817344 -1.8146504446368168
H 0.9514332153079625 -1.5111983309705757 -2.8029139153908713
H 0.24244430558279767 -0.48862316260612837 -1.5117464993980443
H -0.3348445977383793 -2.1694044741176866 -1.743691991023384
H 1.1939210658875483 1.8737869607278312 -0.6444255364860305
Rh 1.455183060419563 0.39742648120587937 1.4489500751951336
I 3.7613785974530685 1.5468015123332204 0.9130472785906089
I 2.0039823852275274 -2.1723632732725515 -0.41335219888133073
O -1.2708989806895779 -0.32181524326334354 2.4369925533370136
C -0.22360174615191822 -0.07373427216117198 2.0138508551135246
O 2.6176740218043424 -0.7091252181713991 3.9679080567228637
C 2.179937013323255 -0.3040672918754177 2.977643429193335
