20
## STRUCTURE-ID: 6456b8175d5f59384837418a ; CHARGE = -1; SPIN = 1
C -1.620161672569246 1.427578490361382 0.16553030029174487
O -2.645493034916647 1.9228134401909347 0.2970152354404849
I -0.6634039867372933 1.6051548578025325 -2.8785364949131305
C 1.3168775500872982 -0.8189289909153528 -1.4450951725087002
H 1.4413947133643692 -1.8009164114658576 -0.966030148638427
H 2.3098398632733383 -0.3454358873531572 -1.4379590946495475
H 1.0831898187276827 -1.0207889725114083 -2.5002171985255917
O 1.9541567581093875 2.665773243793678 1.9740017435662078
C -1.8228691732842488 -3.3344429495548247 0.2867635203112345
H -2.489580227821345 -4.129995375134214 -0.025033628895501633
H -2.074717904757233 -2.9591077359741798 1.2725142754620846
H -0.7844447701092998 -3.6443058617357384 0.2512927827508587
H 1.788344582483238 3.1373021061987725 2.8171472785556224
Rh -0.1570450902473422 0.3837281333707388 -0.516984998449553
I 0.4677352359066104 -0.6870189840437465 1.8436489244396257
I -2.0695309183395767 -1.6977111855079203 -1.1344386116401253
O -0.22086714432010218 2.9447772503787406 1.5351375310989424
C 0.876844709674084 2.5140990921565383 1.2415684511366618
O 2.1404277234801516 2.071418126169039 -0.7146868933868407
C 1.1693029679961746 1.7660076137740317 -0.06563780144605903
