21
## STRUCTURE-ID: 6456770cd177f62e4a248af1 ; CHARGE = -1; SPIN = 1
H -2.224137791410343 -0.18602995230694488 1.714061493814352
I -2.093867356950959 1.9558833083387488 -4.686566454614201
O -1.7766663957024351 0.5558164224167131 1.2821241909695882
C -1.2563618034044488 -0.9069875907694739 -1.5909738575214731
H -2.2002121173366156 -1.0280513702942737 -1.051562555138556
H -1.4320433101664343 -0.27886661664936574 -2.4637178067886234
H -0.9226461773465133 -1.8828713815718512 -1.94087903300967
H -2.4506747962318425 1.2110476697199473 1.07164937019758
O 1.532577247746535 -1.567758076038775 -2.150176190417318
C 1.0404480090629589 0.4274806052664849 3.651635193911152
H 1.4356818446606814 1.0539561047541064 4.442687819307227
H 1.4583706629004591 -0.5734308836545687 3.682316495013824
H -0.042296504387899475 0.3978766283787797 3.667399240034947
H 2.357296465395161 -1.7731877079400904 -2.636138339960272
Rh 0.08779477755911758 -0.05622553779401471 -0.2503260385099352
I 0.2741117707941034 -2.282065236445334 1.0607310014818512
I 1.634676493003418 1.333507724244494 1.7461625433898884
O 2.6776148330430205 0.11118569993944251 -1.2338766679391684
C 1.652715102945959 -0.5280492226610759 -1.347192119258081
O 0.1981519774363683 2.5029798201079623 -1.7596681255798357
C 0.049467068389724936 1.5137895929591043 -1.2076901593833043
