12
## STRUCTURE-ID: 6456881a393dfd1d5c662c54 ; CHARGE = -1; SPIN = 1
Rh -0.9670364561819986 0.2086140808336958 -0.13019729515290115
I -0.498400209138285 -0.20315778614104948 -2.644135774369354
I -1.3126967804897847 -1.2398577600889453 1.9889179618888122
O -1.3232042153559673 3.0361332720436067 0.449518141807692
C -1.7473068552565751 1.9539257276664943 0.12935845466093537
O -3.883122522165875 0.8310419787130701 -0.49148773209546703
C -2.7196801727569553 1.03903844886403 -0.24544799868547792
I 1.928313718489864 0.7008448489286129 0.485489240352243
C 2.560431028764303 -1.3502029190299785 0.1524189875337006
H 3.63073734772702 -1.3893414962397639 0.31022486333149524
H 2.300971201949189 -1.6114174347205155 -0.8682396708557504
H 2.0309939144150686 -1.9756209608292694 0.8635808215840719
