12
## STRUCTURE-ID: 645664b56b60e2061f32bae8 ; CHARGE = 0; SPIN = 1
O -1.7191920603672657 0.9048699418379844 0.31285716966485927
C -1.9751734355726633 0.02028076155152265 -0.7555104964021506
H -3.0377130890151576 0.0006040418939194132 -1.015249657612146
H -1.6404327035218618 -0.9955590820719971 -0.5237127828855388
H -1.4111659117407511 0.38998968367296133 -1.609964627252393
H -2.231959962229623 0.6219490193810688 1.0795374021129052
O 2.9921240551568338 -0.5924490554289479 0.5124851773848843
C 1.6405149649670652 -0.19667006240276547 0.42095818214308883
H 1.3809084885441418 0.5395131136184672 1.1867941883836468
H 1.0430792343569928 -1.09264370667431 0.5770712959788985
H 1.4081643270514308 0.21791363160420915 -0.5639326026073543
H 3.5508460923708647 0.18220171301787932 0.3786667510912993
