13
## STRUCTURE-ID: 64568c540d1a55476c4975aa ; CHARGE = -1; SPIN = 1
I -3.2622552205345334 0.5669544614522342 3.5131209176959466
C -0.9480219506643716 0.41067784290067194 -1.1192049682772165
H -1.0864895951685218 1.4808893401458567 -0.908714417535739
H -0.6926582923908905 0.31176941512799156 -2.1775496133618772
H -1.907930788061287 -0.0934198840135729 -0.9601272161479195
O 2.3993739584149765 0.9598692739515879 -1.716806778532237
Rh 0.517020887978168 -0.2668584122373601 0.20455096690654706
I 2.2684594347126485 -0.9736991699239931 2.153575050921178
I -0.6630324829849076 -0.11319428903419324 2.676085061538547
O 1.3636303872558773 1.7144465425984456 0.19048439897179353
C 1.721847786967986 1.026967257716701 -0.742953551681091
O 0.0672599046166982 -3.0601240536200502 -0.7200553089104372
C 0.22279596985814246 -1.9642783250643367 -0.39240454158749755
