13
## STRUCTURE-ID: 64568c71fe2e2c151222413a ; CHARGE = -1; SPIN = 1
I -0.005161138505294923 0.944391166731279 -2.879675364153406
C -1.3436990359861805 0.011631726297851721 0.1540065324595874
H -1.5825646287857618 -0.731841106881456 0.9400523730921844
H -1.867783276825565 -0.2658498185740564 -0.7593166049277905
H -1.7295593185245313 0.9629431413197892 0.5218446701168871
O 1.0594551371554304 0.46649996946091954 1.9936729494066026
Rh 0.7436557968015043 -0.5521666810539635 0.27269646112584767
I 3.1416031693973827 -1.5014986795657561 0.6926281706194082
I -0.04638156718893456 1.8001042167903176 2.9174978740311373
O 0.3448068655065009 2.170917456389058 -0.23834582777429866
C 0.18663023529048295 1.0666095358900933 -0.634693853583501
O 0.5216167112090787 -2.609857674361283 -1.8735094502226557
C 0.5773810504558547 -1.7618832524427095 -1.1068579301899333
