15
## STRUCTURE-ID: 6456b6bf59c59c3701159881 ; CHARGE = -1; SPIN = 1
C -1.7706004486245575 1.0650383464204802 -1.4478000597322778
O -2.86381533388194 0.8049032686515155 -1.6772756929743358
I 0.4248830804683091 2.5322871443911485 -3.6634332744537708
O -0.4701709364460706 0.12084705534930339 1.5243436784362754
C 0.24030883697571379 -3.4958288309413597 1.4724913801779644
H 0.42481656229484765 -3.8195908865453965 0.46467420207201826
H 0.9265787997029405 -3.7438721857459614 2.259806431643498
H -0.3623140348533344 0.47599764348222956 2.409088139759079
Rh 0.04591073279780186 1.3132930182359384 -1.1440943413253746
I 0.28839603644835704 -1.2892010034236896 -1.8774486150968708
I -1.0460855441934709 -2.013693885007234 1.7588077725337485
O -0.43803963037251525 3.276287186830357 1.0948186919379574
C -0.2553532370297161 2.5283559495655274 0.24188141477996117
O 2.9875867431512297 1.0325315715950976 -0.6209628413957591
C 1.8678983735623171 1.2126456071419622 -0.7948968863620653
