19
## STRUCTURE-ID: 64567b237171fd61b63ae5d4 ; CHARGE = 0; SPIN = 1
H -1.6234920912245812 -2.914797971802929 -1.3116449223412898
I -1.747131659074352 -0.04068481236162863 1.1089166720998398
C -2.325449809649915 1.9536769706604378 0.6478715157284036
H -2.6912259878646725 1.9647719625030071 -0.37114996445313064
H -3.09425585881819 2.247323554540091 1.3500055550681045
H -1.4379181580408549 2.565503342959598 0.7476417793626757
O 2.6136095104795167 1.7735602991314996 -0.607222802182903
C 0.8817461083382286 -3.1727975122285788 1.339821940084011
H 1.3759637879480413 -3.6134702255697526 2.19765101684467
H 0.793815825185449 -3.8863048801321214 0.5273419243185196
H -0.08042761150977626 -2.747623128704489 1.615430747579225
H 3.026137002790981 2.555436005426861 -0.1901443567101967
Rh 0.5112208439385734 -0.045450389017423196 -0.90741324316965
I 2.1384224694694143 -1.5246396705521448 0.6422643972013694
I -0.4953582928514958 -2.269768473125666 -2.2308362589982194
O -0.14893617906625622 2.089468733442377 -2.8967462598317537
C 0.07011052439624371 1.2032238294255675 -2.183105247429048
O 0.8695768722234359 2.307569163250311 0.6747335220340945
C 1.3635927033302158 1.5550032021549811 -0.15341601520474174
