21
## STRUCTURE-ID: 645674c69cc27f49a4662c7a ; CHARGE = -1; SPIN = 1
H -2.1112841359262324 -1.366318948147874 2.081184866553251
I -3.7341674591910237 -0.40177609418895704 -2.501518058548868
O -1.7843967714233224 -0.5955263887508937 1.6033865596960237
C -1.6968564123506025 -0.4625551962489254 -1.892724262493133
H -1.201526719696259 0.4333557449525968 -2.2498212770183637
H -1.2459681298419893 -1.3446101164808892 -2.3301449924008057
H -1.6725912121955704 -0.5105421423365363 -0.8104577891750402
H -2.3269585802704285 0.14930588679475681 1.8961214280830594
O 0.5282652353402844 2.101445344626584 -2.6077299256855593
C 1.8518532969866062 -0.02743730836969531 -1.4414698353021953
H 1.8663014360774035 0.35873385402904223 -2.4491472826149066
H 1.331917647212074 -0.9777675620364288 -1.4021201405563308
H 2.85844867018355 -0.1265417100245965 -1.0497959041835114
H 0.16013118522721903 2.9842259760080965 -2.6455143472859617
Rh 0.7731533781678184 0.24458093834230932 2.099772410938119
I -0.30132354526643373 2.519906329504181 2.7417174366190142
I 0.807371924132739 1.378121135027466 -0.2520499870193516
O 2.264502748069791 -2.092375743550504 0.9899583850292787
C 1.6852217046305273 -1.1983929673567466 1.4356308338174057
O 1.0728239404571853 -0.7105704808302769 4.928514549207364
C 0.8750817996766768 -0.3552605509627119 3.8562073323405044
