39
## STRUCTURE-ID: 6456fb212ca1d36d8a623184 ; CHARGE = -3; SPIN = 1
I -5.078650022437015 -0.3706870923408591 -0.47295656944425035
C -3.0200670907685447 -2.790612600247163 1.3454769453403224
H -2.559581015984728 -3.1217859472936085 0.4147536019328457
H -2.6796616232121178 -3.4227771935920095 2.160074819907313
H -4.099773335832975 -2.7781516422236536 1.2364072002650695
O -3.451083210902152 -0.8192427577993301 3.273842079886296
C -1.8549334103953679 1.1488388975414319 2.8027753999085427
H -1.7835777220979085 0.9988774168471 3.8731018003628437
H -2.6630460465766648 1.845496387947327 2.5741109726849998
H -0.9203530487870316 1.5803725160455022 2.4341194783466302
H -3.916694974729476 -1.6675343251763766 3.330143777879641
Rh -2.730724864393194 0.6554670502907395 -0.39670137053047155
I -1.4003150304420495 -1.4827068353221868 -2.101558338762426
I -2.153953220400844 -0.7372311508990348 1.7055950796481167
O -0.7262765353274452 2.8113281832446146 -0.10933706682547277
C -1.0066354076918433 1.58622251417498 -0.08020339402879625
O -2.7138387485642865 2.865619750271104 -2.3873330478535824
C -2.857446785384741 1.970184600535022 -1.6473593170569296
O 0.27315384327849457 1.4192884556507386 -2.28833886826486
C 2.371335896431292 -4.024234262310354 0.5010650761872008
H 2.784038291145539 -4.139314238792551 -0.4989702078260425
H 1.6060319938259777 -4.766418394619443 0.7162934370948211
H 3.1559887707030776 -3.993005979924465 1.252941345105619
H -0.3896338161932028 -0.29128016589782985 -2.25022973321808
Rh 2.846311354638203 -0.04777362411786726 -0.10157035287299972
I 4.959071371125875 -1.1836091300333604 0.9033748550871447
I 1.284349578838371 -2.0609611070322216 0.5422534967310499
O 0.04524997460742479 0.7140035680720085 0.23510921874045504
C 1.314757109140923 1.2654570812330042 -0.12119195745463217
O 4.400745228736838 2.4688813252469357 -0.4128597997703766
C 3.77953689892569 1.4716393873660563 -0.5498921538522255
O 1.6752270603923136 2.2715853022503776 0.8565217808848176
H 1.1503492535046178 3.0573257558064126 0.6366487159156916
Rh 2.8921904184858196 1.121587763116531 -2.4020271540233677
I 3.5052824373067626 -1.2732569484356264 -3.012893444443613
O 1.7212064774937976 3.03085762709896 -1.672064249024882
C 1.1343304992431524 1.9114905862277882 -1.4562387509113253
O 2.373368282260757 2.7771761117847635 -4.807199612636596
C 2.7337211700364623 1.9988831153064186 -4.025683693108403
