12
## STRUCTURE-ID: 645666f7b060106e631688fe ; CHARGE = 0; SPIN = 1
O -0.3411762532555262 0.26517561376561005 -1.461921261550803
C -0.3252812916106219 -0.8170760225632786 -0.5756725808709028
H -3.9080753182350105 2.2223333247671277 1.4453020026889556
H -0.8208781039632806 -0.6058629984667986 0.3874565068598492
H -0.8533384703980816 -1.7021019624516647 -0.9782337080794987
H -1.2131468449139315 0.6683141821478622 -1.5144492912424734
O 2.0107842727131513 -0.5651618991157807 -0.8356859903104353
C 1.0634570876583977 -1.1833295973073346 -0.31930195051510507
H 1.0387361012823684 1.6287063110048074 2.5252633661299915
H 0.32680699855180356 1.9234507372589362 2.41506771274116
H 1.3040480059030815 -2.0264786646608695 0.32804861656944223
H 1.7180638162676578 0.19203097562138052 -1.4158734224201839
