12
## STRUCTURE-ID: 6456677996dc582db42fdd8b ; CHARGE = 0; SPIN = 1
O -0.02582822245300566 -0.25955525525000317 -0.18176599474734528
C -1.3695439303047188 0.1495351077711649 -0.3213323239225191
H -1.4665479031563522 1.2313642707983647 -0.17844025037800526
H -1.9374536190923648 -0.37229250011403814 0.4452672752732626
H -1.7562982906268998 -0.11575462114286209 -1.3110805150773903
H 0.6197275048673913 -0.3928956581480217 1.6272946525585177
O 0.9299383899108892 -0.5536408950954081 2.531031873288262
C 0.8305284760669016 0.34323501425675124 -1.128008637500335
H 0.5250445219515345 0.08675880571069569 -2.148057155631331
H 1.829327825654868 -0.042340432475531105 -0.9376185381891198
H 0.8298172041930937 1.4333062376273134 -1.0186430367122785
H 0.9912880429886224 -1.5077200739383947 2.621352651038292
