16
## STRUCTURE-ID: 64568df40a5b4f49106cd4aa ; CHARGE = -1; SPIN = 1
H -2.8463529023121326 -1.8173929143713101 0.853763895922244
I -1.7214393011306661 -0.5376403067638547 0.9650710266469217
O -0.629273728044656 1.4493045964704596 0.9202504215918508
C -2.8030029946420343 0.21624222850846023 -0.7243636667688413
H -3.8238283563023368 0.3908311590946139 -0.3991384156663479
H -2.7359809736939975 -0.525945307648511 -1.5114467427040144
H -2.306035638944773 1.131042671375351 -1.0197940677605224
H -0.7721975802418483 1.9376615009633478 1.7358706876901528
O 2.1910849730236888 0.08391837986691426 -2.790770640818857
Rh 1.152488799710483 0.015285741565624488 0.6623465823623296
I 1.5295810682748205 -0.20316563120847653 3.213839614902665
I 0.5705332264574715 0.06769205062271993 -1.880285390615435
O 2.818222780145399 -2.3056669949341884 -0.195780857438885
C 2.5841950017344977 -1.144986817538916 0.08140656480037325
O 3.772135895215715 1.08993218674622 -0.0015447780298118666
C 3.0198697307503637 0.15288745725152966 0.09057576588617838
