16
## STRUCTURE-ID: 64567976e2a3847e1862318d ; CHARGE = -1; SPIN = 1
H -3.71065569060477 1.607237131188558 -0.15108919529000747
I -2.2697435118777483 1.050521346283841 0.48046132047310935
O -0.4361124772607516 -0.10174895373307989 1.388431724080147
C -2.351850461343732 -0.4935787144668153 -0.9816634412939126
H -1.5192655212313786 -1.1564588713149284 -0.7800082813130365
H -2.2311524161964162 -0.02364923861302384 -1.9502833662958918
H -3.3011529572059604 -1.0055932127618639 -0.875791407734961
H -0.7049596976036762 -0.5436920889849909 2.2001156299080007
O 2.17107474637737 2.1584151474095394 -2.261292578520531
Rh 1.7591866282755266 -0.3272898248803172 0.09619285588293394
I 1.41515496070542 -1.9924068281478162 -1.9003027343084862
I 0.6338455440277885 1.6897145276221623 -1.269356441954762
O 1.4193085673051404 1.1321006526728474 2.7034271728418555
C 1.415923049594608 0.557073949494691 1.6933199644522698
O 4.393448610938132 -1.4543430810362303 0.9286459369387298
C 3.3169506261004194 -1.096301940732414 0.6791928421345826
