19
## STRUCTURE-ID: 64568efae0387b0c9c5fdaba ; CHARGE = 0; SPIN = 1
H -2.0272552343932273 -2.8055615318014455 1.33529729493838
I -0.8937401436973208 -1.8242786747824271 1.8709526851184335
C -2.5200098676976386 0.5915730143157062 0.02516120040763354
H -2.831551234295625 0.5790575621880681 1.071294433303151
H -3.079009041336387 -0.16072492499463778 -0.544561623099666
H -2.742048323564298 1.5775047932999846 -0.383865851861312
O 2.0241409439039604 2.260905644336698 -0.15500379715878568
C 1.8444837035206478 -3.0051438140460953 -0.7481107981091076
H 1.1921710559291652 -3.1288948119135283 -1.6060296441525526
H 1.4067452589562293 -3.4217119496263715 0.15353768196246
H 2.820680156208215 -3.435061153507047 -0.9390088154657269
H 2.5125914093182904 2.9679424607396987 -0.6250449469638738
Rh -0.5207227496132096 0.08361279392241333 -0.1234166741533627
I 2.134931256795157 -0.8702161959012008 -0.4369811994687733
I -0.5130404270589042 1.1711411244172045 -2.4979404939431493
O -0.10887335207160226 1.510788639734924 2.1848447609879815
C 0.09909982237935985 1.5254801313719846 1.001932884276971
O 0.3667100849028529 3.7441206389257555 0.14566677484266577
C 0.8346966818142775 2.639466253320231 0.2712761285385617
