12
## STRUCTURE-ID: 64566a1d2b8a730ce82c50ce ; CHARGE = 0; SPIN = 1
O -1.5274910533926078 0.4553067571186775 -0.6278757543940898
C -2.030324962688951 -0.6444276867708271 0.0927153733660558
H -1.5207976726055927 -0.760142261196257 1.0551877248757204
H -1.9310849270719528 -1.5744544991874379 -0.47638787217530176
H -3.087216515902886 -0.4518987250063209 0.2745564365381293
H -0.5747144727329776 0.30727992185602954 -0.7790804294834531
O 1.284685816216867 0.11415125665213068 -0.8305002194047516
C 1.827480557356282 0.41656066802966424 0.44061258093193895
H 1.4287431310202934 -0.3207682520851927 1.1351860243996015
H 1.530201690065258 1.4159796645572313 0.7702782458588869
H 2.9172231207247883 0.3445905383712249 0.433040024324186
H 1.6832952890114867 0.6978226176610792 -1.4877321348369261
