18
## STRUCTURE-ID: 645670104b1fa339975b5c23 ; CHARGE = -1; SPIN = 1
I -4.336729009370641 -0.2780064161134427 2.0192238086579843
C -1.7239217931031474 -0.2851670432850237 1.3157919045221278
H -1.5643244976788344 -0.021187580726350345 2.342017625576462
H -2.021138994741494 0.4755778666200538 0.6197116043290591
H -1.896930466317732 -1.3154672210380007 1.070510937592021
O 0.2728202018491884 1.599658075614841 -0.31450596443741496
C 0.6536911921282816 0.2795310303595102 -3.182718757478807
H 1.6396524170535562 -0.08193958583023236 -3.4530268352718814
H 0.714816264008497 1.1836966193381049 -2.584426789197594
H 0.011027804800650737 0.40475510594684055 -4.0454673157361585
H -0.16835711349639473 2.2728545204638304 0.20701972286496798
Rh 0.6550213671102987 -0.23467708915758723 0.5334211025374774
I 3.3326523126411485 -0.2505474131213847 -0.5389515473966912
I -0.25529905136929454 -1.2026808161528515 -1.893443676715908
O 1.350553699077831 1.5043106411293434 2.848235604994039
C 1.039219979226314 0.746715445784378 2.0465716366238564
O 1.2932062840246286 -2.9019019206823446 1.7387376487619803
C 1.0040394041571306 -1.8955242191497184 1.2712992897744495
