18
## STRUCTURE-ID: 64568a9bd5dc0301c528a804 ; CHARGE = -1; SPIN = 1
I -1.9285296343565952 0.5565529678732054 -0.566334872369505
C -2.7882776144688353 -0.917762810413503 0.7163853382716716
H -2.5752125579186678 -1.8917500537352547 0.2912215650049353
H -3.852626201100844 -0.732960959344743 0.7747945091250685
H -2.3062832338499684 -0.8099481160738231 1.6805621277076215
O 1.9753476248560824 -0.20353726833216318 2.376626246547901
C 1.1427988773403348 2.4269888690948416 -2.532656888157483
H 1.4889000870307847 1.7797089567794153 -3.3312679429229615
H 1.4657007625919176 3.4505573405219456 -2.6752691308885557
H 0.06398985777810441 2.3541760420779596 -2.4185364006707046
H 1.8949268641485937 0.03446217037522945 3.3215355089571323
Rh 0.8119501542125633 -0.6337349882294111 -0.15247610633529166
I 1.0233816087408594 -1.454431974458444 -2.7090088148404465
I 2.031615804619606 1.7081737327769266 -0.6726361227711254
O -0.22771851147285002 0.10126792750622333 2.437673606823196
C 0.7598379058322124 -0.17897826830713578 1.7573212128242857
O 0.4330078745790094 -3.296639367861239 1.139844354481432
C 0.5871903314377209 -2.292144200250006 0.5622218092128085
