18
## STRUCTURE-ID: 645689abbdcf1f473f3dae44 ; CHARGE = -1; SPIN = 3
I 0.21848414169453753 1.8811303881113781 2.2214465982884275
C -1.9740655176138893 0.6941443518730431 -0.3442216093766353
H -2.3841518018514662 0.9407275315626105 -1.3278765484596358
H -2.3788202580441777 1.4240226706690557 0.3636093110054117
H -2.3343447488885145 -0.29990463450548555 -0.06386529482663479
O -0.4006686549435077 -1.4105984411028798 -1.885129619227213
C 1.7740270145793966 -1.694778123741414 2.6477961897904967
H 2.0018088114814065 -2.6565097280474315 3.089337491781226
H 1.4441615532738574 -0.9791879121936334 3.3926142751707333
H 2.617984624616308 -1.3088838026130116 2.0855274142629003
H -0.5350638833804093 -1.8313352893837844 -2.758972098200341
Rh 0.17059036270059125 0.7810944141509235 -0.2262786403492738
I 2.745924642180957 0.23029710430763606 -0.7804377303283271
I 0.14312688592525433 -1.9920700317001216 1.25475158457168
O -0.24571421560787818 0.48483867348664866 -3.0433357891726667
C -0.21667437263015416 -0.08842463255166427 -1.970233129781293
O -0.745915611600907 3.2266460348476986 -1.5732325327587173
C 0.09931102810868084 2.5987914268304246 -1.0814998723900973
