12
## STRUCTURE-ID: 6456882518bd9d2c1632dfc4 ; CHARGE = -1; SPIN = 1
Rh -0.025926390981831575 0.7800785297643471 0.028007771581136865
I -0.5206168972520809 0.9570700103894865 -2.5281634645795816
I -2.9129702181775254 1.2426725244539558 0.7027246441045812
O -0.22144110447889495 -1.8958298263012077 1.0233837462615158
C -0.7434774259779124 -0.9119902318680908 0.5579772443895691
O -2.7962282790516744 -1.4459728450594067 -0.6016577897902678
C -2.1425016009378073 -0.7688040317672025 0.1273237399903598
I 0.7102254234700041 1.7309448123389632 2.320888639242759
C 1.9091372277042276 0.15036860626193718 -0.35402413159401463
H 2.4781903160712977 1.0385462526540779 -0.6529743812177763
H 1.9134704283535744 -0.5842204949796312 -1.1613520175971241
H 2.3521385212586234 -0.2928633058872307 0.5378659992088477
