12
## STRUCTURE-ID: 6456654a6e10ce6b105eb028 ; CHARGE = 0; SPIN = 1
O -1.2933576854485112 0.8122921393922345 -0.10590433924025976
C -1.7802239213679398 -0.4033705597313249 0.42735956506351985
H -2.8306465747838456 -0.5576401849781324 0.16938944126496364
H -1.6647091548280768 -0.4355256831352537 1.514394090973871
H -1.1880574070709395 -1.2004232208598555 -0.0184754015162927
H -1.8212703576120373 1.541396056398163 0.24145847679177945
O 1.5546100987597995 1.035305901171656 0.0074117042219908535
C 2.0074704359456064 -0.2143036038509146 -0.45655124824055754
H 1.698464295606278 -0.3931949022850153 -1.4914314359387097
H 1.640192337276504 -1.0320781277292068 0.1728781020003848
H 3.0957427901083268 -0.19632923517452006 -0.4103072004873669
H 0.5817851434149052 1.0438714207820905 -0.05022175489334544
