12
## STRUCTURE-ID: 645669a19874f830970b535e ; CHARGE = 0; SPIN = 1
O -1.5280098906579114 1.1176024981322015 0.31786315638924095
C -1.847024661381951 0.03162941276922368 1.159675484143055
H -2.162933340760987 -0.8429129895856882 0.5827342878916191
H -2.63229968175311 0.2952959267057328 1.8747465137072232
H -0.939491319796219 -0.21453412048738948 1.7085801638178164
H -2.3127742296448033 1.3616915988136467 -0.1875536385909553
O 3.345684307568336 -0.9810705154574668 -1.515747394532262
C 2.1509546721307866 -1.0148578144432014 -1.405803381891195
H 1.1455532331030724 1.421291841062464 0.24241610896778024
H 1.6507341556772603 -1.5587196650923236 -0.5904360349983908
H 1.47907588811149 -0.5213458196137135 -2.1233243235718073
H 1.6505308674040347 0.9059296471965143 -0.06315094133211535
