13
## STRUCTURE-ID: 645673bb349fba47432b66aa ; CHARGE = -1; SPIN = 1
I -1.8720264889027598 -2.2766978675060616 -0.3261621407053686
C -1.2812616802146812 1.0031456363466136 0.4167347731924376
H -2.127664781335219 0.893719009467796 -0.26200337275207414
H -0.8264881301042301 1.9795684548827854 0.2403401005563824
H -1.6482853013108645 0.9611177255887368 1.4434307625585616
O 1.236334294682479 1.1084248410509536 -3.056895235268018
Rh 0.12249374037152756 -0.5707850721538615 0.01934515240745649
I 2.157132631167376 -2.4627728488627376 -0.40300667614958435
I -0.08466143451404384 -0.1267754031759678 -2.5929965142264217
O 0.21810920905387152 -1.4383659236158215 2.889020730037389
C 0.17494708935737968 -1.0582522030979573 1.8210744313370337
O 2.40849057199153 1.3439551435106614 -0.16091165738865004
C 1.5228802797576382 0.6437185075648716 -0.02797035359914125
