10
## STRUCTURE-ID: 645688d1fc57663a264085fa ; CHARGE = -1; SPIN = 1
I -1.5295168244817738 -2.0601516019397934 -1.4527861976037812
O 1.3573610303522348 -0.06178001019381094 -0.9120934058507726
H 2.1367877428240636 0.03619646869942383 -1.499623538008271
Rh -0.4262644315122153 -1.0292418822095968 0.6610688984708023
I 1.2967718916277575 -0.68238771204765 2.5730745241403965
I -2.3288821630882124 -1.7373402759473209 2.2411951166608404
O 0.8509981036480906 2.0770339983941546 -1.3625021827408237
C 0.6189061325614708 1.0383194587221602 -0.8045861045011133
O -1.4024396000812909 1.616967895855617 0.42927995641008027
C -0.5737218818501184 0.8023836606667311 0.1269729330226242
