18
## STRUCTURE-ID: 64568ad652c44e6b146c2b43 ; CHARGE = -1; SPIN = 1
I -1.3606420736727773 0.9211677645451056 2.9886174528575427
C -1.887042678696232 -1.269347760274678 0.2788447453050009
H -2.2645335292646016 -0.4858481252746059 -0.39459671266803825
H -2.661824475545146 -1.456701583365031 1.024661884730451
H -1.7512687652224834 -2.1779490259174312 -0.31121302951479546
O -0.29795658325523644 1.6210357404440117 -0.20402530959656784
C 1.086308905854504 0.558587273263053 -2.710952849052719
H 2.081106340309988 0.9075703007347967 -2.963390034327082
H 0.5201095192692158 1.3269138324766703 -2.187796039979481
H 0.5527142537400163 0.16236379602902754 -3.5666249203818006
H -0.851594775784204 2.3164686836630355 0.16035730456653796
Rh -0.06701531846974548 -0.13897152306740104 0.9089512065992836
I 2.664364180960798 2.2607534383852 0.3179514535836794
I 1.2994437375801138 -1.0477514403427046 -1.2655909545199626
O 2.1930217307811493 0.44861741559042134 2.5884835093273897
C 1.6126469246451969 0.7178881732133297 1.5887665630667813
O -0.5424031650661979 -2.848798548618619 2.116445678854167
C -0.3254342281643511 -1.8159984114841834 1.6311100511496208
