13
## STRUCTURE-ID: 64568d01ac84fe1c414efcb0 ; CHARGE = -1; SPIN = 1
I -2.0145943502550234 -1.9704875438119518 -0.4459763446380577
C -0.9029930535341919 1.4481279796358602 -0.15234144182100057
H -1.7146816060017205 1.2486625033873051 0.5514916140262038
H -0.407262283804281 2.371607902825539 0.14277499948771288
H -1.332330706770003 1.5882122543269077 -1.1491154834510935
O 1.2744962564774942 1.1112384546447536 -1.653672804896056
H 2.151536099881687 0.8470028819059181 -1.9526377324305881
Rh 0.4691096946766167 -0.13484940771457113 -0.40220146920060895
I 2.159761902943922 -2.004218236894352 -1.2936461667286303
O 0.1744618547143491 0.046079219074282834 2.5658132915429457
C 0.1807129382620504 -0.23531104986109097 1.4145683790068675
O 0.13722284803012236 -2.641026959610506 1.5029120871161499
C -0.17543959462102054 -1.6750379979080858 0.8720310719861638
