18
## STRUCTURE-ID: 6456b755d743ee5e9e40860b ; CHARGE = 0; SPIN = 1
C -2.031705090718054 -0.6434062505177693 1.1747183048150291
O -3.178860804387828 -0.6965328852950791 1.2020726294347306
H 1.071951222861236 2.571130538849656 -1.2763852559964708
I 0.6106665570545007 1.217828135796333 -0.42650153266417673
O -0.01777907356688471 -1.5294538599748224 -1.4826969408915693
C -1.1782152645036739 1.323881068602106 -1.5995584781849423
H -0.8952839197408637 1.2420050894342487 -2.643341478172703
H -1.663399993674405 2.2692725381515415 -1.380585480420745
H -1.8067436664740713 0.49119271460681946 -1.3083889388246184
H -0.048542803183813626 -2.1557671983568625 -2.233911908192774
H 2.777942383628078 3.129992841998785 1.9448511632768217
Rh -0.19172998464979976 -0.8666197801156882 1.258296149241877
I 3.642884391484994 2.4205290462015054 0.841083968273045
I 0.08067510638192402 0.6232558275726687 3.4374070881954872
O -0.6834799217533488 -3.2732222882749165 -0.27460778164994276
C -0.3515450089236942 -2.096618037172097 -0.3047161081318735
O 2.384446169234062 -2.353423567696083 1.6223286995679387
C 1.4787197009316415 -1.6740439338103386 1.449935900324884
