8
## STRUCTURE-ID: 6456642f920c593a2c7ffa88 ; CHARGE = 0; SPIN = 1
H -3.1694187058104575 -2.0427448488709055 4.834510452928659
I -3.1766527303239855 -3.602645496011886 5.020085969674056
O 1.251230517815138 1.9486694928326815 -1.2945145705748662
C 0.8693090876811218 0.7116345887714577 -1.8554689328473777
H 1.7007921286972263 0.23726973533349602 -2.3857767205807465
H 0.07310076985440729 0.9249779907128596 -2.566529645311356
H 0.4894725808730993 0.025508954301081736 -1.0921477398190906
H 1.9621663512134395 1.7973295829312042 -0.6601588134692766
