12
## STRUCTURE-ID: 64568e17311d7c4efa4975b0 ; CHARGE = 1; SPIN = 1
C -1.2667733202137774 0.7268212124493257 0.4015083738404149
H -1.3360828852946043 1.7807649218724344 0.12806373750686675
H -1.6730010399237274 0.5515311647531645 1.4016178265779606
H -1.863604559727811 0.12083979263809246 -0.3088447964547999
H 0.7637378181296951 -3.6201979404740894 -1.0031975329667409
Rh 0.5432191404655432 -0.3324420614883793 -0.1352099027060965
I 0.9706633175811062 -2.323271867495361 -1.8967565659751253
I 0.4127675620750156 -1.9755167255180677 1.8914158028536112
O 0.7359627700410152 1.6244826323811128 2.1011807064018297
C 0.5221347314927546 0.9118960438691538 1.2475419771822156
O 1.254414393935645 1.6268464716287827 -2.3168845085894363
C 0.9365620714391496 0.9082463553838324 -1.5104351176706903
