12
## STRUCTURE-ID: 645666e18983e87c6b6cd4b8 ; CHARGE = 0; SPIN = 1
O -1.3637757079763437 -1.468438949820804 -0.18619593406337048
C -1.9093970434754195 -0.18312714313438375 0.03362917627718891
H -1.1888652052806556 0.47466482384094405 0.5276714131623037
H -2.8249589822507555 -0.23576670337630776 0.6304805834735052
H -2.151000886748017 0.22304807201222593 -0.9472808075613562
H -1.1333813189417152 -1.8521716339855876 0.6682260007742903
O 1.2883388770493227 0.9548164448173531 0.7465230896032027
C 1.7456519704649054 0.2777834967592497 -0.40583151567367665
H 2.6173243290717 -0.34468696349488326 -0.18277657890447652
H 1.9991442989471713 0.9795229184702611 -1.2059160571846568
H 0.9314231149953743 -0.3623115730008888 -0.7419417990552875
H 1.9894965541443714 1.536667210912818 1.0634124291523575
