21
## STRUCTURE-ID: 645675d902b1205c303eadd9 ; CHARGE = -1; SPIN = 1
H -5.451866119336669 3.669312566660226 2.2964993340015933
I -4.178443371732105 3.090249781419701 1.4068112162071624
O -4.323431188048279 2.0142286467208415 3.164978419210102
C -2.3558690646127363 1.602133815435607 1.0924901907178604
H -1.7477705962370684 1.8904836644277268 1.929477574028549
H -2.055712873039078 1.9569338916833503 0.12193848360993627
H -2.8810450528126825 0.6659253859271275 1.1255473126264042
H -3.654941860258271 1.332360567246175 3.2424968690576668
O 3.8174979041794708 -3.657617150940625 -1.5900268389483105
C -0.6367623614323924 0.20772483377220452 0.8092395971502337
H -1.1063433352477376 -0.18553102655509376 -0.0679277673549597
H 0.024560126246904176 1.0426689504481108 0.7095165229796174
H -0.7968259732269822 -0.24703994757337439 1.7643869651170352
H 4.631039459532563 -4.118986713607845 -1.3062370466404876
Rh 2.443806261798166 -1.1728034074686242 -1.955246502379926
I 1.4640663744475801 -1.484002167252591 0.41963653918964194
I 0.7274003082964097 0.6725264468522831 -2.6793841639443583
O 3.8720118275309257 -1.6842601802290964 -4.5185800286589926
C 3.2577112545214724 -1.417007206197024 -3.5582474110957256
O 5.008950435628658 -1.8727039562576093 -0.9792205789698714
C 3.9419678438018493 -2.304596794511472 -1.4281486859031944
