21
## STRUCTURE-ID: 6456771fcd25e23f2b092937 ; CHARGE = -1; SPIN = 1
H -0.8636383082758112 -3.5950071123738154 3.176675114837789
I -1.5396542396809345 -2.6018478002488052 2.067628330378979
O -3.028571265584639 -1.5696726517114117 0.19034727739612534
C -0.5828871605686922 -3.66592103991935 0.4974006282753835
H -0.81965041678976 -4.7164333351950765 0.625173259591386
H 0.4785005717468207 -3.4516728460337807 0.5721351897115687
H -0.9979517029559489 -3.2561874632259857 -0.41385999394152423
H -3.9462334421305707 -1.4786545846032284 0.47142103729143864
O -1.7899311216938278 0.7729511666835774 -0.6106221351655572
C 0.35699489442133076 3.471834564201193 -0.47766754955795476
H 0.22680480366008368 4.402465032517747 -1.0335011836198342
H -0.6325601767409716 3.0358655161149013 -0.31221172759219135
H 0.8224294591120529 3.670390429822583 0.49017729819013606
H -2.7137376398227753 -0.6996169819171618 -0.1298411481802665
Rh 2.1111945394395817 1.0291608387749107 -0.3923744407502272
I 2.868944394377247 -1.2468195267152848 0.664938075527191
I -0.15017724265267862 -0.03654777266451274 -0.11381543869938586
O 1.0474528072989675 2.505194044303626 -2.5403903640032097
C 1.1547247904181595 2.4580843687612943 -1.305965622234101
O 4.413977855359854 2.8865455454981346 -0.8162654189711606
C 3.5839686010625273 2.0858896079303766 -0.6093811884845108
