19
## STRUCTURE-ID: 64567b5565b63335ee4b65fe ; CHARGE = 0; SPIN = 1
H -3.754019792535969 -0.1690159685241774 -0.7373030272396324
I -3.086763292927838 1.1044630132341324 -0.08823462557874963
C -0.3763593091046989 -1.3126834823885376 1.9584536837998148
H 0.02300455268590515 -1.273879831457394 2.970330887501565
H -1.4269633015421466 -1.587270750745315 2.007216218355699
H -0.29675547366477106 -0.31300252294817366 1.5270526239727773
O 0.07972103350247381 2.719686287504473 0.22429979818213266
C 0.4245547617039263 -2.3163065563641947 1.170589941653579
H -0.026461990220336944 0.3401235780957562 -0.8070187874523697
H 1.476320812673081 -2.04902758569771 1.1179714122881095
H 0.31083229505515353 -3.3239987471258035 1.557757400067826
H 0.501416457844494 2.7603867220772935 1.090366737448328
Rh 0.86002255543581 1.4969290543723923 -1.0818682384299845
I -0.23502229954857756 -2.4347384011105357 -0.9091360552296701
I 2.800797279058452 0.92518968066144 0.5538865770970443
O 2.4823470460143806 -0.05164057091568871 -3.076620822508921
C 1.8031160438901244 0.5056265449790521 -2.354293378575676
O -1.155802507161812 2.7626849680048333 -2.8846130804812256
C -0.403984871157635 2.2164745683481697 -2.238837264870658
