18
## STRUCTURE-ID: 645670096454a40e356cdb4b ; CHARGE = -1; SPIN = 1
I -2.937700012470876 1.3071392413760163 -0.16424490138116227
C -2.3049519495052158 -0.7043404847894914 0.08981372618211234
H -1.1938061016144397 -0.7316210550732648 0.1917717830917426
H -2.6227513727929703 -1.2714341101269655 -0.7767284433579795
H -2.753722349392953 -1.0875016548832126 0.9973284657846158
O 2.1450550292840496 0.1486897618716408 2.567916909801416
C 0.3665698841267467 2.114359459951966 -2.580492896357115
H 0.6093061758087026 1.2339125927931087 -3.1666053151351665
H 0.9035236560382821 2.9867953798004137 -2.9318950339428262
H -0.7034871624605162 2.2901179479434957 -2.5602188160971155
H 2.060564585557918 0.4408137553165781 3.4971036733640055
Rh 0.9229821834054563 -0.78936469055456 0.17981223945491487
I 0.6979399656019082 -1.748128425603644 -2.282335310553905
I 1.0119033760410598 1.7390753074626368 -0.520438039696307
O -0.06319158439119475 -0.09021052542543319 2.758443201854846
C 0.9341435427816469 -0.1844014702072282 2.043330227664741
O 1.6062940803939505 -3.2937993762475606 1.6469240919581778
C 1.3213280535884493 -2.3601016536044908 1.010514437365009
