12
## STRUCTURE-ID: 645668d9cff4a4593c6f2ca3 ; CHARGE = 0; SPIN = 1
O -0.14004533295161595 -0.007282702862951316 0.695154387175981
C -1.5152690186423092 -0.00013223784690186973 -0.8728243192545917
H -1.88474924663055 0.8956706478252623 -0.3934247405083397
H -1.8883999365212312 -0.8975230613993969 -0.3992847823862139
H -1.6163880887684123 0.0036610836410847706 -1.9539751231546956
H 1.1209670182894027 -0.023846637072754216 1.565572189263579
O 2.015591916774553 -0.02485827816648957 2.043402271550034
C 0.29530885695971404 -0.004423378623875272 -0.6404983589663252
H 0.19759533456222925 0.9600562288951117 -1.187864056047624
H 0.19285951878452592 -0.9649848485692845 -1.1939395760236327
H 1.4380019338089616 -0.007716101730658384 -0.6307529047551631
H 1.784527044334742 0.07137928591084372 2.968435013106976
