12
## STRUCTURE-ID: 64568eba3b9304415f2eaab0 ; CHARGE = 0; SPIN = 1
C -1.5478708017405856 0.29453059145981697 -0.5664759091793184
H -1.9643767581968865 -0.5971887036387623 -0.0656354566394666
H -1.9106131575126648 1.1986963040146108 -0.07975802634333984
H -1.8438193357662667 0.26705618648780743 -1.6159728103044744
O 2.293518303898273 -1.8440094720255984 2.6870590686784412
Rh 0.5165688416119382 -0.27303250472607477 -0.14466807212981614
I 0.6667993953553502 -1.7770236143945821 -2.2508666325783184
I 1.8533013386686443 -2.175668385773966 0.9302832954643279
O 0.847002883725907 0.9469149016636137 2.581702505490348
C 0.6577995954675017 0.5585510107728121 1.5371985119542073
O 0.20228712446018773 2.1642980831501624 -1.8317684995374568
C 0.22940257002860093 1.2368756030101589 -1.181097974875127
