12
## STRUCTURE-ID: 64566b6b1a3bde0c735ede0e ; CHARGE = 0; SPIN = 1
O -1.471294048024263 -0.10555464349923732 -0.4050534712080803
C -1.3892035922899288 -0.5168829209800809 0.7289497789537083
H -1.5368990046479485 0.1360386086811563 1.600383813947493
H 0.797257267327863 -0.14408974147650447 -0.9557825931624904
H -1.3285153643486949 -1.5884433620058764 0.9605579915804533
H -1.129008901545607 2.032196114160834 -1.7070279254651037
O 0.7896315114301387 -0.4057876048070204 1.0972888829036196
C 1.3792522381520245 -0.6351284946228231 -0.1675598302078631
H 2.4096451080630015 -0.28016266558535025 -0.19284535014610013
H -0.8209035533694589 2.6998326618061244 -1.9653752098089847
H 1.3598622283290576 -1.7101961631997058 -0.33531200002374495
H 0.9401761109237774 0.5181782115284842 1.341775912637139
