12
## STRUCTURE-ID: 64566a1d2b8a730ce82c50c6 ; CHARGE = 0; SPIN = 1
O -1.489996590889085 0.34934909356537364 -0.9833260932558748
C -1.389196196093886 -0.4764945063483058 0.09525265552933311
H -0.2632921938789219 -0.3577619164461356 0.4384024335675821
H -1.4898156686669952 -1.5420376160456029 -0.14525448770864519
H -2.0527180816874164 -0.17380478344921016 0.906894782000393
H -0.5005068790338377 0.30841430315471635 -1.3590661137865028
O 0.9316902539301937 0.1385405615604115 -1.2977153606716654
C 1.0936963789597072 0.12976461027330402 0.801847721959837
H 0.7796860031741433 -0.2468527657127479 1.773895945082088
H 1.1178605866329303 1.205866259355282 0.7761209282632445
H 2.001035704620673 -0.35225798830943733 0.47996402258245824
H 1.2615566829325005 1.0172747484023652 -1.4870164335622569
