11
## STRUCTURE-ID: 6456884b8a0c8433143d7d7a ; CHARGE = 0; SPIN = 1
Rh -1.3846396063223616 -0.0939913004846581 -0.35530729449167286
I -1.0576495147245513 2.162811441020892 -1.5675415759414104
I -2.735538428599435 0.5795380467358732 1.6830173060532458
O 0.10389334308581986 -1.7079227973843265 0.9627373036871031
C 0.2974298555127978 -0.5961411573017449 0.6055148840794492
O -0.6307788788134381 -1.643775248576008 -2.7917266200113424
C -0.8563913337944198 -1.0165344704483374 -1.8679322940902652
C 1.3645978215317869 0.3850921720135441 0.7970161922777541
H 0.9708139937022062 1.2885361242867985 1.275924940814484
H 2.1449016895856317 -0.05289557517385511 1.4229541364072138
H 1.7833610588359803 0.6952827653118284 -0.16465697878456198
