12
## STRUCTURE-ID: 64568e1a076ed83bd53d7d7d ; CHARGE = 1; SPIN = 1
C -1.3820732885245186 0.21444917090989932 0.46474347692035567
H -1.5984041113579934 1.108813464199909 1.049716872203404
H -1.8255558480627867 -0.6668454904238853 0.9315030919511696
H -1.8089289894888463 0.32648532986185014 -0.5491810382369264
H 0.8032938632834757 -2.945408166971247 -2.125022725964514
Rh 0.6325967150386244 0.002370376649794343 -0.29911465973934415
I 0.33686281332509616 -2.6857155914491555 -0.6332045767509533
I 1.8517089143768948 0.3137383530415177 -2.557902612541023
O 1.2794318292703117 2.934807605831591 -0.22714629037853934
C 1.019311579101564 1.8393627818411085 -0.2396691300222316
O 0.34793655272014284 -0.2792738499381719 2.655017555018789
C 0.34381997031803596 -0.1627839835532159 1.5302600375398263
