13
## STRUCTURE-ID: 64568cb8ba8c7b7e8040f204 ; CHARGE = -1; SPIN = 1
I -0.9839212588029455 -0.552467685355852 2.930040273052976
C -1.2678525700267123 -0.3158925019845399 0.8226241491277949
H -1.0386635948771892 0.0562677335820366 -1.866289887240163
H -1.6095963255149521 0.704883464785394 0.6547925780029946
H -2.0350612869257367 -1.0195655825803418 0.4997419327654453
O 1.955573818817041 0.21096015749754438 -2.4328356504925046
Rh 0.4749996512661256 -0.23051562844349308 -1.8218884828912514
I 0.7455274748185355 2.396405566573205 -1.213866209226367
I 0.05835485167490328 -2.6958450022790097 -2.455966302166044
O 1.0238064906757987 -0.945288416354187 0.66692194717225
C 0.0131501269791971 -0.5724770510964227 0.12150115300381426
O 1.8781156384867423 1.425157752235938 2.188922824644218
C 0.7855669834291812 1.5383771934197017 1.9063016742467607
