18
## STRUCTURE-ID: 645671d297e3eb10b41f8be1 ; CHARGE = -1; SPIN = 1
I -1.2268756395903926 -4.0721724940381705 -0.7079478665827413
C -4.016511373270157 -0.9038712103850263 -0.5625140745470567
H -3.712661670038868 -0.9406220498798913 -1.6010461463479504
H -3.3731375464015003 -0.223015622068782 -0.016610939242856015
H -5.036336354744633 -0.5485804353961349 -0.5043461001147657
O 3.0765048097704915 2.797992956810857 1.7144777685246055
C -0.6122755386193475 -2.135094393446543 -0.1261421914972429
H -1.2348562081389178 -1.410686633621739 -0.6393530402384301
H -3.9564458975134027 -1.8941943120429847 -0.13038817157723545
H -0.7162536071120369 -2.048699047407435 0.9497441613756173
H 3.2815641104922 3.746068076894165 1.8375361040264568
Rh 2.1282230182436255 0.6974748914826676 0.09365582988384347
I -0.24082810026308626 1.2870994733307575 0.9573880898853301
I 1.4767110887708788 -1.7425222145166084 -0.6454521389220761
O 2.5628945500284748 3.4751134227850033 -0.3480269092918929
C 2.624337226119096 2.548334408397037 0.4569907118393273
O 5.060822696187054 0.7404441398356969 -0.45393231884408874
C 3.91512443608051 0.6269310432670502 -0.2740327683287823
