12
## STRUCTURE-ID: 64568f022f4ce350e05c71aa ; CHARGE = 0; SPIN = 1
C -1.4758848419707473 -0.04596787829007077 0.5760456954091793
H -1.3596713519654997 -0.2813098513566905 1.633035658105464
H -2.1076170957772185 -0.7861146206767868 0.0834210100692857
H -1.8846130759435944 0.9568355826231102 0.44329651316557805
O 0.4554554064863251 1.9151152665601494 -0.46583266947313556
Rh 0.4066815078425053 -0.07032425043185925 -0.41578418897539154
I -0.7233717243627239 -0.06758906222783855 -2.779486162118141
I 2.1588649842787824 2.0465167997058327 -1.3732849835508651
O 1.7542613171885162 0.41817426193222557 2.216365826884695
C 1.2448558670328513 0.10418028793526346 1.2566032736562056
O 0.2818878947845334 -2.264333458769876 -0.3304651256720141
C 1.249151112406287 -1.9251830770035108 -0.8439148475008238
