12
## STRUCTURE-ID: 64566b902920fa04a233a743 ; CHARGE = 0; SPIN = 1
O -2.2430728588711295 -1.0208693184625637 0.18559323279878676
C -1.7137848224144838 0.15301536943219166 0.5142763451835687
H -1.9956182524778925 1.0278980674144738 -0.06722568012250792
H -0.3665021261103289 0.12670332656980188 0.19962926376266987
H -1.681123736078801 0.2923171034590875 1.5900326629176822
H -2.444756260816535 -1.1056084323670339 -0.7608548774824155
O 2.7993657255971187 0.09736856427373343 -1.453967755047349
C 0.807998155287686 0.023858528932648445 0.14587758770546952
H 1.1695083860724556 0.19832756287887848 -0.8698995614980806
H 1.2096124125976777 0.752123932120337 0.8405835107008183
H 1.0507570634769918 -0.9804749388535696 0.47255140000526374
H 3.407616313737246 0.4353402346020061 -0.7965961289239063
