13
## STRUCTURE-ID: 64568d112a6eea2392630f0d ; CHARGE = -1; SPIN = 1
I -1.4169463433057603 -2.5697303109456855 0.30605697868813625
C -0.9360779595448766 1.0313450739683385 0.5710574926705441
H -0.3356508194389713 1.6376577947157989 1.2689552728133053
H -1.4122962702689108 1.6869196765092027 -0.15657872091167463
H -1.6933758031390815 0.5336709847456231 1.1753133697429292
O 0.7467228122620017 -0.6965728214346449 1.828154959909431
H 1.4055982389630535 -1.336248379246594 2.1146310539943114
Rh 0.8037878551209311 -0.08589550980385939 -0.05006082031431886
I 3.145593670792532 -1.231030938588144 -0.3932072748749511
O -1.6239355011363095 -0.35592069011353505 -1.6164327395076363
C -0.9409360594070377 -0.5841393335466122 -0.6710810233203734
O 1.2337889273449854 1.2497056887714117 -2.688398386948521
C 1.0237272517574438 0.7202387649686883 -1.688410161941186
