12
## STRUCTURE-ID: 645665bd1a87274b086b0e1b ; CHARGE = 0; SPIN = 1
O -1.4791505783501446 -0.8346482017947426 -0.4622773324274528
C -0.3200027725353175 -1.3425004976814623 0.016463943139495646
H -1.9127951228003135 -0.2128210023981741 0.13912169842578054
H -0.07192280221773545 -2.238871676564553 -0.5601324445605195
H -0.3010173462056426 -1.5428037004897612 1.0919657617976641
H -1.6940358147407863 3.301268080126784 -2.522676015557384
O 0.8370790335296115 -0.42463725268642527 -0.23239529756562305
C 1.0059093648795285 0.6411210349450288 0.736432973314881
H 1.1727888163476194 0.1774839439634148 1.7071248423615644
H 0.14624032174845894 1.308403309864958 0.7710988144461396
H 1.8895987603362905 1.205972698735873 0.4478735810839186
H 0.7273081400084346 -0.037966736020944594 -1.1326005244584605
