21
## STRUCTURE-ID: 64567c4b2025bb55ec3d7d7a ; CHARGE = -2; SPIN = 1
O -1.267686768426556 -2.3569607285042555 -0.16267641723722073
C -3.93394228685333 -0.47338444713590966 0.3079932208315254
H -4.279922869450029 -0.2679635663050888 1.313413175365188
H -3.4628470188131777 -1.4493166737271908 0.25894705147866204
H -4.720203090436081 -0.3675821981461243 -0.4271287200089983
H -0.9391104230412876 -2.7840476445896467 -0.9569422213767635
Rh -0.06683431494917608 -0.8987420263958542 0.7689453171205808
I -1.3836024182933542 -1.3570750232566597 2.9928627031866024
I -2.3810197993795907 0.9663313931869304 -0.16114775332309067
O 1.1876442826394893 -1.6588819107653536 -1.8142100442756905
C 0.9487743229721555 -1.1610905791736035 -0.7743372524321714
O 1.1826420593473885 1.2091004532967817 2.5010664792626107
C 0.9373876777019661 0.42140503728508144 1.6612132574531482
O 1.5332479442434772 1.4672390493755338 -2.297820011763699
H 1.0244609907528308 2.128519792382691 -2.8124451733385443
Rh 2.3083312820846045 0.2067975755379951 0.01630833466793225
I 3.7941055453634953 -1.7471751097027675 1.0211368372282807
O 0.5080474183299851 2.4239594261775737 -0.5681131286069134
C 1.2793707317757117 1.5637661232652846 -0.9650062172217077
O 4.165418921764989 2.560757371364863 0.036039558432887885
C 3.565737812666513 1.5743436858296858 0.06190100455745242
