18
## STRUCTURE-ID: 645671d197e3eb10b41f8bd6 ; CHARGE = -1; SPIN = 1
I -2.5932300037208322 -3.848749374020272 0.06916696284361401
C -3.8588155812953637 -0.5515492078777161 -0.8655661269022575
H -3.9504888293467 -1.1659755105744263 -1.7389740861285108
H -3.253078847507939 0.33426097763018436 -0.890277944295147
H -4.390517520727211 -0.81461247916577 0.02704405322518092
O 1.8624606202714555 2.3586352069913383 2.104599275713023
C -1.1201797709964088 -2.3168759427677497 0.19213818221852955
H -0.2938026753800433 -2.5875379689090527 -0.4506460412324079
H -1.578695423530208 -1.3888193552043242 -0.1303309800887812
H -0.7840867721943705 -2.2492890712564892 1.2176887313425764
H 0.9289865295200169 2.310305903179575 2.3387306631276825
Rh 2.298388706573706 1.708411770626328 0.20078236416852827
I -0.2610291426453928 1.6188279934277976 -0.39470587744657193
I 2.5213596660085367 -0.9905893835065968 0.9966810262331802
O 5.010137717146577 2.71290163418054 0.985852858272589
C 3.9966381940458415 2.3326766844167572 0.6024771339331827
O 2.8173944750853557 1.171000143502705 -2.693591029590278
C 2.6485586586929974 1.366977979327137 -1.5710691653940978
