12
## STRUCTURE-ID: 6456673ec146b5758d40f1f0 ; CHARGE = 0; SPIN = 1
O -0.9674335946224791 0.22504959009337727 -0.14825711761034185
C -1.2400390488049329 -0.46602706635477115 1.0029675813349042
H -2.2584507430868968 -0.22598583912711262 1.3440052966634641
H -0.5487857203854426 -0.22002126464721852 1.8278234657431167
H -1.2031318302219178 -1.5559855624154144 0.8380652457586601
H -0.001435077645026392 1.2931759358502772 -0.2226208876297377
O 0.9669640125309513 1.5432011313059204 -0.48294770684520777
C 0.8581154081235539 -0.3689746479062772 -1.031592152360742
H 1.8280025243272862 -0.09303746154233748 -1.4225979896239473
H 0.1493086404325684 -0.6080247849493307 -1.8039052851457453
H 0.8995502622281167 -1.0633072790434162 -0.21018642295600287
H 1.517335167124224 1.5399372487362977 0.30924597267156245
