8
## STRUCTURE-ID: 6456644b4393fb036f2eaabb ; CHARGE = 0; SPIN = 1
H 0.5447416796344459 -1.059588185862627 -2.335449292038427
I -2.2912741111662114 0.5405267680352587 1.1485097144686225
O 0.7413293295322877 -0.26342064698696227 -1.8347093644351662
C -0.18953095128913303 0.1285904784367492 1.3487519550679572
H -0.08460116919884306 -0.771295550368348 1.940010192449546
H 0.2666720598127716 0.9745565133622142 1.845342224652901
H 0.21886276905299518 -0.007295999164686957 0.3549126678061507
H 0.7938003936216848 0.457926622548396 -2.4673680979715806
