17
## STRUCTURE-ID: 64568a241651125a213288b0 ; CHARGE = 0; SPIN = 1
C -2.4278716290965776 -1.6422517882974883 -0.6804893938366188
H -2.84843209467824 -0.7093490134035282 -1.048107086398787
H -2.2528158979964776 -2.304698562509623 -1.5245652913160763
H -3.1602466192042002 -2.111746316385609 -0.025143897852028398
O 1.580115386661707 1.863755999272839 1.6701492749217868
C -1.155346530833192 -1.419563325706842 0.11127912528280441
H -0.3571813105692316 -1.008080621697617 -0.6457726058873804
H -1.3374355459501288 -0.7390418624124406 0.9659643757120742
H -0.7590382000778682 -2.36562476421024 0.484344452701687
H 1.5155520512946739 2.6643544302143845 2.239818862310385
Rh 0.6146900329817141 0.2348712012985305 -0.12196808550562914
I -1.0096625761386933 1.9020148969928996 -1.2785816056540469
I 2.209178689363382 -1.4318742426753424 1.1591076695796372
O 1.9411442577223805 3.1968525075695933 -0.09810072215842745
C 1.7887748910231107 2.1184211766122423 0.40049592160485853
O 3.3308382748987606 0.8907932971809492 -1.102899586045455
C 2.327736820598884 0.8611669881572912 -0.5055314074587812
