18
## STRUCTURE-ID: 645672b98baf9758fd5a8523 ; CHARGE = -1; SPIN = 1
I -4.903108525939904 -0.1291605022392018 0.06684913173282823
C -1.6990061846948699 -1.2414683793806585 -0.9703948509207587
H -1.9253453771759566 -0.22946130559057107 -1.2797668186184687
H -2.2242263261779622 -1.94627544924717 -1.599324129054479
H -1.9700032229564775 -1.3894312683692203 0.06657675587264204
O 2.841235929822709 2.4181509373963377 0.6222763334204722
C 1.030376168161129 -1.9772230931638923 -1.2205374582481872
H 1.0846283191648634 -1.878461855840395 -2.2928712204086033
H -0.5954039232438838 -1.4138785523083492 -1.0787724132968646
H 0.8208910947533147 -2.9391350933819305 -0.7831063566051553
H 2.9502706039938356 2.859763396818006 -0.22641609450143668
Rh 1.0052170760899821 1.5914730676195241 0.9011633628952834
I 2.3486757877569424 -0.7953452856599235 -0.16089537660721204
I 0.26518635123386125 2.340578909892357 -1.4943795820336232
O -1.7797068251396022 0.8951393451680112 1.7214541428960366
C -0.7150056877239013 1.0704667762219633 1.3297623241367136
O 1.9198142268078853 1.3635412039526253 3.739897609392857
C 1.5455105152680437 1.400727148112466 2.658484639947974
