20
## STRUCTURE-ID: 6456b6d5d43197342c22413d ; CHARGE = -1; SPIN = 1
C -1.3013514614639967 0.5643544377177889 -0.934228612873803
O -1.9984475032350708 1.1037830081945041 -0.18148918507581505
I -0.7265353229335467 2.434825759461584 -3.010331976492365
C -0.46080684081906187 -2.442999539786743 -1.0349868279349843
H 0.3907029631783848 -2.6861228705721643 -1.6581774035069967
H -0.8483722838388608 -3.349524009037259 -0.5857855234669955
H -1.2161703534565007 -1.9208168683450588 -1.6117565788149046
O -1.6240835955883213 -1.5265365609343287 1.287119353950747
C 0.10730247815469536 -0.10349840415808549 2.5312100950350307
H -0.1297523016784021 -0.8267523172334086 3.300032611849067
H -0.6823083730687134 0.6378253642176243 2.471306429535175
H 1.0657240570143467 0.36688743851589267 2.7259121371683714
H -2.080271794898844 -2.2021348664126354 0.7840208046591969
Rh 1.1917034611273332 0.9846697937974555 -0.6902303433232155
I 2.408084691447875 -0.6665785858148624 -2.281941166002216
I 0.2502794205260878 -1.125673999639105 0.6023311968431531
O 0.21682667434895572 3.0135587735467566 1.2725916060118645
C 0.6113163297362506 2.192711320513162 0.5693818240058043
O 2.715534787719162 3.1904783169844833 -2.0310105747050238
C 2.1106249677282354 2.3615438089843894 -1.5239678668620809
