16
## STRUCTURE-ID: 645676523bce124f122b66b3 ; CHARGE = -1; SPIN = 1
H -1.774132680879371 -0.11035400055647088 2.9411467274553837
I -2.573043861736559 -0.1907978808747537 1.5197865429574848
O -0.40550990049624236 0.549390054282323 1.3692514035229375
C -2.245752639560434 -0.07311234395270025 -0.6311084891747545
H -2.128481857604507 0.9656475121401744 -0.9122367423267077
H -3.1173866604878624 -0.5208268502670589 -1.091102997684887
H -1.3387889097357395 -0.6328159978855455 -0.8487035642493616
H -0.3581182891961535 1.4618132811428441 1.0799478450525686
O 1.5532585151965057 1.998754860859908 -0.5343956613479532
Rh 1.4982643946615892 -0.13715339105211238 -0.6809664276838956
I 0.7928827717381163 0.08167594750177343 -3.2022093625453683
I 3.4479907756525723 1.9758711409112486 -1.0403763435115627
O 1.9940429639228698 -0.15639555873992458 2.2801078900791354
C 1.6686451030308616 -0.14666146764733076 1.172429987853138
O 1.4844810863332636 -3.1115093719105587 -0.6972400969090129
C 1.501649189161091 -1.9535259339518394 -0.724330711487138
