18
## STRUCTURE-ID: 6456898c170d19403d0b39cd ; CHARGE = -1; SPIN = 1
I -1.1157553936874585 -1.4987576263584235 -2.6491384673097165
C -1.8327134715226865 0.8120879093246143 -0.07228900573858503
H -2.4981783755265803 1.3850222939817556 -0.726864275351843
H -1.7158748667869208 1.3789134084972974 0.8593644254674163
H -2.340546560683378 -0.1290349892080323 0.16184581311986987
O 0.37622791503761654 -3.299893518195289 1.8987418446060134
C 1.2007227115258992 -0.7772855790887485 1.671916523834137
H 0.7835084414514332 -1.0273306685008652 2.6386612298935606
H 1.0644674947357105 0.27912752557366816 1.4380246221708952
H 2.24308737833939 -1.0654064571115804 1.5941558878645317
H 0.17812095449406648 -4.206159609166792 1.6443291916222342
Rh 0.03188984253614553 0.43288769996439114 -0.9962631206877636
I 2.5743568036287012 -0.18693770813024574 -1.659115168023478
I 0.12605484019788113 -1.9884823377135912 0.28923987062246265
O 0.9391160193787665 3.2003053787395035 -0.12151506125769143
C 0.48693795761242153 2.2659018222685408 -0.7633460280940283
O -0.44196953750624207 2.3629451035248197 -3.1481791063141538
C -0.059452153224722463 2.0620973515989958 -2.059569176423861
