12
## STRUCTURE-ID: 64566596eb487d14262cdf91 ; CHARGE = 0; SPIN = 1
O -0.9779978498725151 -0.701101767703195 -0.4460936001138324
C -1.8729209827105044 0.00919815748911141 -0.07051194200866806
H -2.8701030464664012 -0.02147325123683714 -0.5190271912519048
H -1.752395769380297 0.7361088287331512 0.7418093994718407
H 0.5856794524611916 -0.9959439960701041 -0.135538221886069
H -5.758328095950847 1.6430138196951072 2.155232330485357
O 1.6021128752774143 -1.0702554677186467 -0.10822747321892864
C 2.173505909530045 0.2598052680748932 -0.18848348964899717
H 3.2564317721694054 0.16702939614869275 -0.18292719936556062
H 1.8588741737049193 0.8059387905442832 0.6974561569292609
H 1.842493250614829 0.7857577534404583 -1.0818578551938758
H 1.9126483106227365 -1.6180775313969191 -0.8618309141985998
