13
## STRUCTURE-ID: 645689dfc2a3a72a5e33a734 ; CHARGE = -1; SPIN = 1
C -1.5426713703153774 0.34052354832220133 -0.23122966915586735
H -1.9062450182144721 -0.35012479320940154 -0.994480868155696
H -1.686347312062034 1.3626449096871731 -0.5872832900889895
H -2.1438388720259054 0.19809867818084234 0.6671898852401564
O -0.024251992628653695 -2.0439827657402447 0.3137553570914301
H -0.6272593334622516 -2.2150581190715775 1.0453453057799988
Rh 0.5018954523917709 -0.06143374714217394 0.19889779948096015
I 0.11174680406395271 0.3049193646880164 2.815534123682486
I 3.228080026021689 -0.7078467185061619 0.4668870158986629
O 1.000494099746665 -0.896579220609774 -2.6115644705746908
C 0.7930419410370975 -0.49051090582712686 -1.5681633828691928
O 1.3093398331307973 2.8255166025423875 0.28883354682804546
C 0.9860157423167244 1.7338331666858566 0.19627864684270083
