12
## STRUCTURE-ID: 6456695b76a1cd4e117c7c49 ; CHARGE = 0; SPIN = 1
O 0.38646678951758684 -0.057973270397403846 -1.8285110210550086
C -1.4890965465109194 0.4168895660156508 1.271548792375743
H -1.7369289134985102 -0.4965234086992825 1.796535003370492
H -1.9397169165651817 1.25865646259196 1.780602534916702
H -0.41220932567843516 0.5463490383041499 1.262573264871386
H 0.2575987660881224 -0.6775245936802756 -2.5676863668357046
O 2.1538927225866504 -0.2557113836179353 -0.09834642469209115
C 1.3269143542652755 -0.9637814992144603 -0.6121451616789432
H -1.856516220027043 0.3675706371597073 0.25539411176500915
H 0.4834782487138869 -1.478138662253853 -0.17043756035437466
H 0.9481567374957834 0.6775015639298514 -2.125955059465055
H 1.8779603036127808 0.6626855498618939 1.0364278867818455
