18
## STRUCTURE-ID: 64566eab5bff5b26791688f5 ; CHARGE = -1; SPIN = 1
I -3.339688885701047 2.488371813755521 0.1347014884407644
C -2.7427725547470176 0.5544002336139239 -0.5468948687512517
H -1.6975093002280968 0.6297061661462049 -0.8956517244956851
H -3.3933771723539707 0.25766046337565335 -1.3597116622713714
H -2.81861489186351 -0.14038932484549854 0.28084907138465814
O 1.0923230455652337 -2.5945772644871306 2.807773194883677
C 1.7551544438386946 -0.05513146378638699 1.9647454304837693
H 1.8599912367684424 -0.5449539662401748 2.9201125782068797
H 1.16561383963852 0.8503311408160336 2.0528904655322813
H 2.726787499504011 0.15763213824801336 1.5339362626675586
H 0.7469630042295562 -3.4847141936556527 2.7495621362492817
Rh 0.4635773270906217 -0.05515084067856038 -1.5156870923414365
I -0.7414156004051274 -2.2128484266972244 -2.2930732849163302
I 0.7341578561994782 -1.4178733287681622 0.7005391994642532
O 2.0288726303994324 2.201960188087994 -0.3414915458852135
C 1.4085511966504325 1.3390510771248638 -0.7872796787970967
O 0.39507475405764964 1.2717480225916726 -4.213150504144654
C 0.3563115713566956 0.7547775653989002 -3.192169465710071
