21
## STRUCTURE-ID: 645675067aa72a145873b9ee ; CHARGE = -1; SPIN = 1
H -0.3715368739013347 3.6313816645663572 0.1528839685261478
I -1.9238158603690627 3.005725324718249 0.22043871011266883
O -0.4819042910335976 1.7411849316131016 1.1551549940301737
C -3.2858279866894344 1.4143123930183659 0.876385378962591
H -2.962198085888541 0.46616310702382324 0.46563267124176566
H -4.2584402534978105 1.6958527907731757 0.4960287574781873
H -3.2872919280012143 1.3758401979270483 1.9574159754866856
H -0.8385130924063454 0.9569019215253777 1.5678794209035727
O 1.568858391578735 -3.7724888723319667 -0.7347302573177141
C -0.1505773622958408 0.7878660343907675 -1.9685625730816634
H -0.034871550448341004 1.0779925128567005 -0.9305014539902464
H -1.0397109566147704 0.18253248894542767 -2.100825256422475
H -0.14639869655111473 1.6458420691731643 -2.628762374698818
H 2.350821236502734 -4.254899368503159 -1.0085161389930317
Rh 1.774097851050543 -1.9951410642912535 0.29982269664674066
I -0.8231637979092375 -1.9603442924849084 0.5897136298209608
I 1.5587121873193028 -0.4501634554817683 -2.4702928385909417
O 4.600057559515498 -2.9432603442258523 0.31433795293789524
C 3.5493122417957896 -2.4607001109091207 0.332902480348721
O 2.2106347459146276 0.36580896684476255 2.0696095426597707
C 1.9917565219294806 -0.5104068951483427 1.343984713938954
