17
## STRUCTURE-ID: 64568a2e8118c72cec40f1ed ; CHARGE = 0; SPIN = 1
C -1.7378626897566092 -0.18792102910908562 1.1081727809338515
H -2.034071903129702 -0.31931073290922235 2.1468657708991654
H -2.269584178324922 0.6607880886965487 0.6811891767230068
H -2.061190025443708 -1.092966958349316 0.557046521549662
O -0.268332133000271 2.0866050634735327 0.9714639287922138
C 0.9917160588687274 -0.08383703954894502 -3.4472193436069367
H 0.8748247356438553 -1.1613802637882 -3.4673431082960917
H 2.018468365551733 0.18912796131306542 -3.2293447989032935
H 0.6421002926853695 0.37272112896618775 -4.3662503009629585
H -0.12529835105169268 2.8969755070387917 1.4998286231622453
Rh 0.28682719728441153 -0.5488249633860987 0.48460135615293964
I 2.5897825809499597 -1.4659079646239745 -0.3893369816889527
I -0.24631914676227892 0.6878700597122184 -1.8441117804689897
O 0.059588901343108326 0.9509310239503609 2.8725120560972077
C -0.1741497401795706 0.9711978423556793 1.6875339334379245
O 0.8416277919486694 -2.325569540119062 2.8041229479622216
C 0.6118722433729233 -1.630498183672483 1.9302692182167815
