18
## STRUCTURE-ID: 64567296822aa163045fdacb ; CHARGE = -1; SPIN = 1
I -2.964768990677568 2.3197849600876235 0.14749052767462975
C -2.558903371929866 0.3134732708007942 0.72373850809281
H -2.1098987849494204 0.33262999262935755 1.7086650089330044
H -1.877115914889191 -0.11762937958970883 -0.0009355957229173812
H -3.493023022405295 -0.23216154763963248 0.7339762741087865
O -0.27090978814267985 -0.903380818002028 -1.3043180512757269
C 0.8019417330543869 2.2234924629000865 -1.0454205021216907
H 0.26415124118282446 1.412221516086857 -1.5256097746565584
H 1.7708749238815535 2.368306571038549 -1.5076663870622566
H 0.2168562601979188 3.134133876114969 -1.0312812579196586
H -0.01478544980806961 -1.0362692579721686 -2.2224750536097417
Rh 1.2093119462520714 -1.4369752136087521 0.039840365971660914
I 1.1335353014917284 1.6129951007550565 0.9929970208969852
I 3.0602007249865473 -0.9259385903775484 -1.7570096879384618
O 3.3377008325027986 -2.399884501754969 1.899066752777326
C 2.5134088664448075 -1.9934782867937015 1.1975615694600437
O -0.9136250781572502 -2.566575609767985 1.817497250204464
C -0.10495142903531147 -2.1047445449068007 1.1338830321873141
