12
## STRUCTURE-ID: 645668696b9e646f04112998 ; CHARGE = 0; SPIN = 1
O -1.05349629154204 -0.955793064841738 1.2170594458807056
C -1.907096171213157 0.08174846796528705 0.796503911782438
H -1.6219524889103623 1.040477945950478 1.2414281010071693
H -2.9119080534998427 -0.17734951534509363 1.12851360036784
H -1.909308746366057 0.180850150012798 -0.29434742110799345
H -0.14500012944183646 -0.7270603021069031 0.9484981917806523
O 1.5078233242564112 -0.1686743012480072 0.2094282031074209
C 1.4675078443044822 0.2792864078424961 -1.1310492531797482
H 1.2721365705184409 -0.5471554024043987 -1.8201843837766256
H 2.4003077067380634 0.7742335750017978 -1.4119593017462955
H 0.653090313709679 0.998475162877703 -1.1973583499692115
H 2.247896121446218 -0.7790391237044091 0.31346725585365703
