19
## STRUCTURE-ID: 64567a1c142c421fe6399e54 ; CHARGE = 0; SPIN = 1
H -4.271871186206487 0.8485730565942844 -1.5252488589422848
I -5.164502780050049 0.7168488525794652 -0.24093096223471283
C -1.260190009914945 0.9257913267018569 1.4976292653661223
H -2.3109658217439466 1.0331801111886059 1.734169229978055
H -1.1204870741265551 -0.042141995011052355 0.9849952217258626
H -0.9491969022468226 1.7463344970860386 0.8593340980424179
O 2.6753430158483424 -0.38690161360718744 -1.9948125733824067
C 2.432775749086284 1.6662157461806495 0.9119060443663848
H -0.6796470673063801 0.9348320820794328 2.4100869303320147
H 3.056927594482684 2.5401852514748176 0.8725048814295442
H 2.460754705889157 1.0195673318728857 1.7696463435307166
H 3.0468900175544857 0.000495298557360085 -2.791045689738314
Rh 0.19471573728832717 -1.1582706263141913 -0.7060126556530447
I -1.2879274064182111 -0.07561709060206505 -2.5312410618800416
I 1.6546740408714697 1.0075289826037863 -0.7865801430274633
O 2.2249010753326615 -2.4254502967853715 1.080698777139019
C 1.4080176730217913 -1.9465761740506577 0.44084300056217335
O -1.3518956121646566 -3.6814816930945318 -1.0823228855467781
C -0.7583157491971684 -2.7231130474541545 -0.9036189620672579
