12
## STRUCTURE-ID: 6456668470fd1540b82b66b0 ; CHARGE = 0; SPIN = 1
O -0.3498581850091912 0.1604359987100957 -0.5418069958387338
C -1.7796574136975543 0.15368191231429426 -0.31792424943136927
H -2.221299858800673 0.9343829585112818 -0.9335243924301454
H -2.015186952240815 0.3132217441065709 0.7347047225037607
H -2.149374483241467 -0.820732822188156 -0.6329489543151823
H 0.05070869677939487 1.0180953139807996 -0.2836935354462893
O 1.9770578540126353 0.4436651537954931 0.33212973967534937
C 0.44572048688805277 -0.8138572721558208 0.1958443387890827
H 0.07194050914120259 -0.9496951873354766 1.2063351129207038
H 0.4610599048265297 -1.7421963950600592 -0.368208496068601
H 2.6432094827384027 -0.21961770066054437 0.15047192051165892
H 2.8656799586034825 1.522616295981516 0.4586207891297733
