12
## STRUCTURE-ID: 6456677996dc582db42fdd88 ; CHARGE = 0; SPIN = 1
O -1.4705031970156401 -0.9619652398149392 0.6319005538915291
C -2.048222831125108 -0.05538876030522314 -0.2771540600537765
H -2.081272096436671 0.958512770880922 0.13462206397220336
H -3.066160858014242 -0.39587007219712117 -0.4637730916791616
H -1.500908459146332 -0.0370811240389016 -1.2256662842217139
H -0.5655389378409695 -0.6570186088396806 0.8265921430127433
O 1.2010781444673941 0.005241196683880633 0.9544328460363121
C 1.8200238833728744 0.3418483785410322 -0.27152680614807123
H 1.1170303713799388 0.9699969821524531 -0.8157483053763225
H 2.036195649905227 -0.5507599575164676 -0.8654018022272086
H 2.7435405295454536 0.903203607891333 -0.1096926245926795
H 1.8147378009080533 -0.5207191734372916 1.481415367386188
