12
## STRUCTURE-ID: 64566874e2ec6c7a8f6cdb40 ; CHARGE = 0; SPIN = 1
O -0.497791149691682 0.705272239671105 0.3353937472379621
C -1.5500839226269207 -0.07744074995452425 0.7328910523630765
H -2.177130383561254 0.48321731751929514 1.442074959651484
H -1.2242277494418377 -1.0032534336831507 1.2356664273748401
H -2.191954987745834 -0.35479313546222513 -0.11988677378758295
H 0.8257131099892377 0.43912093490444665 0.7945893405802968
O 1.7714335656892701 0.10425654201728884 0.5275717605659838
C 0.7039185058043941 -0.2270900013355015 -1.1222081962003156
H 1.6438888656202146 -0.6950348747407153 -1.3822329671458522
H 0.495873950517351 0.6874782781688887 -1.648061942853682
H -0.10573812782696652 -0.9363490697796778 -1.0992479390325787
H 2.306098323273951 0.8746159526748021 0.30345053124653887
