12
## STRUCTURE-ID: 64566581f7fa44622437419b ; CHARGE = 0; SPIN = 1
O -0.11230053537915828 0.27326802204273526 0.023423928005340173
C -1.17623884121946 -0.2912272669040234 0.7592478840257944
H -1.536888111316553 0.40853688972657154 1.5208059305792585
H -0.8648222694341153 -1.2211019552265996 1.2476287960750503
H -1.972778838668333 -0.5008847884508019 0.04934802568066624
H 0.2808428135966764 -0.47265488662088406 -1.712284194599891
O 0.43465222395879893 -0.7730489351651593 -2.6202159093936714
C 0.998338201344838 0.5994669860656906 0.8308908549377803
H 1.7499765492012982 1.0283281743814223 0.17238354273541348
H 1.4038432061569608 -0.29370129274129786 1.318881605308695
H 0.7202258334051174 1.3302678431571708 1.597914250431789
H 0.07514976835393569 -0.08724879026482055 -3.188024713786229
