12
## STRUCTURE-ID: 6456673c6964c90f56159870 ; CHARGE = 0; SPIN = 1
O -0.8376433450295606 -0.38202776710312264 -0.11168087632133959
C -1.46000092785859 0.45671182072913347 0.7759729828955031
H -0.8675984622759261 0.6200244772834513 1.6915539830871618
H -2.4245491913306383 0.021556874958632354 1.0771238389583948
H -1.6731980997477343 1.4388062917287803 0.32215395373482586
H 0.29059294199579133 -1.1485503680098397 0.2931823906505626
O 1.317623371782581 -1.2783588742956453 0.19982558315736726
C 0.9835483548782787 0.3961515332888463 -0.829009128078383
H 0.5181895140875519 0.18684453418516228 -1.775511266239857
H 2.0644531079676565 0.35596847893828215 -0.8366312477596437
H 0.6171407374643433 1.272866742293188 -0.3227239191773822
H 1.4714419980662694 -1.9399937439968618 -0.48425629490718275
