8
## STRUCTURE-ID: 6456640c5dc867585d233632 ; CHARGE = 0; SPIN = 1
H -4.204792741053469 -0.23201621724019642 -0.0698733977292895
I -2.651411682599465 -0.2352526123986755 0.1905557459888193
O 0.45287772453734004 -0.25239564718758556 0.7465045325549808
C 1.2616630100134403 0.06264510904092206 -0.36582378767838913
H 2.308863456462772 -0.19397418065287142 -0.18107054270800513
H 1.18789890999923 1.1223043590094468 -0.6276443395395018
H 0.892487932199352 -0.5327673177004039 -1.1988811511099882
H 0.7524133904407921 0.26145650712937374 1.506232940221369
