19
## STRUCTURE-ID: 64567b30ad9c0f56c1248aeb ; CHARGE = 0; SPIN = 1
H -2.622318723008053 2.298585634567156 0.83512568986747
I -4.171750579257859 2.3907269805131377 0.45915430358368226
C -4.272007611328858 0.3131500417198027 -0.14549657093182328
H -3.5287467442357014 -0.18252544244244906 0.4745977914831162
H -5.2821482431306395 -0.030858720428900636 0.05880612694081742
H -4.030606497526732 0.2756614117617556 -1.2037306425659962
O 4.693126725595264 -0.055746031318901185 -0.19570460668497447
C -0.7990031991244392 -0.8615703411826512 -1.8409613989245754
H -0.9915597897664289 -1.3413141018395767 -2.794189361150392
H -0.950369986398305 0.21141647826050122 -1.8920734052448251
H -1.380821916760545 -1.3087408217951573 -1.0420400081623353
H 5.569957699644941 -0.4769674664460523 -0.27079280666215183
Rh 2.056534521925563 -0.03646398254329562 0.8094831192455786
I 1.3489312609117303 -1.2141520014364378 -1.3806528191901108
I -0.2876855747520113 0.8995303840188621 1.2714670637722119
O 3.6243288775340905 1.108811917544797 3.065038838034526
C 2.9370860991787033 0.704212760664206 2.212328857182482
O 4.2504220082533894 -1.8818585951886517 1.0168203431268168
C 3.8366316722458738 -0.8118981044281777 0.5628194862804415
