12
## STRUCTURE-ID: 64566842e5eaf912a2242a38 ; CHARGE = 0; SPIN = 1
O -0.6834596179082519 -0.5399605118647466 1.9759437736384247
C -0.39239333504913726 -0.8368527157620205 0.6950479139796398
H -1.1920781041019557 -0.6430287937444819 -0.0294503678251265
H -0.041743600017110076 -1.8720870356175856 0.641880676894022
H -1.273801160260218 0.22117826991332065 2.074545665577764
H -2.6531712630692743 3.3347371331945945 -0.5933157542357879
O 0.8122193749143903 -0.030054484839964684 0.27277529958453556
C 1.1133953660609708 -0.11528776721006721 -1.1384714751661358
H 2.0398826655660605 0.4301103090959124 -1.3069551906446524
H 0.31275493242102753 0.30597582173696425 -1.7472078181309854
H 1.260032354536295 -1.166185428257139 -1.3813280481871852
H 0.6983623869071977 0.9114552033552061 0.536535324515506
