13
## STRUCTURE-ID: 64568b2e6e1be36e536cdb43 ; CHARGE = -1; SPIN = 3
I -2.328041350434732 -0.6860280428521776 1.9581136660722653
O -0.09012758047153674 -2.028025011083453 -2.305402129494592
C 0.804442286997055 2.1636387844346507 2.703473936695098
H 1.6458438621622558 1.7400336749106733 3.2142740724191263
H -0.12758841671714927 2.3525880306905305 3.1975640418132785
H 0.5409479785885746 -2.3010223881127114 -3.0040679959403147
Rh -0.4524646530743901 -0.643211005538894 0.11400296531104992
I 1.516993653955344 -1.999879187356042 1.1548326875542239
I 0.764256552906414 1.9889348321285638 0.6417218464520161
O 1.028512603600236 -0.08165565832309965 -2.2836238458906513
C 0.1664776097876106 -0.8085326911139603 -1.8258566142057635
O -2.063863868491973 0.36398681947293876 -2.219080540197236
C -1.4053886788077021 -0.06082815725701815 -1.3459520905884916
