21
## STRUCTURE-ID: 645676f434221e2d3a1dbeae ; CHARGE = -1; SPIN = 1
H -4.784380545463862 1.5325651692898028 -1.3881359040326449
I -3.704111601580589 1.136207082160242 -0.28236805335612997
O -1.8559963866433162 0.42359925287578754 1.7800714600096037
C 0.2443454244640687 -1.273027803123678 -1.495724572774789
H 0.18086682157794476 -0.34227471100798557 -2.0575819081910836
H -0.48573462769861675 -1.971043453782081 -1.899743221551312
H -0.0371440188077078 -1.055628034930015 -0.4547496692546256
H -2.2990221824530916 -0.14058645001861378 2.4183840006244077
O -0.1068048492122326 2.191384706142561 -1.8425998645607093
C 1.6496387243042914 -1.850767628754913 -1.5605412929174736
H 1.930005981596434 -2.0510408057116494 -2.5917502431220054
H 1.7068936077090604 -2.7786064166264506 -0.9955401805217569
H 2.3691329157506886 -1.1499999564112748 -1.1391774408529691
H -0.4430978615594111 2.9448862312955524 -2.3325778913620794
Rh 0.20930504362893457 0.5285805307653975 1.7602572554983578
I 0.06253188256382133 3.2344424131417737 3.093073893884161
I -0.1084269504964169 2.620412982588108 0.18565124120817014
O 3.160306888243847 0.5418107561214119 1.3101509954586106
C 2.0300142826186054 0.5548596403154777 1.5329610437273078
O 0.08023702076826489 -2.0453585285105644 3.2623883074063023
C 0.20144043068931208 -1.050414975818918 2.69755204468065
