13
## STRUCTURE-ID: 645689d6060d7d74e656edda ; CHARGE = -1; SPIN = 3
I -1.8276330556607 0.19981073190011048 3.1665156138766255
O -0.6113081178172111 0.06824790931345152 -1.720459130024964
C 1.9447100540656566 2.1437307466781985 -0.6965491349062081
H 2.589800507526992 1.2921710315932764 -0.7995237673374408
H 2.229503264806268 3.1296577366207687 -1.00487742712197
H -1.1008685266361675 0.10965189010357274 -2.569155071798876
Rh -0.2829081976987957 -0.5627270640725969 0.9854263839890195
I 2.3307674933483065 -1.3131308367947319 1.247543351841731
I 0.40035692257733 2.0015180314521226 0.6646898540603629
O -2.4729389330144342 -0.8615750822376544 -0.9159848502646283
C -1.3310885408183963 -0.48036915116159573 -0.7281403051073547
O -1.0817714225366335 -3.4158930265017413 1.2548196378942187
C -0.7866214481421807 -2.311092916893161 1.115694844899495
