12
## STRUCTURE-ID: 64566718028c5847953ae5f1 ; CHARGE = 0; SPIN = 1
O -3.4151579176354274 0.08783447771993998 -1.2521884040653208
C -2.3512229657149875 0.26309598000898915 -0.4430522337857972
H -2.1758936114598764 1.2855738059874897 -0.1642851362430265
H -0.8186504066979892 0.17624075752272939 -1.662472165048789
H -1.9926269942419153 -0.54566623529081 0.1679175227594976
H -3.604222502585975 -0.8506014079832364 -1.393584823692157
O -0.0017706176897135167 -0.0391508230342406 -2.154607594702184
C 3.4031163203416734 -0.21989362092926598 2.172142962735739
H 3.939515727101743 0.6950943573061091 2.2885439070834925
H 3.4804189912530075 -0.7705888271098977 1.261560923789823
H 2.852249097857616 -0.6215229439226896 2.99290059918695
H 0.6842448794718602 0.5395844797248806 -1.8128755580182352
