18
## STRUCTURE-ID: 6456737c65382562866aac6e ; CHARGE = -1; SPIN = 1
I -2.0549326045036973 -2.4651804175413896 -1.516811496670102
C -3.374322697910278 -0.7779984707787092 -1.5012983882415813
H -3.598714557213331 -0.5428019379242794 -2.536520324694957
H -2.8077128231073516 0.017005491914100355 -1.0227957718367362
H -4.260032327404398 -1.0796202453394321 -0.9492260682126694
O 3.6888571687943723 0.5017623862240351 -0.9489683732765273
C -1.9928583133849307 -2.7333781493880314 0.6015874737002832
H -1.4512375864549978 -3.6536680533361374 0.7911149598647893
H -1.4567000551462854 -1.870325057545563 0.9855141329960369
H -3.0235524711281556 -2.788360449678188 0.938742585853284
H 3.6287732336693117 -0.43332665180476515 -0.7186268552598969
Rh 2.600689346698037 1.7073200065168546 0.4330893427935281
I 3.043069128136814 -0.1350949720752908 2.519639268723014
I 0.30521242933881915 0.5062008469015403 -0.2717943348643899
O 1.1867556672262645 3.648573793066208 2.1897841481648026
C 1.7161311182758583 2.8555898293767688 1.5165627542376137
O 4.217306064417781 4.107845298238693 -0.394484681625579
C 3.6332692796961394 3.135456753173584 -0.11550837165092273
