13
## STRUCTURE-ID: 64568885e73d8c10cd32badd ; CHARGE = 0; SPIN = 1
I -1.3119636146284062 1.358880901764462 -2.23760914750209
C -0.9434275952046572 -0.7783567766801148 0.9720333355620032
H -0.8870410313772625 -0.5143925766667281 2.0281168710698774
H -1.0445424429422945 -1.8571966415475305 0.8624819808313076
H -1.851849476738237 -0.3105641323128166 0.5680333089144426
H -0.8286058148094416 3.3763773018202046 0.6187304032267181
Rh 0.41682520287680314 0.2713765052786591 -0.4414120018782954
I 0.38688041173740195 2.5328228546918456 1.2003576417803665
I 2.741254486098336 1.0437113445884303 -1.7166971044689796
O 0.2992467498639118 -1.7670244950828642 -2.6152847031923137
C 0.3114018442344877 -1.0007339811708078 -1.7760366107001089
O 1.6334095384978122 -1.5187332684907464 1.6338155479964305
C 1.0784117423915478 -0.8361670361920003 0.9034704783606485
