12
## STRUCTURE-ID: 64566715f06464188111299b ; CHARGE = 0; SPIN = 1
O -0.4988016747037818 -0.43346162346012684 -2.1282162445548094
C -1.4861217274563558 -0.3897873232939684 1.2984982483553866
H -1.027867124873109 0.5474909318481934 1.5870914478888318
H -1.1160167977125253 -1.18688106040724 1.9302278168520943
H -2.559284841330617 -0.31186976974020153 1.4130881145599914
H -0.8038828400654878 -0.07065256354524099 -2.963087950384774
O 1.8260583495862086 0.9151777124130858 -0.9898418016993699
C 2.1151703994790045 0.5931225527753113 0.12974738705839753
H -1.2535489819057528 -0.6062371127344719 0.2633714781434208
H 2.987428418271685 1.0123079462101712 0.6489272721110664
H 1.5234594634086482 -0.13700154882499327 0.6973592672113531
H 0.2934073573020862 0.06779185875948344 -1.8871650355415963
