12
## STRUCTURE-ID: 64566a3447eb55033567f9c6 ; CHARGE = 0; SPIN = 1
O -1.3440050732694724 -0.4075754369310717 -1.1506467944093193
C -1.4628155506470037 -0.0324090826378286 0.15330150571646894
H -1.8965508093457721 0.9651377373316101 0.29494001650333573
H -0.3425438731506264 0.08041643008185294 0.5185103719856025
H -1.9685958994624948 -0.790272565915973 0.7535207572762673
H -0.43485915802561875 0.06793674699878025 -1.4121794216755046
O 0.8708550321516875 0.6422845258086091 -1.181667254692451
C 1.1103563164645858 -0.08290721805746054 0.7821694121183702
H 1.8187116894756676 0.7259812210460894 0.7259383112883734
H 1.4530319625436903 -1.0156426244484067 0.36748682974634644
H 0.738619431002652 -0.20112835100387222 1.798576762560182
H 1.457795932262712 0.04817861772767228 -1.64995049641768
