12
## STRUCTURE-ID: 64566810f2bb7c7a5761a6eb ; CHARGE = 0; SPIN = 1
O -1.1404256614448203 -0.7199523513330767 0.473660720247931
C -2.1003403578284607 0.18354074967348588 0.9768002039804671
H -2.3695755903629854 -0.05356761587996974 2.010325429979989
H -3.004029729256635 0.19124177146893223 0.36023158912334413
H -1.6448317375927899 1.1719065807705606 0.9478952238541801
H -1.5072874854556233 -1.61196592147303 0.497484765577075
O 2.788881437852182 -0.5135676062673459 -0.6207932470645527
C 1.7623293548716448 0.3122417065645852 -1.1327123992114427
H 1.9043490953041509 1.353558213712497 -0.8252647549360664
H 0.7760755275941348 -0.030139693144476915 -0.8097002882721429
H 1.8267394964670485 0.2534823716697733 -2.217883092031378
H 2.7081156498521564 -0.5367782057619304 0.3399558487526261
