18
## STRUCTURE-ID: 645673afbca29d00b340f1fb ; CHARGE = -1; SPIN = 1
I -1.8411871765076124 1.0294268507822026 -0.3243234882901533
C -3.3157402779879113 -0.44051935908380824 -1.0227619208405494
H -3.8168249590641454 -0.008142808829651316 -1.8799655307270093
H -4.005382995261636 -0.6263134250918365 -0.2076187582051918
H -2.7833512869330614 -1.3486616390554147 -1.2825456956436072
O 1.6814754707036537 1.9887156006704523 0.2901539548439466
C 1.4268944339250162 -0.9960905525753652 -1.4832596953977966
H 1.0646200099879435 -0.6075720691349584 -0.5002750337372979
H 1.3633977130482966 -2.0773760497526226 -1.510515251261004
H 0.8755552006980442 -0.551310634142898 -2.3028081355501415
H 2.0784717542561792 2.880021242967559 0.3417681540381134
Rh -0.01713502880433197 -0.018615860190899104 1.2390934057472867
I 3.47714920631112 -0.43962911251850934 -1.6920034056644562
I -1.0977153574103724 -2.4347493753648237 1.285301953227565
O 2.187977157973227 -0.4398566051379419 3.1984565638167166
C 1.3207793520671889 -0.34557742099593985 2.427782108484054
O 0.6035591921061938 2.6683855436918016 2.119051033691557
C 0.7974575908921872 1.7678656737626548 1.3044697414679784
