18
## STRUCTURE-ID: 64568a2da133745d752eaaad ; CHARGE = -1; SPIN = 1
I -2.494120049891043 1.5315127356578144 -0.21960933948129485
C -1.6480426989604058 -2.305872661762811 1.230802143601908
H -1.536433071012388 -2.1177073906500166 2.303835373991469
H -1.357803268815227 -3.342979634459428 1.0326899127358098
H -2.707768306690324 -2.1919092843636627 0.968450252436376
O 1.9454661708562326 1.041474566242838 -2.1141877155379434
C 0.6589081208672058 2.8082054380102286 -0.3585666227699798
H 1.6346937347951225 3.0571917420920145 -0.754408864857434
H 0.7225216436959938 2.548846317651413 0.6960738400993366
H -0.06818720645398711 3.5954497105885617 -0.5290121727819292
H 2.011895753382186 0.5853855267794319 -2.9533755182973196
Rh -0.5954433404538924 -0.9617576247266046 0.05114393199530362
I -1.6116632942716014 -1.9133568050923078 -2.2864992418899956
I 0.06535796328011231 1.0721691818262902 -1.4259239631525529
O 1.0477701881359012 0.641511233479902 2.0113823147479644
C 0.7217469093903152 -0.3308499831807929 1.3323137620588597
O 2.0129313653224052 -2.280354477149208 0.3501132456488354
C 1.1981693868234324 -1.4369585909436482 0.6647786614525942
