31
## STRUCTURE-ID: 6456fd8f8095cd4341051b80 ; CHARGE = -3; SPIN = 1
I -4.950610290062062 -1.4643841397857813 0.12298243328066799
O -0.62990703475622 -1.4883384691959696 -0.5998203303066146
H -0.7007013955442046 -2.228153768003285 0.0009445454295321912
Rh -3.8110986916516114 0.4336217700986566 -1.2099157944202041
I -3.4308798686728226 1.9571197162648757 1.3750592593914979
I -1.5687832519978175 0.14524171395731106 0.11764327047575168
O -1.857822084269126 2.0016064210704574 -2.835290109878668
C -2.7350024546793414 1.4625000803738673 -2.3122944779923027
O -6.409068027117754 0.8646737522488614 -2.6134378433350123
C -5.410321009632933 0.7109536873211091 -2.088837886849112
O 0.796367461779874 -2.4507444034520907 2.1177164415145295
C 0.19003032571943748 1.1969997248854567 3.199311578378005
H 0.6850369268633901 1.0690747881120954 4.156251502418149
H -0.5781302130395095 0.44375979577793156 3.0370613863198943
H -0.24295580502972003 2.1944113675852317 3.1217606567781853
H 1.1558264466446713 -1.9950390798019417 2.899607027111582
Rh 0.3375133470734203 1.7326859598522235 -0.7985681963967874
I -0.4113434798854719 4.000924552618283 0.20922457255181623
I 1.736971818071419 1.0313826128269505 1.6234935289285088
O 0.11030340797313327 -0.30264312886353717 -2.8197068628909583
C 0.7411385188631064 0.10603660922731005 -1.8297222761036072
O 1.8922814885094468 2.3613264611809544 -3.25178591559316
C 1.2890971938834348 2.289647780708371 -2.2512443478570523
O 1.9557735019763172 -0.5405071026608387 -1.5818865227896914
H 2.0953679483303116 -1.259183709726648 -2.223374096585394
Rh 3.0869495383084224 -1.097006255960713 0.8484392789933765
I 4.930767735737429 0.6534031070894262 0.11880244545684046
O 1.376660768632026 -3.184017669355413 0.11036320243790101
C 1.6613960551607894 -2.4031897439290333 1.0214955965872532
O 4.592950108399124 -3.6429667885967323 1.2440288363119423
C 4.102191014412901 -2.59919564186754 1.0916990986333652
