21
## STRUCTURE-ID: 6456b8e0039d6324ab6dc160 ; CHARGE = 0; SPIN = 1
C -2.2153972914997255 -0.5608001000218821 -0.3462703114965107
O -3.1003875445162494 0.1137701999871138 -0.071174440325051
H 0.5231236714876016 -3.9213877229597998 -2.1907226331804903
I -0.0317858767526688 -3.4232891398338086 -0.7838942463707488
C 1.1204045435217118 -1.3405056256324799 2.344553973568506
H 0.49329233143663087 -1.7697462909561048 3.126393335010558
H 1.849500631651307 -2.0726492715975273 1.9955182831036367
H 1.6629764488991314 -0.49319363786106557 2.767933316870999
O -2.1303400593703974 2.3392694762876483 -2.058130981568074
C -0.6069177087518911 2.2131740189249243 0.11961170437664594
H -0.6877173572919522 3.2379682852671237 -0.21887443212117738
H 0.29625807901793433 2.0462261694030652 0.6916291265365956
H -1.4916043886335808 1.9264574023198964 0.6730571726508827
H -2.3842814198167446 2.282890266799949 -2.981410335945328
Rh 0.9572542250477961 -0.8813094360781137 -0.6398901701034939
I 1.6055861916726066 -0.9375460402308626 -3.2530298338503623
I -0.5653642475620781 1.0772436264950267 -1.6566978444077207
O -0.8816678085363933 -0.4394596144762976 1.415516094150686
C 0.25562525603412867 -0.8263347589805429 1.227280760611449
O 3.087904326603328 1.0830478126339356 0.03429446191488686
C 2.243537997359512 0.34617438050981514 -0.19569299942589827
