12
## STRUCTURE-ID: 645664aee1ec600ace2abdd0 ; CHARGE = 0; SPIN = 1
O -0.8971222056092727 -0.4259220437217022 0.5276926809114639
C -1.7267624917941344 -0.053019997984268305 -0.5886659564373226
H -1.6687122951153774 1.0162163461491072 -0.7909989569118246
H -2.7496004960774902 -0.3477251723505719 -0.361397994597251
H -1.372623602469411 -0.6045266342054197 -1.4568809491825483
H -1.209622140886541 0.04207089509952017 1.3307983233065195
O 2.861601874496808 0.5778226732227488 0.06918593400579258
C 0.6233809274831957 -0.04190061714036383 0.32917652916978357
H 0.9448312303582275 -0.610663512745966 -0.5268801318890765
H 0.6812261111589223 1.0209101170420494 0.16263842416837274
H 1.10814893555867 -0.35409848371038943 1.238234821753982
H 3.405254152896414 -0.21916356965474598 0.06709727570210225
