12
## STRUCTURE-ID: 645666fbf3a90b1bc54975b3 ; CHARGE = 0; SPIN = 1
O -0.9265693082450019 -0.8014572668968075 -0.9403949702134158
C -0.44848312750408686 -0.6990843014575135 0.3229425168791527
H -4.227944405318275 2.8262469555367464 0.26732580522242094
H -0.9626980013288675 0.047858116643116615 0.9260408920249015
H -0.4274706794941108 -1.6799853089941341 0.7958960809862234
H -1.3905289957149274 -0.006949071307234807 -1.2329533778576416
O 1.3461325368430779 1.0378624081284409 -0.43441082914842055
C 1.2406400949584104 -0.20695078245873608 0.20831827514272583
H 1.3884265579555641 -1.0833728032363474 -0.4611644216224093
H 1.1097913443891716 -0.01724679296460612 1.300923912681081
H 2.3169126091149512 -0.42638620180612175 0.5751217722207125
H 0.9817913743441006 1.0094650488131893 -1.3276456563153287
