8
## STRUCTURE-ID: 645664009c980d65491d80b0 ; CHARGE = 0; SPIN = 1
H 0.4354726899202993 -1.1712147237877388 -1.2543344329472412
I -2.3635430984032193 0.5929348465973244 -0.30145916292252767
O 0.6421090588254296 -0.23620454204983268 -1.1264755752114815
C 0.25753409294370616 0.12763147226549498 0.9445897302202687
H 0.021023430756471697 1.1381359073171409 1.2119265617460033
H 1.305916679290616 -0.07574910757725492 0.8196142874228239
H -0.33214769235696256 -0.6540152058079253 1.3812037018047434
H 0.033634839023655126 0.2784813530427899 -1.6750651101125889
