12
## STRUCTURE-ID: 645668731e8bcb4bde7cab88 ; CHARGE = 0; SPIN = 1
O -1.6182359412757499 0.39518208104048164 -0.8475798328898372
C -2.0221952787682578 -0.22269226671717654 0.35119526993058897
H -1.5010428428730063 0.2022544700524101 1.2159264198435877
H -1.8469657331643086 -1.3030197477079126 0.32418059924945447
H -3.0907763610458505 -0.04020858330404672 0.459855520115487
H -0.6688607729718917 0.2151146162677411 -0.9750426497502617
O 1.1932269577442485 -0.11948951078556358 -0.9588811335482269
C 1.8440252583921601 0.10993912352996973 0.2752592839759145
H 1.8874389024744176 1.1774196969364712 0.5089465963531251
H 2.855700320154678 -0.30296453591620875 0.2728831177947982
H 1.2579080424933875 -0.39827294717470973 1.0387574755682574
H 1.709777448840176 0.28673760377855123 -1.665500666642888
