12
## STRUCTURE-ID: 64566addc0fbe74dfa39082b ; CHARGE = 0; SPIN = 1
O -2.215883144718381 0.3085917406414872 -0.9442480327243801
C -1.7144604573776092 -0.7428653380438547 -1.7413620837691652
H -0.7923194473871994 -0.4517693910457822 -2.253593669586021
H -2.451327394527574 -1.071334943186903 -2.4807725595278294
H -1.4997705918291135 -1.5685703546838428 -1.0656924505350522
H -2.4245824481019485 1.0585497305798897 -1.5134658793357403
O 1.6745486312064983 -0.32195135820754345 1.3727822898016613
C 2.107600917124252 1.1224375365632047 1.9895427126445264
H 2.1114438334384587 1.7418199331362256 1.0636749536919787
H 2.480811915485273 -0.6155136108466662 0.9089396901691167
H 1.1602423283355379 1.4154562648938078 2.496438335428626
H 1.563695858351818 -0.874850209800004 2.1677566937423003
