18
## STRUCTURE-ID: 645688f5fcaa503b1a6aac60 ; CHARGE = -1; SPIN = 1
I -1.070479441365462 -2.6243353727453993 -1.8713284471435816
C -1.7814589908023701 -0.4142136738237119 1.1306927879916433
H -2.478505406296148 -0.9748079238865036 0.4975197174590645
H -1.9379420463696986 0.6447591843582561 0.9272205814094118
H -2.030349382533598 -0.6288198640055939 2.169404934984619
O 0.143116235762153 2.441633623135825 -2.903730142602626
C 1.2571525646634856 1.9738372194730647 -0.4638028278341554
H 1.6036227637723066 2.7176505393841355 -1.1659437260717764
H 2.0868484838056998 1.4335288679835494 -0.020677296579366435
H 0.6392604524375024 2.431067420293418 0.30032056431885573
H -0.31814691006219054 2.2751012590362496 -3.72530368130185
Rh 0.03820676995485755 -1.3819270198571214 0.2651179629261746
I 2.6492428544812525 -1.819552057414864 -0.39557922997079575
I 0.08123856918201057 0.6026680967452734 -1.5722276228741638
O 0.4183400133874914 0.6345166887553025 2.434834794314209
C 0.18843771957110192 -0.13230726538996346 1.5996172212771744
O 0.4121251226440268 -4.106404678421498 1.5794635127752163
C 0.09929062776757543 -3.0723950436204164 1.2144008969219626
