18
## STRUCTURE-ID: 64568ad0a3d81569f62b66b0 ; CHARGE = -1; SPIN = 1
I -0.10212758602555996 -2.2321445875611743 1.314677496536382
C -0.9426117072222484 0.1170762237784376 -1.4203817288253329
H -1.1035981961834256 0.5645395971889339 -0.44546075918190275
H -1.2725314535865113 0.7787122823964001 -2.211622746715745
H -1.4143590678927314 -0.8573046866347291 -1.4715517909349527
O 1.2270548110939339 0.8201854217114075 0.4945045366220202
C 0.76943460890243 -0.9887606060181939 -3.6392550720322316
H 1.727261604093568 -1.229211940753595 -4.086321111081722
H 0.25222351777670987 -0.24684744222346774 -4.236596073586765
H 0.17555172915587472 -1.8894293517582434 -3.5310663475449022
H 1.9901789372693928 1.4051507595317052 0.5299244755843857
Rh 0.39787665215192036 0.13882939296969757 2.390410920600579
I 1.9901329684381985 1.781584336936581 3.793079902394166
I 1.1397487259587482 -0.1763390928597628 -1.6404152657531095
O -1.6176051407355125 1.9844521196529623 2.6633047843692217
C -1.5143892720112482 0.8018493056584287 2.7168622627850283
O -1.1125145777187542 -0.5219529363894828 4.897956017409948
C -0.5897265534647099 -0.25038879562591354 3.881950499354926
