18
## STRUCTURE-ID: 6456736d14fb94752e2a1573 ; CHARGE = -1; SPIN = 1
I -1.933157903144264 -0.3077765125239539 -1.579441428769455
C -0.7764380433031699 -1.3021592113911276 0.6346823735136778
H -0.3707017807755031 -0.30641538045109096 0.7038893379109554
H -0.3416225827145697 -1.9934970009756543 -0.06217999906239414
H -1.779891045271791 -1.4764459482195056 0.9761606103817911
O 0.2443025621377098 1.7768738598450666 0.3431945507163736
C 0.1531348178913719 -1.9653548133844156 2.1587044018298234
H 1.1119344399451758 -1.7613493261972826 1.7159814325431537
H -0.29910276548136167 -1.2312563005108224 2.7993153707201675
H -0.2945618367328561 -2.935146530629565 2.042572069614396
H -0.15951613624351024 2.561894336165939 0.7175854541769765
Rh 0.45253320286706966 1.6157720690733752 -1.7182080004435385
I 1.3302366149500486 -2.8640912963059275 4.1718013262263405
I 2.2141382841977535 -0.3151423240744746 -1.3429214964871508
O 0.9808671658518757 1.4670345657378372 -4.654865377268135
C 0.7557107701345197 1.511335442800589 -3.5216400902625424
O -0.8943824641293848 4.278816639564823 -1.6221683817563504
C -0.3934833001773923 3.246907731475975 -1.7624621535847402
