12
## STRUCTURE-ID: 64568e198b612c47c71aaa0d ; CHARGE = 1; SPIN = 1
C -1.3363395881331535 0.18054655175651355 0.5936046624341698
H -1.5155770898217142 1.0656566385146604 1.2046239834803698
H -1.7167333773847022 -0.7135664838812453 1.0907808154429712
H -1.8580365562892238 0.2911991458024801 -0.3750855129203351
H 0.6565955043235411 -2.9053971270726695 -2.225876050230393
Rh 0.6025127105479876 0.019059523893267684 -0.35693502776916103
I 0.3342345467955363 -2.671411637914489 -0.6922571429559685
I 1.592688966631665 0.37908418097715463 -2.7183489901792344
O 1.1980208961785253 2.9627277620690546 -0.30693549250345437
C 0.957640227716748 1.8627234496442224 -0.3100875938538939
O 0.5977058550971692 -0.2995942413412994 2.6072780425631685
C 0.4872879043376198 -0.171027762447656 1.4892383064917742
