12
## STRUCTURE-ID: 645667a824240840de4f7340 ; CHARGE = 0; SPIN = 1
O -0.9767305075920241 1.4302456850674223 -0.648692562811769
C -1.2639598534275904 -0.4525666041975587 -0.06116853551153004
H -1.1631943600639492 -1.1446131282642156 -0.8779851524599207
H -2.2560752962981594 -0.03945455971167455 0.061995426028664286
H -0.8470262852854581 -0.7845565050922794 0.8742269468147632
H -1.296156337920032 1.4382879352220357 -1.558267182830414
O 0.7734370481182135 -0.13800699669342478 -0.4925624029096829
C 1.5765702539252497 -0.2994003530265977 0.6061916264246109
H 1.363127165847208 0.4364312530164156 1.399326827484654
H 2.6295649245264547 -0.1755185648532241 0.31239956924034157
H 1.4750691296927798 -1.3099462263713246 1.035720361427926
H -0.014625881522652212 1.0390980649044497 -0.6511849208977047
