10
## STRUCTURE-ID: 645688c61f7eb235f51688ed ; CHARGE = -1; SPIN = 1
I 0.9393972026811473 -2.2719162218061553 -1.0538986584949068
O 0.6676018724823253 -1.4138762285591164 3.0335369392652605
H 0.30903558722320085 -2.2451793506549227 3.356113104256331
Rh -0.37467849261794284 -0.030759271659430095 -0.5495369273038816
I -2.626936978284804 1.2526463040324902 0.17333172871711097
I -0.7203479484597538 -0.394062139337543 2.0279948732558193
O 1.1252795413430479 2.183805818603624 -0.22651107869039244
C 1.021699722451269 1.4012460168184682 -1.0965405283753464
O -0.16249375187384854 0.9199981525602463 -3.3899727912750763
C -0.1785567549446319 0.5980969200023315 -2.2745166613549093
