12
## STRUCTURE-ID: 645668b7e32e095ded3dae53 ; CHARGE = 0; SPIN = 1
O -0.45175195450527056 0.9247495232292822 -1.555596167082984
C -0.6729166261786643 -0.19311210656339706 1.2878363842179257
H -1.4678321798903249 0.4533291436350297 0.9279499947483674
H -0.49000774444283646 0.020022743403546938 2.335990787713643
H -0.9843529129080406 -1.2293838626942581 1.1876624700567702
H 0.1802052568917272 1.257463901300937 -2.2243765307886565
O 0.539257984001679 -0.31863848762238517 -0.8355042682044361
C 0.6018029041273678 0.0570149060140715 0.4908153323615241
H 1.4322955478105466 -0.5129526901978319 0.9139192982262396
H -1.120155866010168 0.3568919115564141 -1.989049478194862
H 0.9170069297890198 1.1103302303342508 0.5479423598418796
H 1.5164486613149684 -1.925715212395651 -1.0875901828954124
