12
## STRUCTURE-ID: 64566801d07e192d7a30457b ; CHARGE = 0; SPIN = 1
O -1.5411421939971237 0.3338934084395049 -1.3809657630476058
C -0.9680813915984097 -0.6038101110352133 -0.6438849330384884
H -2.03052099412605 2.195324880341073 3.2928427686925885
H -1.407701309881218 -0.8250105248617644 0.3305339209989293
H -0.7192969941797879 -1.4819149719149924 -1.2439064683038354
H -2.002547858127357 1.022541950529144 -0.8741247130995151
O 2.1222888519639413 -0.9030440423506024 0.11235575985372284
C 1.3795611704465143 0.17514299904243616 -0.073465909338477
H 1.6333792776429041 0.6775081719863298 -1.0088900767241116
H 1.2247321850784663 0.8484845479269142 0.7726516606985088
H 0.18678896414774382 -0.19445252817343592 -0.3064010250156694
H 2.122540292630382 -1.2446637799293943 1.023254778323951
