31
## STRUCTURE-ID: 6456f6e3d607246b1a32dfd0 ; CHARGE = -3; SPIN = 1
I -4.965182114626832 -2.3450842020394997 3.344921309581075
O -3.0460150689341483 -3.4426623558612617 -0.8552682566953747
H -3.4916066454699313 -4.2914729831906975 -0.8215820890247852
Rh -3.9100577815109547 -0.5599442608670037 1.78532136456187
I -6.635791395922804 -0.251294244049341 0.1988269759324965
I -4.4051747433689945 -2.014792717834481 -0.3714971713857975
O -2.2246991386274346 1.4976437175158508 0.4102206658799826
C -2.925241919631045 0.6921924189863214 0.866704768851777
O -3.7701338659226 1.1695965930869188 4.208254802506298
C -3.8074141749907784 0.5076753530265397 3.278572586684306
O 1.535901479939891 2.6982956525618063 -2.9661326180157883
C 2.5282170576693566 2.924437562792063 0.477633906171641
H 2.5402047480272927 3.668506668534219 -0.3101343119451854
H 3.3003302194858857 2.180414972842731 0.3141410709259136
H 2.613027033387629 3.3733395071247925 1.4597345997317066
H 0.6057594451910998 2.8802709377770794 -2.7492611303664236
Rh 1.1795996831620974 -0.8738260040746121 1.3394874301716768
I -0.41357012212439004 -0.775221287902318 3.4690266987091762
I 0.6421161105724394 1.8931728648445019 0.38439810477406056
O 3.387866401876138 -0.10311494908830875 -0.3393407627349898
C 2.446869010582174 -0.9037744636920039 -0.18355068825298082
O 3.8721285587641785 -1.5954795792336323 2.369015607911727
C 2.7807933590075993 -1.2470125577391533 2.1306767666069413
O 2.578018315684235 -2.1277666761417606 -0.8497656219256325
H 3.4109012453795993 -2.129688718978216 -1.3558504802167688
Rh 0.7719056174257005 0.18033503146392402 -1.6710086311181955
I -0.768931037755846 -1.566790809686359 -0.3558557825253237
O 3.0793961630821944 1.129459559569003 -3.0131093325123337
C 1.9457287502532759 1.414702846480548 -2.6600652128202595
O 0.5405016364677365 -1.2960268175560332 -4.261206399012231
C 0.6045531729270478 -0.6860910586716326 -3.2733081704488627
