12
## STRUCTURE-ID: 64566dc68ab7e9495e64e47a ; CHARGE = -1; SPIN = 1
Rh -1.2459405061651654 -0.647101280678251 0.1624298364402248
I -1.5048451680628578 0.7009067078914554 -2.1080757138142636
I -1.3509258148312049 1.5074683706059053 1.7061175944476092
O -1.5029369308401654 -2.203139265044766 2.6974253151967003
C -1.3738252696268427 -1.6126593812380692 1.7151235137006666
O -1.646492777580184 -3.087350100953555 -1.5103447762486877
C -1.4632769537823398 -2.154201985689104 -0.8576763050752183
I 1.932679224837027 -0.39348515011194407 -0.0026836782310953274
C 2.030752322731005 1.7321435326748675 -0.40477258441402847
H 1.3431509098184646 1.9443766567871068 -1.2161136990763393
H 3.051405737422227 1.9628841823854473 -0.6802732525272163
H 1.7302552260800408 2.2501577133708905 0.4988437496016358
