18
## STRUCTURE-ID: 6456708e772f0758b94085f4 ; CHARGE = -1; SPIN = 1
I -1.9554876081694375 -1.5550052603121536 2.0707183315541413
C -1.6939912859370712 2.2889507986527913 -0.11288517222911411
H -2.375264574047029 2.891251961341885 -0.7080537191891876
H -2.1486746578091163 2.1087261808382576 0.860061911540439
H -0.7706447904092445 2.8464276382246396 0.034212824328438876
O 2.9679607730433393 -1.3117711425603076 -0.3837923787981458
C -1.424051907932053 0.9802281481338028 -0.8272458319067917
H -0.9493005360262716 1.1331496816645912 -1.7954198903041625
H -0.7076554699595679 0.35818203490552025 -0.2087892141272671
H -2.3382086904134436 0.4022571225638616 -0.9619019200260852
H 3.70387651388791 -1.0383037629649228 -0.9728700078162505
Rh 0.3217886678774394 -1.089087764164101 0.5935472553662099
I 1.329398045956648 0.7308621194300926 2.2584373894591634
I -0.35002375974163574 -2.6863801624872594 -1.4335169118282405
O 1.762589715086024 0.3062175572937139 -1.3591985851861703
C 1.8699184818276984 -0.5949272103377765 -0.5632460760623079
O 1.6104588025128495 -3.319393050047091 2.0459888813214824
C 1.1473122802494002 -2.4513848901748334 1.4639531139017485
