13
## STRUCTURE-ID: 64568ca092d586570e0b3f5d ; CHARGE = -1; SPIN = 1
I -1.3801613580486887 1.7717477814052913 -1.3601395796020226
C -1.2573469575190839 -1.00566227512122 0.6339867686362547
H -1.3167008160943994 -0.562998923361472 1.6405037006845293
H -1.0955512629032527 -2.079691401858264 0.7610095842820493
H -2.233751792805154 -0.8756161907870291 0.15897611200956752
O 0.8150403802641585 1.1875367280227824 1.351814708186551
Rh 0.33282158183828703 0.009817009187582238 -0.3294857085396099
I 2.0831610754320953 -1.7512608869857529 0.6752875609194001
I -0.017456560684996087 2.8039910486712354 2.0725770613054664
O 2.4988276013924713 2.1722406844011335 -0.595590105891982
C 1.7829247967497281 1.2882087349751314 -0.6855121344797618
O -0.22468615511042994 -1.840619632034937 -2.587629556893748
C 0.01287946748924388 -1.1176926765144892 -1.7357984106166928
