21
## STRUCTURE-ID: 645676ad3d001a4fd8068a1f ; CHARGE = -1; SPIN = 1
H -3.8677370441481504 -0.9849478971828435 0.8007400197824387
I -2.7808063644955574 -1.1697609459259455 -0.34490929083348576
O -2.4021933650748455 0.7379859173903734 1.2164174557483776
C -0.3221500599179509 -0.16019393655459913 -1.0575553134299742
H -0.8375022316005288 0.23943802857003843 -1.9146780628649698
H -0.010597808704914164 -1.1933011019979611 -1.0823535566042604
H -0.4275307628476438 0.3362492262701772 -0.1064767323521613
H -2.1735477294188246 1.5546606410644181 0.7756928747292386
O 1.5126046410244458 2.261078047917417 0.0058869706184872085
C -0.4343213523359124 -1.338720931464972 2.7181483013969605
H -1.0482072852286988 -0.5492063698157709 2.298132924145895
H 0.35997217969331113 -1.6215292678910935 2.0397950602657295
H -0.028606214088145347 -1.0398729443936254 3.675169548130705
H 1.8551465806478398 2.0323718008814677 0.8756948446243817
Rh 1.853279699344458 0.8456867211537884 -1.3920972798427065
I -1.674109696458793 -3.040465781873135 3.027965521309917
I 3.064963899962093 -0.6573919666039425 0.3678449206643769
O 2.7698038346526777 -1.1026480301009063 -3.4650417054759277
C 2.359402671332216 -0.3606566378539251 -2.6903483973808373
O 0.9480434792614744 3.054082041678219 -3.1871288455442293
C 1.2840929284014437 2.1571433867327916 -2.5608992570880136
