12
## STRUCTURE-ID: 645688445b4c6869191688f0 ; CHARGE = -1; SPIN = 1
Rh 0.16902612760924512 0.6360506930021513 0.10591690583253352
I 2.489272975651316 0.1479957532351515 -1.174452915443125
I -2.014291893228102 0.8713885637316635 1.6689667123686895
O 1.800832383086528 1.5729018396736256 2.469044409580377
C 1.1912449153844162 1.142452093267073 1.6029497983733483
O -1.4649734531767318 -0.3075447940562942 -2.243524204513704
C -0.8329024839471691 -0.05264115678045205 -1.3075338854948546
I 0.1257149714608799 3.2679874715802923 -0.6368658750047882
C -0.3618661031528814 -1.5401569357750309 -0.18506301674146436
H -1.393320814402956 -1.8621869003378182 -0.04640218502014588
H 0.18604046226833895 -1.7746159027821977 0.7403920376146277
H 0.10522291244711461 -2.101630724758161 -0.9934277815514937
