13
## STRUCTURE-ID: 645688b93c8f676c7d324920 ; CHARGE = -1; SPIN = 3
O 0.3965599850755991 -2.1862261625840755 1.0592917876865382
C -0.5270003135989539 1.5140965861451234 0.9974339901937611
H -0.17060166788827055 2.412764065462752 1.500754056977493
H -1.34043546882261 1.7509815131241524 0.31287559387135283
H -0.9102126142104605 0.8140243430227645 1.745411201144433
H 0.0427134780776766 -3.0752548845571517 1.142799562396185
Rh 0.2501719124303563 -1.0353444509186365 -0.5518253498386064
I 1.8205553966334576 -2.477478807839757 -2.1456119443767525
I -2.378574803123806 -1.4502732227795085 -0.800591908538177
O 1.7888177632850746 1.0605366009580544 0.5093154205069091
C 0.6172448915272785 0.8581954472759629 0.2833693803074324
O 0.18487537175440813 1.3661884002901103 -2.3837786880406
C 0.22588606886025114 0.4477905724002014 -1.6694431022899736
