15
## STRUCTURE-ID: 6456b66c16fc932ff20876f8 ; CHARGE = 0; SPIN = 1
C -2.161853073311834 0.2268057467215982 -0.20423992903634972
O -2.4244460690936585 0.5964060663050359 -1.2507630090214341
Rh 1.1462984112692804 1.0821465954046685 -0.7707795079729327
I 2.8313901141260325 0.1152400405726433 1.0165851999044146
I -0.41378749538765075 2.2889998548840578 0.9811408216611384
O -0.5544175474834586 2.428600984935221 -2.825296368307037
C 0.08396608682623638 1.8727778634845154 -2.0511370491231653
O 3.000082446693944 -0.020095741654485487 -2.8407318063432023
C 2.277320101047685 0.38573346640661565 -2.048368637685289
H -1.2943028293193526 -2.6342255326225645 0.12374245195150772
I -0.03535802715592084 -1.5990617430374225 0.15613901158951546
C -0.5598837591783786 -1.2281744353788728 2.2040738303676823
H -1.4899329412187892 -0.6634811960930451 2.181528355873723
H -0.6486443788596781 -2.2029823472636676 2.6777111748407694
H 0.24356896104553594 -0.6486896226643039 2.6503954613006595
