12
## STRUCTURE-ID: 6456697b4ec2ae4705224148 ; CHARGE = 0; SPIN = 1
O -1.3697366933802206 -1.01408734257832 0.7701700357610746
C -2.0551036821395874 -0.1655005995930955 -0.11995412618196306
H -2.102133873115753 0.8601559240828351 0.2599102135695643
H -3.0685863570755085 -0.5537407298352423 -0.21512390587763267
H -1.5848569642428454 -0.15943328704706686 -1.1092737664479062
H -0.4683221056756174 -0.6628402729889499 0.8886930623744669
O 1.2654140910225544 0.09961228934340428 0.8606898893180068
C 1.772652948336376 0.42084237708936023 -0.4194435422706493
H 0.9960180162475156 0.9854914562614999 -0.9320740759185112
H 1.9981823897733553 -0.48115184833858116 -0.9953854034659217
H 2.670277776111358 1.0397035214255204 -0.346844702504261
H 1.9461944541383611 -0.3690514878213541 1.3586363216437427
