12
## STRUCTURE-ID: 6456699cbdd9582cb37c7c4e ; CHARGE = 0; SPIN = 1
O -0.7513987767787601 -0.0612711000392063 1.2747986517503276
C -1.9049651792455207 -0.02368741100919829 0.9349499056878784
H -2.2131760277965866 0.3424319587646668 -0.05244176050431246
H -2.7149406780059646 -0.3553149617750809 1.5910735827842422
H 2.2556537489431103 -0.015321701201871582 0.5603643530165345
H -2.807573962106204 -4.4386109959179905 0.07476828738184498
O 1.5958832979225126 0.676408895965195 0.33866324247996443
C 1.4821991211193992 0.8214300001851895 -1.0995024522438683
H 0.7864389844218204 1.6347288598948568 -1.291070383575656
H 1.1240733919822332 -0.09243365752756366 -1.5705277604796342
H 2.4602400442476107 1.088823640240024 -1.4921515038328745
H 0.6875660352963574 0.42281647242099357 0.7310758375356019
