8
## STRUCTURE-ID: 64566428f3854633e9224140 ; CHARGE = 0; SPIN = 1
H -2.3455191115062233 0.012821078317885409 -0.012257557023642854
I -1.8695066288524265 0.05773320916839633 1.5426864449274291
O 2.32264200096824 -0.037333237307597626 -0.1732528985517162
C -0.4957266569922035 -0.02351389658112009 -0.27150560158481346
H -0.7972234814006206 -0.9286833059193434 -0.8124376263774356
H -0.7734258426526909 0.8498649752012494 -0.8740545814765335
H 1.333299202972285 -0.041659724873244264 -0.12507822915261502
H 2.6254605174636363 0.11077090199378387 0.725900049239323
