15
## STRUCTURE-ID: 645688a7279b2f0c00763444 ; CHARGE = -1; SPIN = 1
Rh -1.522572718587247 0.4537399803864774 0.49917874966205666
I -2.936841927692767 2.0140556647663765 -1.0443106618997764
I -0.4955972383027984 0.22439007840959824 2.8738670611621537
O -3.9426528529452836 -1.206724860027976 1.27826302425553
C -2.893527362243441 -0.8924776944415193 0.7676365693626377
O -1.2367348566439638 -2.137319214272503 -0.728496086194166
C -1.8621091510296255 -1.3688037515094675 -0.04922863102725355
H 0.055188175404667784 1.2691844857420584 -2.2336804447792966
I 0.8201448487946269 1.2408989377349693 -0.7392144345758443
O 1.5418704705266388 -0.24090425204485946 -1.9982941771312572
C 2.3713553779220873 0.4304777846088706 0.6022506426045761
H 2.1445628998784927 -0.600176901676749 0.8488333818582292
H 2.3290428442783715 1.0454153312027912 1.493910583923509
H 3.337212772666664 0.5222841482360994 0.12222051069385584
H 2.290658717973586 -0.7540397371141828 -1.6929360879149589
