12
## STRUCTURE-ID: 645668d9cff4a4593c6f2cab ; CHARGE = 0; SPIN = 1
O -0.0068045997577754 0.2954741168501693 -0.08893200043540424
C -1.3949363776867183 0.10299978954318818 -0.2568700036479907
H -1.870268086314124 0.42714449106513236 0.6659322723893687
H -1.625014562586085 -0.9526618953173707 -0.43822248777910006
H -1.7720109720844632 0.6993656753354177 -1.0946095028384077
H 0.7187714203356393 -0.19397465497292585 1.6268363525228513
O 1.0895095951935958 -0.32948021688531126 2.511703119940289
C 0.739373424342193 -0.07911791749825522 -1.2268569379438505
H 0.44140923700474033 0.5120642124356668 -2.0993796059806136
H 0.6027245475375619 -1.1423840753560006 -1.4525734696188786
H 1.7839712655275315 0.11354377785779762 -0.9941817330153262
H 1.2932751084879035 0.5470266969424903 2.8471539964070622
