12
## STRUCTURE-ID: 645669ae857b2f46960b3f66 ; CHARGE = 0; SPIN = 1
O -0.6903555355129366 -0.29806565883701786 -1.3841852888177377
C -1.3390419371223434 0.1564928090798355 0.5148688770648456
H -1.1072077769137159 1.1909991813416032 0.7061462431868151
H -1.2659148026211575 -0.5161101691823522 1.355683319504767
H -2.258183067023933 -0.0027281511454008275 -0.02660890771635856
H -1.0181811733788935 0.46421743270100796 -1.8768687761598544
O 1.6580777339283623 0.2199072683721711 -0.8373170194663307
C 1.5082207885255738 -0.1788726947583038 0.4262676885799656
H 1.7870298347548184 -1.2346173843285897 0.6087864644752061
H 0.3765686332009911 -0.14003812462658544 0.6409313166846046
H 2.0093551356832884 0.46871455988673755 1.1661763875298599
H 0.3396321664799522 -0.12989906850309973 -1.293880304865795
