12
## STRUCTURE-ID: 645669426802d76e0562319b ; CHARGE = 0; SPIN = 1
O -0.2800448543918255 -1.2340418401798412 -0.5392404638521696
C -1.1230878873808408 -1.024006897524528 0.5925785177643117
H -1.6764024907634445 -0.08634320478732177 0.505563069679918
H -0.5469589508189847 -1.025412090683786 1.5189316426373531
H -1.821721793737596 -1.8566070524318603 0.6076610694373313
H -0.9112938146373996 3.9166839302718883 1.8335712504637862
O 1.657371672356699 0.06985579696326917 -0.24176856305809208
C 0.3606545558553728 -0.1755284262402973 -1.0426170928377505
H -0.20413081014246384 0.7647749939819826 -1.0174164490202344
H 2.3345409367416416 0.5420218554387713 -0.7784731097569982
H 0.7178919905904775 -0.4384642872721875 -2.0404097629310436
H 1.493181446328363 0.54706722246391 0.6016198914735981
