18
## STRUCTURE-ID: 645672f4c7721304aa3eadde ; CHARGE = -1; SPIN = 1
I -0.9666521249175881 -2.5842328598739623 -3.488090475781964
C -1.7705303491258022 1.3499687561999807 1.481327081547582
H -1.6013207056604832 1.8773711952256829 2.409463758879487
H -1.8095653904469264 2.055494670199397 0.660511562823451
H -2.705527696281126 0.8064718448826709 1.5344930751657302
O 1.7921062488757227 -0.3304961051114508 -2.4945961243527184
C 2.0725031335760016 1.1257217122955832 1.890084348506831
H 1.4125984158788234 1.9105330036136416 2.207652647105705
H 2.5199892308550336 0.48164478728773136 2.6231733428721475
H -0.9595221021663896 0.647436237163531 1.3126084234040707
H 2.457720424545048 -0.9588321775564685 -2.7945216633717407
Rh 0.26765895160467196 -1.1612320598166306 -1.2481947969773697
I 2.142394570205355 0.6044232815224815 -0.07029353520204241
I 1.826827535697586 -3.173732986246281 -0.46728018949002614
O -1.7521213463689203 -2.325288957509217 0.6244257355210918
C -0.9813133068184118 -1.8242779878947175 -0.059094542839974055
O -1.2303863192767133 1.1950312704403163 -2.3086523036122983
C -0.7148591701758595 0.3039963751776101 -1.8130163441979479
