12
## STRUCTURE-ID: 645668e6477ae8688d6b0e18 ; CHARGE = 0; SPIN = 1
O -0.7900526876430081 -0.2078639792756922 1.6821297061598433
C -1.7202205021426131 0.5903431881107349 0.9896392187727224
H -1.2292913981155318 1.4272466342488135 0.48132441183635066
H -2.414213905931176 0.9867723733325019 1.7299992842178837
H -2.281334542302774 0.005390457165692654 0.2537092612363441
H -0.17514296563917442 -0.5895733310060695 1.029432935161575
O 0.996636031761236 -1.1056503504632635 -0.36401774468665593
C 1.396022009541721 -0.07845194144930544 -1.2496227874704453
H 2.06939991084606 0.6298659809725797 -0.758847337804044
H 0.4903569113209733 0.44298304948536094 -1.5540737137261733
H 1.8835275595285534 -0.48781090645453634 -2.1376980721042536
H 1.7743135787757511 -1.6132511746668323 -0.10197516159315458
