12
## STRUCTURE-ID: 645668b01fcaba27da0b3f69 ; CHARGE = 0; SPIN = 1
O -1.2302574286310644 -0.7667151555829838 -0.20352647661719803
C -1.7511880059739746 0.5000655077375036 0.13001781313958458
H -1.3108638695322066 1.290412298061223 -0.4837501033400283
H -1.512206049451015 0.684758274372974 1.1755103226192647
H -2.835892666753258 0.5118742929163134 0.0027181134511826666
H -1.4425182848092288 -0.9742567503327111 -1.1260740510227092
O 0.786521574383423 -0.607834153380938 -0.5910739477123691
C 1.5171637714090391 -0.7233611520754027 0.35589852128727373
H 1.8649290717587363 0.07780707511081707 1.0075482495030685
H 2.274724841911412 -1.7376922097722614 0.29525126431180343
H 1.4543677360185934 -1.8524981726434566 0.9625913183172037
H 2.1852193096695522 3.597440145588926 -1.5251110239370897
