12
## STRUCTURE-ID: 64566846703d4f738c630f1e ; CHARGE = 0; SPIN = 1
O -1.5912954126224548 -0.47667932195732055 0.4959641959506018
C -2.831914062268785 0.5745801087546494 0.43003971457496504
H -2.4427378980246512 1.3858525754078106 1.0875494573676445
H -1.655124677655493 -0.8328664009986922 1.4016507551194688
H -2.697830529154891 0.9811419973842966 -0.598359374052725
H -1.8624157218492783 -1.1811706953763674 -0.12146268858190318
O 2.1808003891696077 -1.0578994894541756 0.007304360243967996
C 2.114081161033446 0.13735179851614432 -0.7378217594701522
H 3.093838406071488 0.6172615201231771 -0.8191740115766117
H 1.4020667847217845 0.8437320812191744 -0.2992224012765584
H 1.7721388714422506 -0.13347643814663626 -1.7352814879010485
H 2.51839268913701 -0.8578277354720473 0.8888132396023175
