13
## STRUCTURE-ID: 64566be338ab931ae641e58e ; CHARGE = -1; SPIN = 1
O -3.7742380230492287 1.1232145338123778 -0.1970578820939406
C -2.7017560921834316 0.9580876748726804 0.4661065775582195
H -2.2325282867586913 1.8792570226479812 0.7973671128128297
H -2.521527424021241 0.06223671220662842 1.057467780805263
H 1.8374201574558693 -2.551543406728724 -1.5487948289024127
H -4.274900758649909 0.30881927792298836 -0.4143512008764434
Rh 1.4852922171339584 -0.36228966518111294 -0.00599448063518726
I -0.6953296872328658 0.35139464256576053 -1.250225094159097
I 0.12984955178440855 -1.5200873825875023 1.8605016533789622
O 3.964439376129784 -0.9916136858257512 1.516600446902744
C 2.9938819399215686 -0.6985577631531865 0.9661223525680057
O 3.257425327026951 0.934122439500796 -2.0189005302110297
C 2.5319717024428265 0.506959599947062 -1.2288419071479126
