13
## STRUCTURE-ID: 64566caee0b2726da37cab80 ; CHARGE = -1; SPIN = 1
O -0.7495473728756336 0.3183350529890764 -0.7176633408388213
C -2.418862508651218 -0.28967825078931614 0.5298851247408168
H -2.3859264972183354 0.672983056150083 1.0069867012309828
H -2.825162445657339 -1.0833393395027797 1.1296019407457487
H -2.7421428144603763 -0.32460542143883464 -0.49507340317697796
H -1.0460739828174566 1.1937069046511024 -0.9928659322100776
Rh 1.2767760907672434 0.13601029402101325 -0.05802934400527653
I 1.0457440641875932 2.3921105611852487 1.4194427746216236
I -0.20384404068924084 -1.4881692429928297 1.6921189278010116
O 1.3873459444980492 -0.9248235243300506 -2.857938220588958
C 1.4707355257680603 -0.574041035719873 -1.7598898384771715
O 4.151811938602378 -0.043640246438700965 0.707155014370717
C 3.0391460985462047 0.015151192215853445 0.39626959578640086
