12
## STRUCTURE-ID: 64566873721dd230253ae5e8 ; CHARGE = 0; SPIN = 1
O -0.9475615032700321 -0.514847731068655 1.5193077944829692
C -1.952809539620903 -0.3599275190359304 0.546184645716579
H -2.1516235605417218 0.6967185394167285 0.33998283206989866
H -2.8570652072687768 -0.8183615496831976 0.9449843545013348
H -1.6852601528209241 -0.8628342348863597 -0.38955531556441575
H -0.13658695592914594 -0.08950700220426426 1.1849413761925645
O 1.3530892635105396 0.654086110512073 0.3064769224539352
C 1.525604100864774 0.25392012441746237 -1.0386328643157876
H 2.2750693677997065 0.8692809756768457 -1.5417129595307446
H 0.5660609929010689 0.3932251841328099 -1.53322408705816
H 1.8137830974766773 -0.7987216558427551 -1.1063048992952034
H 2.1973000968987257 0.5769687585652465 0.7675522003470586
