18
## STRUCTURE-ID: 645672502a26d021be2726aa ; CHARGE = -1; SPIN = 1
I -1.4835278085884034 3.404756056856251 -0.005997696785736849
C -2.4289093992834747 -0.07437994130811382 0.33905133806422094
H -2.9634965900680754 0.25766225328760484 1.2320304755721851
H -2.747299885518553 -1.0923494637737747 0.10060366604131425
H -2.7026082664037334 0.5723510797392544 -0.49627652184896565
O -0.14633494570766892 -1.0384396553095872 -1.113212219345293
C 2.9580508016831955 -0.6917211948984002 -1.307234933252745
H 1.9719819867427428 -0.8772296408181447 -1.7267806437510502
H 3.5759128202027606 -1.5809790697999058 -1.3239879630239375
H 3.4370742511923944 0.15160257460086501 -1.788711499572892
H -0.5222102650582501 -1.9235188157164487 -1.1517863034955675
Rh -0.36069959174522087 -0.06659706964736174 0.6568659888018713
I 2.624068705761586 -0.16421540588716999 0.7553484837924841
I -0.48587861925226433 -2.384465854872092 2.0443417133537243
O -0.684432293021775 1.3736242364167341 3.2557809408876985
C -0.539298798209203 0.8417135488630608 2.250071456543609
O 0.6398670087032416 1.7531696063550013 -1.2855437326412
C -0.1422591114295292 1.5390167559120789 -0.43456254933957844
