18
## STRUCTURE-ID: 64567147d48c46168d30457e ; CHARGE = -1; SPIN = 1
I -1.3517811808050595 1.2047584316165365 -1.6412977597788199
C -3.0275582125935228 -0.1324922178627419 -2.0785332760518633
H -2.85185797174021 -1.0625651118547126 -1.5481604407147627
H -3.049988660978698 -0.27924598458218597 -3.1515132716738217
H -3.9305861427630973 0.3476173719391678 -1.7211592803287215
O 0.36082603666282836 0.9559636657071929 3.4314229757881636
C 1.744906711707892 -1.369455141039341 -1.0101093329602702
H 1.1192040030604553 -2.1411511602172237 -1.441570204583714
H 1.1532892599963205 -0.6809519270158481 -0.3609766289232594
H 2.553128951768658 -1.7994868592053301 -0.4321377432374878
H 0.8801284226915139 0.7432761363998528 4.231635654808811
Rh -0.10493084415176364 0.6722574637493756 0.6741343761747761
I -1.5788740277804156 -1.3946764855937313 1.2799139356598486
I 2.5834432039787862 -0.21803501448399473 -2.5953016597761724
O 1.8969338421922088 -0.3325976370530338 2.4561753954098067
C 0.8785074455686015 0.3455218743705778 2.32973715508831
O 1.737127550945412 3.007124455900873 0.8817044593943995
C 0.9880816122400847 2.1341381392245657 0.6960356457047843
