12
## STRUCTURE-ID: 645668732da1ba79004ed2b0 ; CHARGE = 0; SPIN = 1
O -0.7177838935628481 0.5223454661075346 -0.266989721854928
C -1.6357066021025737 -0.15326613094624977 0.4942726827048002
H -1.5923065145640316 0.15921937021749644 1.5508886442930772
H -1.499867911896111 -1.2467128695072711 0.4512226936275114
H -2.6496883207281314 0.07051873338515971 0.13073953790262563
H 0.09477465002442693 -0.17311891255153583 -1.2058208126710817
O 1.0548257019012277 -0.4997506977908697 -1.433051569858778
C 1.2594020663238696 0.24522172860408048 0.40481177367562265
H 0.7400190959228454 -0.21399517430602927 1.2285160314014147
H 1.2436373573939672 1.3203373477164468 0.3965450254591138
H 2.2345959111604494 -0.19491724232385807 0.24583209881931592
H 1.468098460126912 0.16411838139509885 -1.9969663834986977
