21
## STRUCTURE-ID: 64567978260580669e230d84 ; CHARGE = -1; SPIN = 1
H -0.2924815280577334 1.5089549735133059 3.615857294806089
I -0.9757274421239926 1.8145701188063825 2.1328900192483697
O -1.704021026450462 1.9586164346473822 -0.09147461203878463
C 0.023347025872224456 0.2245007583640662 1.0890912156791452
H -0.5517946331186256 -0.6709905564908948 1.3484954847837483
H -1.9134923683796563 -1.196893875870796 -1.1235132786611026
H 1.0079042112189216 0.160410405719874 1.5579265575012815
H -2.059062812685853 2.739152215190776 -0.5255172835111008
O 1.5441346840569152 2.4318381532505358 0.3958390970303218
C 0.09459019441761111 -3.7718701779192085 0.30743644873178333
H -0.41847609003573627 -2.9229769741186424 -0.12348417265305758
H -0.5491965533262848 -4.640908932199165 0.2993825762442669
H 1.0193892008090746 -3.9516956246572605 -0.22303917657823114
H 2.140666459520663 3.21258130621865 0.429593649818655
Rh -0.2066702723790978 0.6821144365036526 -0.8805397397970008
I 0.5621984789929926 -3.306538593837753 2.313734774461742
I 1.7643989600803396 -0.8950111343567188 -1.5049021760139938
O -0.9909664334557338 0.5976913392609331 -3.7815822367693896
C -0.6263631413906507 0.8353525898409295 -2.720780092476042
O 1.1436432410176849 2.9579491799149524 -1.7351464558105876
C 0.9879798454173679 2.2331539582189754 -0.7802678939961364
