12
## STRUCTURE-ID: 64566868c2cace503456ede6 ; CHARGE = 0; SPIN = 1
O -1.3599983822986073 0.06400986917414414 -1.3430873540068295
C -1.5561882650066072 -0.04777798350985626 -0.030328580677322123
H -2.1369700212229454 -0.9396283805975999 0.269216135253631
H -1.9985531176433224 0.85048055275717 0.4444681222106414
H -0.5142207769295367 -0.16428661910630213 0.44468276154879344
H 0.09353939679397814 0.23720651457459455 -1.3656995604282047
O 1.0876082581045456 0.41018080633504395 -1.1255504617896017
C 1.1916799112922167 -0.37514065941082 0.7643324392604537
H 0.826811640321786 -1.3718325222540193 0.9552752266940818
H 1.0011520039702075 0.3649586196240137 1.5247309822384967
H 2.2139268998320665 -0.38663891453756993 0.4185476010867887
H 1.151212452786229 1.3584687169511942 -0.956587311390924
