12
## STRUCTURE-ID: 645669a4c49c6d6a3419eb68 ; CHARGE = 0; SPIN = 1
O -1.2533029925533035 -0.09594978909539172 -1.545384266839092
C -2.084020896462419 -0.13559401116276168 -0.40620050830169196
H -1.8493271125398965 0.6757338900573774 0.28961234064563296
H -1.8958770424195248 -1.0882195835780772 0.08554034321764246
H -3.1418804514221232 -0.08289699361109897 -0.6793890800524082
H -1.4173770890220998 0.727687078768457 -2.0206900363860223
O 2.776416856055936 0.18027441575760308 1.3798581012173896
C 1.6149163143824903 0.09982607799489222 0.5823727661084823
H 0.9938212396142891 0.9518998808907627 0.8510207273300664
H 1.0567031385394645 -0.8205339362503287 0.7748146615665209
H 1.851979210455308 0.15617409673291877 -0.483634300299921
H 3.3479488253718754 -0.5684011265043527 1.1720792517934004
