17
## STRUCTURE-ID: 6456b690e0ed974fbd1dbea0 ; CHARGE = -1; SPIN = 1
C -2.9130969676906853 -0.05236481259636122 0.3985111968436038
O -2.3446634051248942 -0.5952643289421828 1.2335638039486418
Rh 0.3826835969142033 -0.45066165285766885 1.4473532419749038
I -0.322584860499722 -1.3777966509216222 3.870603859293913
I 0.8113264344710889 2.0479067326335705 2.301934058510921
O 2.5184312236124415 -0.7517115371520141 -0.5816310539851538
C 1.6374221383698642 -0.49956234648553777 0.1391363939065439
O 0.6054969872714344 -3.2822446849476887 0.9084194998485452
C 0.07402994300653974 -2.214792026386953 0.6237240301361326
H -1.7267093702853913 1.897420286934353 -1.9363762640793887
I -0.87455994400916 0.9989994374634511 -0.7955979224750181
O -0.7663248027164691 -2.1707582058483923 -0.44982063668063954
C 0.7594814107271396 2.233863640920261 -1.5029288387648554
H 1.6557571496864985 1.9114207447139764 -0.9851514974013423
H 0.5282834103786269 3.2608768362566942 -1.239344503055202
H 0.8587484190872615 2.0952729399524124 -2.573443448396774
H -0.8837213631987834 -3.0506043727363172 -0.8589519196248452
