17
## STRUCTURE-ID: 645671348c6e240cdd4dd527 ; CHARGE = 0; SPIN = 1
I -4.091342289748132 -1.338065985754036 1.3711680323247621
C -2.1144108966994652 -1.2411679687316723 2.2533122087184037
H -2.166234411897717 -0.48853718099819743 3.0348073315258564
H -1.0783391797996795 -1.6207732607268472 0.3947537942698668
H -1.9325259317816605 -2.2206637675857688 2.6913575884991165
O 0.8323974212314444 -0.9861491524089951 -1.7100316882033268
C -1.0440034647529133 -0.9417782670912491 1.2434277137781211
H 1.416782855693357 -1.69495652974222 -1.396509421678966
H -0.06213998005862819 -0.9793879828497931 1.715560626894718
H 0.5292201596163116 -1.2311646530149019 -2.594142338803994
Rh 1.5089782943746912 1.122247292973685 -1.0629087555910846
I 2.7701258945151648 -0.009197435803903992 0.9128245671002839
I -1.2145796020945785 1.069856028230849 0.3855708021729736
O 0.44943046353991284 2.3752995121810976 -3.5661559725113285
C 0.8440681179748605 1.8770851300192828 -2.614834518945572
O 2.958616497105115 3.6304062976376956 -0.3846749570299519
C 2.393956052781945 2.6769479236649985 -0.6735250125198042
