33
## STRUCTURE-ID: 6456bb9b1338ec35bd19eb5d ; CHARGE = -3; SPIN = 1
Rh -2.1242994366616204 -1.1720344813591077 0.05623453662374228
I -3.5320953080536595 -2.028410953775644 -2.0801216094750115
I -3.874926554386804 0.8222509480294602 0.6111240752620786
O -1.3213120931769429 -0.3018223618426903 2.7911876723372817
C -1.0564414679284062 -0.6645605820130204 1.7006729633623818
O -0.6771171995743871 0.06890982885658582 -2.1619608046105148
C -0.662829968285266 -0.3237697732188002 -1.0344171058558935
I -3.523232059545907 -3.049545869375871 1.752493614579549
C -5.658627051416656 -2.895407019787716 1.238396032352522
H -6.1735517153737645 -3.6378604569079163 1.8377199576249632
H -5.747338744008705 -3.0906036766303133 0.17369861994870756
H -5.975942904998519 -1.8846364671105749 1.4749593257903477
O 2.4570566231158573 3.7944494145846077 -1.8433545417765047
C -0.29847139159843483 2.360127016858431 0.700710401298667
H -0.2189559902566786 3.438365311479352 0.7852234665629594
H -1.1592925765771265 2.0145552667450914 1.2664474060008402
H -0.4160633297380941 2.0920451717682123 -0.3511429397341641
H 3.144084601833209 4.353488343353985 -1.4395341266795016
Rh 0.4532752030293938 -0.9257595035432096 0.43673288452385617
I 1.5901692509445826 -2.6347828425392614 2.130187218821929
I 1.4663604606624785 1.4301075511339236 1.424335460689928
O 1.8279189245233758 -1.5972903686131261 -2.0590493355601116
C 1.9491698817186647 -1.0986099246228744 -0.9342959637903959
O -0.37464322417195484 -3.1417836589484938 -1.306168390978192
C -0.6349872030742455 -2.248823229250876 -0.5636737032260326
O 3.225992981233293 -0.7245783705819154 -0.5781167990058683
H 3.880325080659377 -0.9874942633453635 -1.2588686262459143
Rh 3.6166783075176876 1.8545718846806922 0.08243749194777225
I 4.299649927421379 0.8889359025825324 2.455306953385891
O 1.6756246000637 1.7317923716673616 -1.8973620162118996
C 2.5145020901995583 2.4938124565711206 -1.4044985108628987
O 6.148830719557071 2.675880450586863 -1.2788534296007865
C 5.180489566347583 2.3884818845685407 -0.7264501774998856
