16
## STRUCTURE-ID: 645678a313c99e41833dae44 ; CHARGE = -1; SPIN = 1
H -3.081449945536165 0.45890711438855775 -1.1410054321675458
I -1.443835439355827 0.3276222330653205 -0.6671852232565004
O -0.043571905386512594 1.4984123410262031 1.881931422143785
C -1.832541451980511 -1.68491380435583 -1.4049186110571599
H -1.0722568334426152 -2.336903137156764 -0.9855314580531083
H -1.7536217795294353 -1.6529762310754244 -2.4886383354136763
H -2.823886078242342 -1.9616966082972171 -1.0595087404379913
H -0.07194880109503733 1.9211468678690555 2.7604710675367645
O 1.1458558892685047 -1.5727254193011984 2.9419160975697
Rh 1.3233374667487416 0.29648045276675994 -0.2578458057159843
I 1.5362471398428221 -1.1743019375604962 -2.4225815735445297
I 1.077690901423698 -1.8779544345341965 1.0937646500807634
O 2.1659250835957544 1.4905363442036088 2.2168053867220157
C 1.2224125957119472 1.1973308056687626 1.4831374991231518
O 1.975844705191521 3.0881066576372413 -1.0690762903488786
C 1.6757984527854497 1.9829287556556157 -0.8817346531808048
