12
## STRUCTURE-ID: 645664a6ce3e1502687c7c4b ; CHARGE = 0; SPIN = 1
O -0.2770737650869919 0.4346203386646662 -0.20960859480256283
C -1.5394422759217918 0.2442084380753139 0.48171773883346347
H -2.2091076452782556 1.039290859531569 0.1626692596831854
H -1.3358690625386125 0.336051344810361 1.547881460656385
H -1.9678636546049022 -0.7334082838395257 0.2652634528148619
H -0.39287396654265666 0.29323075687340616 -1.1733226844168576
O 1.0745786630246459 -0.06314797169047644 1.6018511635247497
C 0.8262442850194027 -0.44281445341308096 0.33610300737544446
H 2.1110631199457717 -0.07420824647708203 -4.642789104508144
H 1.6527744406076694 -0.3128210759444141 -0.3698270112489415
H 0.4646680525713042 -1.475783005333866 0.34532394396463556
H 1.5929018088044145 0.7547812987431064 1.6547373681237847
