12
## STRUCTURE-ID: 64566a7e8df09d27975c0b0b ; CHARGE = 0; SPIN = 1
O -0.2669256030881269 0.06579083291594638 -0.1337262326553463
C -0.8702923495346838 -0.23248080231360607 1.1068652985089502
H -1.7438200459708024 0.4056315809244201 1.278208028682844
H -0.1608693016760861 -0.09558711233038211 1.9303724934241984
H -1.1811296486965985 -1.2735729257660164 1.062029138416632
H 0.8865815078584398 -1.2827089763450268 -0.875127710976217
O 1.3955787864721283 -1.9765461151878496 -1.320562833654478
C 0.1795548958503092 1.402052771286697 -0.2184929461898359
H -0.6568155750702659 2.099763488748735 -0.10332015824873683
H 0.6232949090173623 1.5221816006572797 -1.2039944692923106
H 0.9298497517701386 1.6140855619921204 0.5511054148841453
H 0.8649926730681917 -2.248609904582317 -2.0733560228998473
