18
## STRUCTURE-ID: 64568be8a370ff2b096b0e0d ; CHARGE = -1; SPIN = 1
I -2.7844618235644534 -1.62162584514931 -0.8713274979918901
C -1.1605039438331788 2.5522538588705723 -0.14183485160361434
H -2.0050602874012746 2.233180034146061 -0.7674106670988304
H -1.439667601780855 2.5311439761927454 0.9101560511536078
H -0.9029980527621758 3.572921825285598 -0.4260242989498241
O 2.2256929057774086 1.2205888863505316 0.4333225969383525
C 0.24913394438079753 -3.559670095126961 0.5202014167344206
H 0.5192007531599525 -3.5036549994776167 -0.529802420026308
H -0.7704015883222542 -3.9096269708338283 0.6378434257880986
H 0.9496122203905387 -4.169072978364851 1.0774289147099867
H 2.8336995420283633 1.2313931509612879 1.1971041593581093
Rh -0.6293147008044988 -0.1788915498226062 -0.9868610372602725
I 0.3540788217707931 -1.5466345391516687 1.331371549356829
I 0.32886874911205366 -1.4424976050061695 -3.1499309356427196
O 0.4877702416194384 1.4238800891735246 -1.5554749401828987
C 0.04286957256731176 1.6454538804398604 -0.3723803221163848
O 0.706337170748571 1.9246814336727727 1.9162841883930324
C 0.9951440769134469 1.5961774478400446 0.7773346684403296
