12
## STRUCTURE-ID: 6456666736d31e010e051b8e ; CHARGE = 0; SPIN = 1
O -3.981814225685323 -0.6313444943956502 4.344632557029386
C -2.865711097523491 -0.6637310909330141 3.908533385435403
H 2.2352471841949564 1.1698438361568542 -2.543917342725484
H -2.4264607817586255 -1.5812869004505024 3.4901905481522415
H -2.2138582673166725 0.22237515717373155 3.9022995675503376
H 0.49119549722512135 -0.7770279652224049 -6.002301999824977
O 1.565280382924004 1.2605592477921292 -1.8295955490986195
C 1.6192295977199063 0.11259154454156373 -0.9374510122819124
H 1.3872551260127242 -0.8150041638240831 -1.4575333736326679
H 0.9023985320524586 0.2868558166695771 -0.1387981059918761
H 2.621647133316663 0.06842349678952678 -0.5183740980558155
H 0.6655909188382793 1.3477455157022733 -2.2176845765560103
