12
## STRUCTURE-ID: 6456681e9a9ac1392d6aac6e ; CHARGE = 0; SPIN = 1
O -1.6395186762765195 -0.6465409924434776 -0.5024930348701739
C -2.062888314831573 0.03782091883742086 0.6527237803203066
H -1.4282941352858 -0.19948921153008645 1.5135481837710199
H -3.0799676213406193 -0.2910149055319272 0.8636419202162082
H -2.0627154389817 1.121544190657789 0.49916206505951555
H -0.7456100144931591 -0.33085868577208605 -0.7272076478698906
O 0.9887567979286707 0.3768191016788051 -0.9758205969457734
C 1.9828896709444142 -0.027816279945603 -0.05575287467791841
H 1.53987903173944 0.040944137637281226 0.9360632970202992
H 2.85492891772511 0.6294066483396166 -0.10066081823655183
H 2.295059595218923 -1.0601475935348024 -0.2360446953522939
H 1.357480187652817 0.3493326716070738 -1.8671595784347523
