12
## STRUCTURE-ID: 6456676f6be3017757530d68 ; CHARGE = 0; SPIN = 1
O -1.7396384066001502 -0.16749678969364043 0.0763616293275449
C -1.268595859974953 0.407982726445794 1.276910693380412
H -1.723942228718533 -0.06476936389758788 2.152114127643741
H -1.4624324450296473 1.4844198069780186 1.3053712745934292
H -0.19274245671840576 0.24309266620230435 1.305548457747882
H -2.69422047370211 -0.039180267856803015 0.022771045367570537
O 1.9737525410650458 -0.7337891626326378 -0.1360724550760569
C 1.4525148029453188 -0.021990743831069255 -1.2405557321600011
H 0.3595150691874522 -0.04206201740047546 -1.2452638753904715
H 1.8284255332503614 -0.4244630988109874 -2.1863049924986755
H 1.7921060741074692 1.00705673295577 -1.1346825153643532
H 1.6752578501880975 -1.6488004884586664 -0.19619765757098054
