12
## STRUCTURE-ID: 645666d2ba8f364ba9159878 ; CHARGE = 0; SPIN = 1
O -1.7169229315787906 -0.3385793660466583 -0.30421044981212375
C -1.7212339014246543 0.33689599236725837 0.9353914706346307
H -2.7268876857521103 0.6694042675138228 1.2074548920539159
H -1.0789405827967442 1.208287250957199 0.8193683539909631
H -1.3191147629917455 -0.293139275872744 1.7345680133277384
H -2.308622087026029 -1.0983372243231366 -0.2463519088835972
O 2.3337704848422405 -0.6060513438183074 0.10237142258928879
C 1.721063895933325 0.2332792037153178 -0.8549361021341367
H 0.6355340978569246 0.1055292793676703 -0.866743601819281
H 2.118207538184136 0.04686047909775404 -1.8577819796969093
H 1.9586534477367428 1.2563083633966619 -0.5680731370243473
H 2.1044924870167177 -1.5204576263548448 -0.1010569732261535
