19
## STRUCTURE-ID: 64567a2ae2f3e411ca248af1 ; CHARGE = 0; SPIN = 1
H -4.2779904959718165 -0.8862905034612727 -2.4246374020910544
I -5.311428274427985 -0.08520615043073715 -1.5559443982867023
C -1.7030439196540956 1.0078400810248758 0.847205142359961
H -1.7302578854283126 2.012568627846913 1.2675075868032244
H -1.8471775821434941 0.2755062811643827 1.6426872299008433
H -2.4976653978208696 0.904565490974482 0.10916577765562596
O 0.36618026953435756 -1.0445718016225751 1.0508516778729609
C 3.1819827012217954 -1.8839110433090487 0.04231314037428352
H 3.2005332770636943 -2.6996175990021594 -0.6704127806567878
H 2.313087183745027 -1.9399623974817382 0.6951713915907977
H 4.1050241707185995 -1.8184245568924502 0.60455681620071
H -0.3121831305444301 -1.709731574687297 0.8876541594220879
Rh 0.15909164799090417 0.6159948117893785 -0.0654673326644622
I -0.9155270345985767 -0.7666449666618821 -2.038038796449555
I 2.9656900928946284 -0.049398404467935135 -1.07280054015878
O 1.5064768027321214 1.6433127901720526 2.38444839218196
C 0.9772361379842249 1.36999647180521 1.421630898745025
O -0.16049666728475723 2.948583330947039 -1.9376055127166787
C -0.019531896011083825 2.1053911122931797 -1.1882854500835467
