21
## STRUCTURE-ID: 64567663bd505123b23d7d91 ; CHARGE = -1; SPIN = 1
H -3.422555067776962 0.8384813123637146 2.695274556104738
I -0.9214329283249616 2.2932995540353005 5.165251614998934
O -2.9804627994750583 0.37571858568180505 3.4145169694016704
C 0.6143754166491157 2.4362830141974388 -0.06576088684237016
H 1.1265434421376312 2.7155707053856792 0.8530795906630914
H 0.4257825481810057 3.329975625831207 -0.6542863079594612
H -0.3346239057493101 1.9769656466214027 0.20047999424674523
H -2.524623662521669 -0.3705547876824619 3.01207324274598
O 1.9765119845200911 -1.7533420861634077 -0.5311901975058333
C 1.4938632126275948 1.4683789430893002 -0.8146780204867488
H 1.6700453714520762 0.5457437058779524 -0.2636922713996352
H -1.915698883272792 1.3568451575563552 4.337731121888014
H 2.4420782331795525 1.9115993035100614 -1.1069625713069617
H 2.8098152026099417 -2.121533720915685 -0.8303213499046617
Rh 0.24996943534726626 -2.1611439207256806 -1.598575793232736
I 0.5844456635996862 0.8041965872246043 -2.6979551001751605
I -1.1533659412242436 -1.209401004193116 0.38477304350249975
O -2.263213821551319 -2.8990438285714943 -3.028063844049345
C -1.2927194636150772 -2.5873333221969657 -2.4798065436641568
O 2.0902007315277995 -3.795810461524669 -3.2881060315284603
C 1.3250652316796354 -3.1548950094013217 -2.703781215496164
