13
## STRUCTURE-ID: 64568a9661efc438b14d91d4 ; CHARGE = -1; SPIN = 1
I 0.12345728612742045 2.7971990836647374 -2.268991134136629
C -0.5502033275449949 -1.0680588663142723 0.8633479402936711
H -0.9462348946788263 -2.0002862987066976 0.46566367904543204
H -1.290113612524936 -0.23742057845766104 0.5801157068350627
H -0.4908511700627561 -1.0740512043868766 1.9485750303438132
O 1.0193395781691013 -1.3979589776736774 -0.9056850107505132
H 1.9390364471237127 -1.296832162591487 -1.2087914926739622
Rh -0.6377941920545458 0.93184269183038 -0.5827050871394129
I -2.0377263502776244 -0.4136677400972627 -2.330565005186908
O 0.3319977667997613 2.767895377064451 1.5430961387646867
C -0.010065000991870807 2.026343954291792 0.7287821382196152
O 1.7380213315621789 -0.25909318391810193 0.8898045188470313
C 0.8111361383533693 -0.7759120947053415 0.2773525775381096
