13
## STRUCTURE-ID: 6456892e77fc196cbf7ffa80 ; CHARGE = -1; SPIN = 1
I -3.3037832012453805 0.48405465622429755 -0.6219826026044908
O 1.9844686268769 3.1669247263081624 -0.01837654462582551
C 1.198345982596824 0.20991312518724425 0.161648097123769
H 1.9960109910266595 -0.12787918385307653 -0.4896708732827771
H 1.4870859530593548 0.3103357451825303 1.200678596387289
H 1.9869997518067803 4.004860981660338 -0.48590056558625827
Rh -0.7984115834105768 -0.49071925885065704 -0.2561791657216225
I -0.21649864369152094 -0.8602342692711266 -2.8847295268853768
I 0.259084312715076 1.908928335935827 -0.5678554042394622
O -1.3710284195410263 -1.619557348957053 2.5077739969018698
C -1.1307611077362818 -1.1713989358341617 1.4499396872542627
O -1.0717752326042755 -3.4838053070895243 -0.062277495910123416
C -1.0197374298525246 -2.3314232666427963 0.06693180118875085
