12
## STRUCTURE-ID: 6456648cd3c30b21006aac60 ; CHARGE = 0; SPIN = 1
O -0.9343094631604991 0.5067968810489196 -1.482224920999349
C -0.5835485757637141 0.6845435431127957 -0.18164120113948715
H -1.2838393592030968 0.2771677859496192 0.5482988198594225
H -2.8578282568125606 -3.731528323207362 0.48056349888610844
H -0.4341417479007135 1.7502443953251616 0.0016076750106406368
H -1.4612199865795479 -0.2883448342437221 -1.6312894050077889
O 1.4925143664277858 0.4948803899844993 1.3516927835390293
C 0.9915026379082575 0.0396605944997324 0.12537601145037405
H 1.4039212419547078 0.5588718708585748 -0.7659629783971174
H 0.4022356978605972 -0.8979403098897989 0.3357931023644988
H 1.6867243456052596 -0.8517275592692408 -0.15734789329536236
H 1.5779890996635388 1.4573755658306387 1.3751345077293537
