23
## STRUCTURE-ID: 6456b88a8a2cf456e75eddf4 ; CHARGE = -1; SPIN = 1
C -2.1169726879337745 1.1923812059866346 0.6784638402163274
O -3.192919655421031 0.8587664648803761 0.25983848993627184
H -1.7857389735971287 2.239287639539008 0.6764024460100648
I -0.34117191080308923 1.375998566035041 -2.1282230344227067
O -0.13529546722221392 -1.8373464925847478 -1.3432542098159945
C 0.4669119330234296 3.4058259840298466 -2.2576833368080607
H 1.2633966996745996 3.3884543975709187 -2.991105197390042
H 0.8451669762897216 3.669170993174203 -1.2750195199218481
H -0.3412395327809972 4.059406876282906 -2.561315156828908
H -0.2508570526104204 -2.725583287597864 -1.7296515695663757
O -2.349367302719995 -1.5324333259249097 1.2024851414583477
C -0.18308635015414168 -2.3882194621355732 2.383277285089755
H -0.917042825974217 -2.699823454880272 3.116197515442438
H 0.804849815383225 -2.3301450349221646 2.829340415658067
H -0.1677147058027223 -3.089028513303329 1.555827949161614
H -3.016473630181684 -0.9608970543067857 0.8126270713704437
Rh 1.245235442316955 0.07468889550014376 0.10335496140689615
I 1.1280837463057751 2.3406492595397825 1.4731152084886867
I -0.7408517243577717 -0.4207106873246045 1.613312373954483
O 1.6869454771819272 -2.777166652717959 -0.48091500077766114
C 1.02933087110517 -1.750197241550233 -0.6155956308233018
O 4.080344505229026 -0.12384556923173273 -0.8366060107356399
C 2.9884663530493807 0.030766493941468978 -0.484874031102976
