18
## STRUCTURE-ID: 64568a24ba9c283833351d70 ; CHARGE = -1; SPIN = 1
I -1.8407982059082248 1.7618521678169248 1.0661271233552996
C -2.057395802778629 -0.38756318395357237 -1.5606270038703016
H -1.690833441352568 -1.4206784717834606 -1.5115630391487564
H -2.9393331714833426 -0.32563459436662695 -0.9183338930085194
H -2.388882602598199 -0.20415286748299122 -2.589343393872337
O 1.310520825636073 -3.0528758357332504 1.358660007593262
C 1.1013302149875337 -0.5458010609971498 2.414476219170783
H 0.07461219306558137 -0.35807549686404594 2.706691132786952
H 1.706207093860935 0.3468122775142448 2.526085604169625
H 1.5131287944976206 -1.386481945948033 2.953345520079392
H 1.3777360694699077 -3.7828583945650345 0.7419758176130938
Rh -0.43710523057654443 0.9935782386752333 -1.0646516088888827
I 0.8985401972977259 -0.11660237399243793 -3.0949054096418975
I 1.1289728150609553 -1.076810067343925 0.35422679967085346
O 1.9455913021090327 1.9084883411534523 0.5994987558550692
C 1.2213018954252552 1.2106634431581376 -0.01778024674328978
O -0.5327410191576417 3.7357696019630264 -2.225119441769128
C -0.3908519275553933 2.7003702227495445 -1.7387629433512666
