12
## STRUCTURE-ID: 645667884790aa6be0333be8 ; CHARGE = 0; SPIN = 1
O -0.46709316646058263 0.19023627454736666 0.307295987316618
C -1.4037236007343183 0.230186482223594 -0.8011713962677969
H -1.9547440084434173 1.1651454418043472 -0.7306588407531045
H -2.0790666844640984 -0.624274073084651 -0.7793843123095971
H -0.8148315055675263 0.22244630527355222 -1.7173417596936982
H -0.9467820595671858 0.09045980540845086 1.1583023234959315
O 1.3891494754547977 -0.4993153964577991 -0.8875894013581446
C 0.5956076444807693 -0.8668911753429785 0.13614871339209145
H 0.09928227470058537 -1.805009927470211 -0.13377015108792786
H 1.0902477750893824 -0.9275476304944966 1.1100215441338106
H 2.4919448113061073 2.6119378348811186 2.9855038745839324
H 2.0000090442054956 0.21262605871170115 -0.6473565814521193
