12
## STRUCTURE-ID: 64568ec48b655f78b3230d70 ; CHARGE = 0; SPIN = 1
C -1.5844988425376594 0.15711826441957277 -0.5200625160848739
H -1.9016971376019773 -0.7788898470434489 -0.027429673861612384
H -2.0165817958482752 1.014110038946716 -0.005415760817444939
H -1.9053702853985865 0.12121766888354368 -1.561933008494591
O 2.5312543619316243 -1.6659000358910003 2.5885736499404617
Rh 0.5349815971549621 -0.22087244108167653 -0.1634691317271941
I 0.76322409228176 -1.6711381497132347 -2.3000570835466405
I 2.073134755198034 -2.007632651902931 0.8383527426305433
O 0.830615959792423 0.9798302133117145 2.5754555359467695
C 0.6475007877665501 0.5927835882783365 1.5293670362478342
O -0.05224955396252229 2.206007945235527 -1.7917276054463651
C 0.07968606122366784 1.2733654065568776 -1.1616541847868778
