12
## STRUCTURE-ID: 645666f5ba94b638c34ed2bb ; CHARGE = 0; SPIN = 1
O -0.9078124465313101 -0.14768695308159194 -1.0463314215082355
C -0.3350284283282961 0.3211026862826897 0.13436908292856753
H -0.29737009937239123 -0.46145318369324473 0.9157527982242967
H -4.2542089120620235 -0.6491900853299448 2.6801305477971864
H -0.943792999508442 1.1322760696987892 0.5882192463439133
H -1.8152096080947184 -0.43871117209197774 -0.896410070510178
O 1.8166888681473679 1.2747018170508704 0.7174749836243268
C 0.9878444111542414 0.8705929481317926 -0.12157484162156831
H 1.2918141117833457 0.9507021920694813 -1.1702027267912998
H 1.0780995408325371 -1.8983381324114597 -1.8369021114048385
H 1.7815027413505304 -2.172560499779988 -1.6439619091364384
H 1.5974728206291657 1.218564313154577 1.679436422054254
