15
## STRUCTURE-ID: 6456b7c32fbe155e7f7ffa88 ; CHARGE = 0; SPIN = 1
C -2.4121628708080034 0.08448479267842499 0.21984864615168764
O -3.4825308795689494 0.17700962192766442 -0.13996370762522153
I -1.011746843781677 2.6598721512605614 -0.25207510656042525
C 0.15339726422304767 -0.5852336103455149 1.7012569359225242
H 1.201856351876132 -0.7978756427304958 1.9285291995132643
H -0.4736389170059601 -1.2042270479206971 2.3459142231651087
H -0.04728505114591796 0.46702563968952043 1.9047288360648433
H 2.2326114411416222 2.570704835728966 1.0087782293118492
Rh 0.25922695559820036 0.4935976498859362 -1.085421857297575
I 2.633001484798571 1.3756523179816735 0.03443686371076789
I -1.4469761937397556 0.11757378414661093 -3.11777755431876
O -0.45729121833965786 -2.0397950780178036 -0.13343113438209744
C -0.11569787603586879 -0.996635485899508 0.3049021213488869
O 1.7707902151741415 -1.5269209941333584 -2.688723464342149
C 1.1964461376140858 -0.7952329342519664 -2.031002230662714
