17
## STRUCTURE-ID: 64568b01b61ae4637b41e580 ; CHARGE = 0; SPIN = 1
I -1.1951103040796578 -1.5519159077822702 -0.47061704987984726
C -2.7211612592363474 -1.771385684008912 -2.009531649699077
H -3.3816474683410003 -2.5743221056842183 -1.6951433516358523
H -2.248569345275129 -2.032550663327746 -2.9502548596072558
H -3.282029236727187 -0.8452383677402275 -2.080805395499322
O 0.6309913691179228 -1.0297567161918793 0.8833375040723679
C -0.2814619636514438 -0.0008622358400711001 -1.6002004862366765
H -0.8962747188334037 0.171259883433369 -2.4804758867385264
H 0.7343446544959636 -0.3041317208102645 -1.8343283083040944
H 0.7817035548506387 -1.7907814862199976 1.4553790768880162
Rh 1.0601527891921259 0.8829654206678422 1.7204749545853142
I 0.9529265321884286 -0.11005647154438816 4.180127494310112
I -0.1631584848017728 1.8710286825830087 -0.4830871764040248
O 3.3528113191518285 1.544581214777077 0.45647947502924935
C 3.0243526298368497 1.5683822017877465 1.5844689624415647
O 1.9439137343692305 3.499588095149044 2.906031233788409
C 1.6882161977429122 2.4731958607517317 2.418145462889546
