18
## STRUCTURE-ID: 64568af75413b672ea30456a ; CHARGE = -1; SPIN = 1
I 1.5063437983066583 2.945341867847305 1.2377762407905095
C -2.508117666354376 -0.022357851425537464 -0.4551818745944167
H -2.971732455314935 0.9390602127487816 -0.6992416232901554
H -2.769952647874586 -0.2981507696469408 0.5680456255798111
H -2.908700413059369 -0.7853978124892598 -1.1248931343496653
O -0.16862488701064876 -1.7580162901776657 -0.2618930124050444
C 2.8736508741446403 -0.9686086311330618 0.7446944511294276
H 3.7394034063236123 -1.5886584970240467 0.5463799590542341
H 2.00276048978032 -1.5656451959994429 0.9965995403040769
H 3.0807706161156787 -0.22163982511994584 1.503467618068717
H -0.616750605845404 -2.3473166926098377 -0.8759819540014342
Rh -0.4474129033922172 0.17870977247349173 -0.7583538433637305
I -0.7897944145655 -0.28240712169817545 -3.3799705475087234
I 2.3791866490451623 0.058506599232933554 -1.0869290424658915
O -0.7083886501437511 2.4223330258681486 -0.6864642432059759
C -0.3042195085188236 2.0233181864892633 0.4118606070864233
O -0.7912915668503113 0.46321979189919504 2.225843143045318
C -0.5971301147861348 0.8077092307647944 1.094242090126525
