13
## STRUCTURE-ID: 64566c7fe7f19339fc4975b0 ; CHARGE = -1; SPIN = 1
O -0.6516980341212955 -0.8059175786294916 -0.3718398015406685
C -2.4601186062358362 0.1316438917459809 0.3671976976428563
H -2.2617098771696234 -0.31604230935310923 1.324319076849958
H -2.745277870890828 -0.5228779082145173 -0.4367433660873743
H -3.0359792395235496 1.0381193034756317 0.39938783536222805
H -0.7924154136721255 -1.7180468693538131 -0.09237712868660253
Rh 1.2799272470572618 0.05871304187473719 -0.014841466978194077
I 1.2055245101808516 -0.7483801858593255 2.550576326041507
I -0.5737422026751203 2.164068931126789 0.33153701228638593
O 1.48573115597861 -0.6533686348164951 -2.9175843122646983
C 1.5024001742323938 -0.31480468355950775 -1.8128982596274685
O 4.063021841525493 1.028897534185054 0.4330294666775959
C 2.9843363153137465 0.6579954673780704 0.2402369203244725
