13
## STRUCTURE-ID: 64568caffbbf4b15f71d80b0 ; CHARGE = -1; SPIN = 1
I -1.5005795873095824 1.7307814335330092 -1.362048265007019
C -1.1951038544922963 -1.5206793295982355 -0.19622616924992614
H -1.5489220751573396 -1.202571739902246 0.8009301563696269
H -0.8245114243933321 -2.5420943096166586 -0.10717379327321987
H -2.045445280450231 -1.4854261760879843 -0.8775850824678266
O 0.15333044354128725 1.4397273686621512 1.7281245651013422
Rh 0.22763778159742962 0.09427047522664789 -0.23376977032594365
I 2.0855452755276054 -1.3821364348602443 0.9091372789580423
I 1.8423021630392047 3.744866656527692 2.246680198409696
O 1.5637105580699149 1.86093258869717 0.07802915473538627
C 1.0461604610914548 2.0608609493486254 1.1740510064782723
O 0.11736246471402906 -1.7225141438625007 -2.5554765957102523
C 0.07851307422185512 -1.076017338067414 -1.6046726840181706
