12
## STRUCTURE-ID: 64566b5f0995a92b830b3f66 ; CHARGE = 0; SPIN = 1
O -1.7983469774261054 -0.06566010044238788 -0.9555435350696877
C -1.591017125117343 -0.09865450872144993 0.32888682746145587
H -0.3851390395083756 -0.47147165191274615 0.38549929665197336
H -2.093530133163322 -0.8997352194781328 0.8774010979704645
H -1.5583953759827067 0.8714953936268067 0.8341319370582031
H -0.6897168177422809 -0.4288923929693266 -1.6874578484985403
O 0.8805826654067779 -0.7488234630736198 0.04890343393794197
C 1.6043514747099086 0.4105782566334695 0.3237577362798548
H 1.553452462238813 1.1427255437119281 -0.48736093972282973
H 2.644156545871437 0.09150409765365691 0.4356193825052629
H 1.2707539143817146 0.8853538173354779 1.2527024236397521
H 0.16284840633147757 -0.688419772363658 -1.3565398122138517
