21
## STRUCTURE-ID: 64567740f3e19539624b6a71 ; CHARGE = -1; SPIN = 1
H -3.6104019312311806 -0.9489536653026405 -2.8624552512960855
I -2.4148304975542256 -0.06977467943361253 -2.2814236518547077
O 0.07193124895274498 1.3511867987044193 -1.104955021401058
C -0.4130937021325011 0.5310912806846192 4.4943670434916365
H -1.1912331387043367 0.7322819919356571 5.226239154145524
H -0.04473884944159631 1.481390270310776 4.113034735041692
H -0.8546463053365199 -0.018246229673339838 3.6655433128396115
H -0.12432597017360716 1.7488846135166893 -0.2519707426538628
O 2.066286851638936 -0.42111337442435764 -0.9261623988087522
C 0.7188427386717314 -0.26895485266780617 5.122684731716581
H 0.3468418454082669 -1.212499841974696 5.514109945146788
H 1.1744309485209061 0.28810103305489354 5.937973010836445
H 1.4884438656297272 -0.4869724811774214 4.384229548078616
H 0.8345444662119161 0.7414964384864505 -0.950886530480245
Rh 0.0782506193187317 -0.7800343831858759 -4.031327311450799
I -0.7734833706972859 -3.2307080807796313 -4.373941075693893
I 1.254656457263808 -1.7901695742081114 -1.9380418176378613
O 1.8121059887406161 1.6181367511523104 -3.6200318516866896
C 1.0853891863425467 0.7450881099553389 -3.7873143353395644
O -0.9315581640179106 0.18824992135112908 -6.674370872452491
C -0.5734122874107731 -0.19848004632481336 -5.655300620540886
