19
## STRUCTURE-ID: 64568ee6c0e2a86e24630f0a ; CHARGE = 0; SPIN = 1
H -2.6106821566173495 -2.6528277262473754 -0.22116755202798874
I -1.4761060347547226 -2.4242335555097148 0.8603403012643451
C -2.392071395221796 1.5847979586447756 1.2146834356650384
H -2.7186201881519367 1.9994383386890133 2.1678221224029164
H -3.0858007471045172 0.8145585369533539 0.880003024869853
H -2.380361839536939 2.3748105809439095 0.46187871634838906
O 1.6826751719434243 0.9714060020202698 -1.6886815272592413
C 2.5341756636353665 -2.338604288336513 -0.5208696698086445
H 2.1511897279705314 -1.8875800797167117 -1.4325754446719736
H 1.9988004822589776 -3.2488864485348965 -0.272380970678018
H 3.59919253723235 -2.520141747636687 -0.5972086174443823
H 2.223282642808006 1.664679786708887 -2.1155434086987324
Rh -0.187011192197283 -0.04221603056632795 -0.039115757954715315
I 2.226269934514351 -0.9183831605863667 1.0973915372964729
I -1.768653051284242 0.27882184851784 -2.1005924144747254
O -0.2511287556983809 1.219021724669894 2.28122959743167
C -1.006685892417943 1.0654160741421637 1.3687423450569742
O 0.6650988385820238 2.6116208185398104 -0.5255167885406038
C 0.7964362540400699 1.448301367304684 -0.8184389287766476
