13
## STRUCTURE-ID: 64568ab2ff25ec51dc4b6a60 ; CHARGE = -1; SPIN = 1
I 1.6201581367185571 2.3745559381435988 -1.455528671127552
C -0.7617587181511967 -1.4589600459028194 0.22305250498327062
H -1.4567869744598003 -1.9405952732512302 -0.4635939593002566
H -1.350851635260419 -1.0640732753186468 1.0619516634448003
H -0.05179587682972973 -2.1777000227661203 0.6287192765382298
O 1.5982724927057022 0.015043460168301907 1.0783451345076323
H 2.390401711834985 0.5351878932448662 0.9126548380394733
Rh 0.042647709217842014 0.5856634217037379 -0.17614956573241225
I -2.1736972677783575 1.1696804737785225 -1.5867431152188998
O -0.5857696904138784 2.73574998097251 1.8461971883140111
C -0.4085944066626313 1.88697611709895 1.0995690997325234
O 0.7400950760109538 -1.7522700773742235 -1.9419824141953659
C 0.3976794430679651 -0.9092585904974603 -1.2264919799854503
