19
## STRUCTURE-ID: 64567af9a48e0a689532badd ; CHARGE = 0; SPIN = 1
H -2.2015799575442268 0.21609641923218842 -0.9382897704654475
I -2.6249146572189974 -0.5497212663984093 0.3768498073914935
C -4.133331933536375 0.9534856268915626 0.8470402571498371
H -4.66340714448056 0.6366508949167872 1.7376869372358723
H -3.6189925988128686 1.890033557828445 1.0302703740914276
H -4.816246347748877 1.0339605942768213 0.008916277634441964
O -0.8904863508489058 -1.899810367725109 -0.5716886315251128
C 2.695493807388551 1.7103382092710588 1.146610809783453
H 3.1947260812573575 1.32359260163798 0.26601408609822447
H 3.182851861301595 1.3649418348528288 2.0497420132695936
H 2.644207907961503 2.7912661179374005 1.1183412764916738
H -1.0170540648872315 -2.807486142555523 -0.28559348984394595
Rh 1.033703259416738 -1.1971819572253255 -1.1599343085185339
I 0.6898052831801015 0.9560148239411002 1.1452961568139493
I -0.14193175545717954 0.3792652177954269 -2.900139099144489
O 3.6603598288831902 -0.3311778751013415 -2.265648032100909
C 2.6470639015605237 -0.6613807396907774 -1.827069082987162
O 2.476779195109846 -3.3070701888082197 0.39406878769535525
C 1.882953684475766 -2.5018173610768493 -0.17247436906974967
