18
## STRUCTURE-ID: 64568a6f39a455183e4ed2b0 ; CHARGE = -1; SPIN = 1
I -2.3619012822890553 0.1854489806395236 2.2178549852189655
C -2.460507520461792 0.7358578428164818 -1.2904405045429634
H -3.079058726109546 1.4686247411878184 -0.7737360959507268
H -2.904899179627613 -0.24505745669265552 -1.0873514227132905
H -2.5142447918719846 0.921028432225893 -2.366836268912779
O 0.6135464289279345 -0.3158671296255226 1.9195481541311414
C 3.174107791945702 -1.541910939743075 0.07679085474467534
H 2.602541762227594 -2.409731215217783 -0.2364684289079357
H 3.0900050366341496 -1.3792499670558431 1.1454990974595307
H 4.207990392069521 -1.6100271307433982 -0.23927108356180896
H 0.18152893629583325 -1.1921841236082122 1.9069012508425351
Rh -0.4340444984440507 0.17151466248503766 -0.5804750513464819
I -0.5916045892431918 -2.4761278571137297 -0.6462928335758736
I 2.311302110274692 0.2071996644303107 -0.9013601408177873
O 0.12743248165688334 1.844682460944511 1.6045581563547828
C -0.1610447637153608 0.676382725520764 1.4084917871802844
O -0.9605348159774142 3.044319524993746 -1.1965500503925766
C -0.8406147722919747 1.9150967845564943 -0.9608624052107716
