12
## STRUCTURE-ID: 6456882289ce7053e56dc15d ; CHARGE = -1; SPIN = 1
Rh -0.38610975570529343 0.41338535001622484 0.4784230291818162
I -1.8255509070920537 1.851578560613303 -1.156943587298923
I -0.3257952867268846 2.268405609783133 2.3780732291002393
O -2.4294884727337274 -1.459513287757901 1.0007693713587191
C -1.3518017664244653 -1.4508417607799384 0.48001150572187534
O -0.1414745836465001 -1.7869757928080816 -1.610582954348379
C -0.5493395654781034 -1.2083029217053187 -0.6440978978982999
I 0.5887234169087265 -1.6140690126164718 2.0507372948982674
C 1.3800091322279662 0.6945655839067064 -0.6170154374384729
H 1.7165078696889127 1.697896098550527 -0.334904689948666
H 1.2009233769265686 0.6456609090696923 -1.6910338313325213
H 2.1233965420548593 -0.05178933627187351 -0.33343603199566013
