12
## STRUCTURE-ID: 645668132a132e23983dae59 ; CHARGE = 0; SPIN = 1
O -1.2847860670828644 -0.22784273037421837 -0.5114118720335521
C -0.3025923713394839 0.988265022855205 -1.1045670723179442
H -0.9653924321674983 1.8358724731629505 -1.1985410951833169
H -0.005370284487808632 0.5465024382249565 -2.047313425333941
H -1.7254005346629802 0.15162996595577227 0.2591105421287081
H -2.347283698743206 -1.4716655865372652 -0.5101501022163655
O 1.6649290786857496 0.2053344886225096 0.03738736570191027
C 0.6187359750899563 0.9894968864335589 -0.05454699265944109
H 1.370471905526473 -1.9188159515616117 2.597720116931997
H 0.727592042108947 -2.3294885912900725 2.448147504292134
H 0.4471674510475184 1.5625944313945581 0.8475994053893159
H 1.8019289360252126 -0.33188284688637926 -0.7634343746994934
