12
## STRUCTURE-ID: 6456883d12fdb37f414085f4 ; CHARGE = -1; SPIN = 1
Rh -0.14719759720977388 0.4383269090101659 0.08776500363253481
I 0.38455391554008916 1.3073607055043743 -2.428581456353674
I -0.961872329082746 -0.5599643819658014 2.4747954508339878
O -1.358430561899164 3.1051959612961877 1.0107428346998846
C -0.9964135609713214 2.119957441919327 0.5690639983319467
O -2.2426747365990716 -1.2546800830666263 -1.1774815328198367
C -1.4656318407270326 -0.5787042595725123 -0.6867762938726606
I 1.9859682912883185 1.719446549453684 1.15016455268574
C 1.0174059282494368 -1.326352731299664 -0.2179357527101669
H 0.4467726754357557 -2.247052969962212 -0.39155002213043705
H 1.631475001836979 -1.5088900828283276 0.6725799644684921
H 1.7060448141385325 -1.2146430584886023 -1.0627867467658012
