15
## STRUCTURE-ID: 6456b7f1ed88483ab575cc1d ; CHARGE = -1; SPIN = 1
C -1.9563477418530721 0.2619246184284811 0.21334975731318734
O -2.9516991417835388 -0.2561036713986092 -0.011520310867385872
I 1.7289000595367912 2.232456771686059 1.6978727316198141
O 1.5237289133029097 -2.496154378078874 0.3093465836222536
C 0.2007301279638906 1.1933840936644526 -1.2713898424753933
H -0.5260405501577757 0.7454132144135925 -1.9510013201874277
H 0.2945957593707433 2.2670290632076067 -1.479513568947797
H 1.656424145894752 -3.2083904601819633 -0.3520881730554379
Rh -0.40521048650251723 1.1050324567678815 0.7197516876807877
I -2.0039992248170106 3.2740981151151085 1.0402427002260037
I 2.074559671173152 0.3359003185637998 -1.8268606412247168
O 0.11507903399048633 -0.9595900643170442 2.345227385452996
C 0.21938371168847798 -0.7012491921324314 1.1631377938851888
O -0.40292040379733945 -1.9899485996711415 -0.7277923368188287
C 0.43281612599004926 -1.8038022860668945 0.13123755377676175
