20
## STRUCTURE-ID: 6456b7588d4ae6634c12b09b ; CHARGE = -1; SPIN = 1
C -1.3390529474915738 -1.2259523373861814 -0.11834585917556574
O -1.768501359372491 -0.5249929008128211 -0.9531245224935069
I 1.3422405683434782 -2.937169152641613 2.114754953699908
C -0.2420988269726567 -2.0491848509496324 3.235531484412349
H -0.8250468315710953 -2.8432062881855624 3.681784087534583
H -0.84174123947992 -1.4663048431486194 2.544213303986106
H 0.19836500852233063 -1.4108885282413106 3.9906523036300108
O 2.2975945283386654 -0.3918483956151906 -0.3225409182265132
C -0.62648825572966 1.9710874440630057 -3.5854453069863723
H -0.03480329602641724 2.6186131654773894 -4.219740714642921
H -1.6507100233839735 1.8989734392237783 -3.930056786057899
H -0.17489846726311808 0.9898545474190522 -3.490370485051396
H 2.91109122009146 -0.7442382365536183 -1.0006033496006033
Rh -0.36700573735205116 0.5228754998047958 0.3213833100102995
I -2.421058548577211 1.453089865031868 1.863754486721526
I -0.6601689730138819 2.844569060583047 -1.6074502678956542
O 0.8596447770538698 -0.38514333425682107 -2.016481732424242
C 1.0719958562310934 -0.17237268955478083 -0.8265347704161142
O 1.4635345473154635 1.0270144695606154 2.623627403205899
C 0.80710800033769 0.825224066182589 1.6949933797700663
