12
## STRUCTURE-ID: 645668142a132e23983dae64 ; CHARGE = 0; SPIN = 1
O -3.1406803262358274 -1.945395202456763 -0.5986087180149202
C 0.77502876844384 1.9593595181112986 -1.1460370190894869
H 0.6385916447362364 3.0223444198907523 -1.1057105108651968
H 0.5933365191413223 1.4768325805183484 -2.091587272864145
H -2.8002048905369166 -1.5761611334915655 0.2205452840069601
H -3.86273208573417 -2.5327391826464583 -0.3609683803030025
O 1.3509649246653228 -0.05415824990068044 -0.004774624221637064
C 1.1479670862267728 1.2826805384600164 -0.07395487354252897
H 1.4311958377678062 -1.326245893115656 2.2110320203097005
H 1.3559095199851343 -1.6009223436213635 2.935755396890054
H 1.3324402925113148 1.752940623909142 0.8818100699851301
H 1.1781827090291752 -0.4585356756570883 -0.8675013722909476
