12
## STRUCTURE-ID: 6456696edfffb857930b39d0 ; CHARGE = 0; SPIN = 1
O -1.6724945927039283 -0.7795997960667385 -0.08357832167002834
C -0.5075899050381528 0.15665699858056792 1.236310457819216
H 0.11563856474625224 -0.5352582224024024 1.7739105096886194
H -1.4864187188398164 0.31476410254490167 1.6686394812688004
H -0.0332121982863618 1.0838950487872143 0.9637508931101549
H -1.839304086401106 -1.6365698635308203 0.325227981279937
O 0.6520209189419319 -0.5409086123934683 -0.37762104540873426
C 1.2398866327804408 0.4748252107757214 -1.0857112624389411
H 1.8760299750887952 0.05030817558938587 -1.8765654690218228
H 1.8886244345737107 1.0925426851421614 -0.4426693204153292
H 0.5023609916057973 1.1361334626709856 -1.5700725297974416
H -0.7355420164676346 -0.8167891896975992 -0.5316213744144013
