15
## STRUCTURE-ID: 6456b8048deea51c931dbe9a ; CHARGE = -1; SPIN = 1
C -1.8384800649711281 0.5118407113739555 -1.1909267528891636
O -2.874104414222565 0.4830046171114158 -1.6558636403949534
I 1.05961497674855 -0.24081329794910616 -2.6096447148303215
C 0.22065748871808813 -2.3122146556848255 0.024448353448827304
H 1.2745190906396857 -2.322327414836183 -0.260863135953158
H -0.36069336534768304 -2.494549269467047 -0.8792444202452627
H 0.04033416907528685 -3.094767908454077 0.7621061463379224
O 2.3513045486592636 1.853841941228776 2.028593786105922
Rh -0.11741441395180885 0.7642605292137867 -0.48167971632202683
I -0.2340517420028166 3.4733120896268597 -1.5029675110765506
I 2.365734341693369 1.0523389403668513 0.35196725812051927
O -0.7684579166923158 2.419368054745926 1.9379723846658294
C -0.5988461832408372 1.7673213331526492 1.0228087622155402
O -0.3992434767626883 -0.8586491431612471 1.8060466515683402
C -0.12087303834241486 -1.0019665272677725 0.6472465492485447
