12
## STRUCTURE-ID: 645667416606363b5b071031 ; CHARGE = 0; SPIN = 1
O -0.4678406911066884 0.28190023978662215 -3.1048664409845808
C -1.4388420838256444 -0.282223175437738 1.9706477797537771
H -1.760803356949073 -1.2852008189338282 2.2185376267632715
H -2.287171670123859 0.29299177057448655 1.6234043307267056
H -1.0200893611932558 0.18967722160135875 2.849966389805608
H -1.2949483552201426 -0.18193140579389555 -2.9526234080607763
O 1.1025725209182489 -0.023066245449709293 -0.6199110573209659
C 2.2378588171684264 0.2798732528708589 -0.37615470697564984
H -0.690039175726828 -0.32512290159075996 1.1905733697049103
H 2.880140860941955 0.7824821883085139 -1.1119299620416774
H 2.6998026728055096 0.07132559316473984 0.5982296485136274
H 0.03935982231135845 0.19929428089935025 -2.285873569884246
