18
## STRUCTURE-ID: 6456b766e789be1fe6230d73 ; CHARGE = 0; SPIN = 1
C -2.8551709997470844 0.2513776753475967 -0.9540657517181582
O -3.0951812830050103 -0.5317155089296386 -1.7387574504967398
H -2.080062738522762 -0.9067606804837721 2.116404004296039
I -1.0027781749547293 -0.3346243586082501 0.9881281269119436
O 1.2958540144145136 -1.4858892039002352 -0.6540380555016533
C 0.4453390919081096 -1.1162671636857087 2.38146210550226
H 0.20155109243298802 -2.1592747839038937 2.551621241299372
H 0.3836782150193316 -0.5177767373119747 3.285035394582594
H 1.42159908556265 -1.0114204098737336 1.925595553983709
H 1.8652165362978266 -2.2438265938384467 -0.8933621205467738
H -0.8170125410953725 3.8061188148900227 1.0190967451386868
Rh 0.42942138003759367 1.151405005241144 -0.9348115102486575
I -1.189237762607338 3.3688401562978836 -0.46659573121832953
I 2.1632658163983938 1.8356645663320528 0.8893108907380081
O 2.4454177326150814 -0.39770224271633453 -2.2279983604993934
C 1.5724389008849875 -0.3756877911040432 -1.3739408756147173
O -0.7544983904387743 0.11684805677891766 -3.468013576336855
C -0.4298399752004139 0.5506911994684063 -2.4450706302713425
