12
## STRUCTURE-ID: 64566903fc6166775b1aaa18 ; CHARGE = 0; SPIN = 1
O -0.7913279713233919 -0.37138657747003184 -0.6507963103159502
C -0.9554723991493655 0.18844890277208556 0.6759332338383558
H -1.7331997093567117 -0.37404287943366105 1.1810984530842903
H -1.1890159124497932 1.2487922433564322 0.638864239645538
H 0.04394698782359837 0.04647509834272331 1.195518625193345
H -1.552078079332686 -0.11450342035499467 -1.219863583755466
O 1.6957789638848448 -0.17293191119768084 1.542086270379298
C 0.44147550847123573 0.05211454178034077 -1.2754573214008038
H 0.4130303496101096 1.1044703335722443 -1.551530918241303
H 0.6111833749646985 -0.5818904801683185 -2.1413784109115963
H 1.2312110279013468 -0.09847708123595367 -0.5292532506436389
H 1.7844678589561163 -0.9270687699632012 2.1347789731279305
