19
## STRUCTURE-ID: 64567b5c6af0ce467d293423 ; CHARGE = 0; SPIN = 1
H -2.755451222914884 0.28243621978951705 0.7348826148630897
I -1.7352215619271192 1.5324306954887776 0.7508929945803499
C -1.9902661068460925 -1.7499455189085684 -1.615310299588237
H -2.0591862958323865 -2.4143792251622744 -2.4685842976729857
H -2.5339379782018288 -0.8219568982552604 -1.7615166793773172
H -2.2492320233166425 -2.272403891353804 -0.6932161112116326
O 2.1954624493691424 2.60583557348184 0.6244610002071255
C 0.036347710306000605 -1.2847597208747896 -2.166047435045421
H -0.31986929075067 -0.7963226998564878 -3.0704208229886043
H -0.8696984234737949 -1.4622679347247316 -1.317076182587508
H 0.47943140428593467 -2.269300191819396 -2.312163419814437
H 2.5737132540364724 3.504204654297558 0.6379524301670242
Rh 0.56766675391498 0.5846108245345327 1.7183327304159555
I 1.4260104454825795 0.030919851092928066 -1.1475339526032566
I -0.38903612610539 -1.8772385630346606 1.9113092507637421
O 3.060311849429075 0.3429483834031299 3.336975890330263
C 2.0826575813027555 0.3443531917485727 2.702160231470839
O 1.149677176010484 3.3243661653865315 2.4626537823936157
C 1.3306204052314086 2.396469084766601 1.672248275697367
