12
## STRUCTURE-ID: 64566af8f5267108865eb023 ; CHARGE = 0; SPIN = 1
O -1.983986532803136 0.515856928907072 -1.3788553451781074
C -1.7631759750126392 -0.20527669305709248 -0.28462653099735263
H -0.4277590768586132 -0.07934341082985213 0.05705427049024943
H -1.8064539447562393 -1.2892498385704996 -0.36230902418037
H -2.249117382408846 0.2249085669956154 0.5851888069294008
H -1.7114308920577181 0.07282717997595149 -2.199409555127618
O 3.140732597351047 -0.2445945189495735 0.1788268058617852
C 0.6397356781348574 0.19364331523320902 0.48005936949671885
H 0.6208373292690185 -0.053447555482598615 1.534974249874297
H 1.4209203564596744 -0.3589803565504003 -0.04556979722524473
H 0.7669096201729697 1.2613551878990024 0.3456244110633958
H 3.3527882225096297 -0.037698805570833174 1.0890423389928403
