12
## STRUCTURE-ID: 645667fd484eb5799e67100b ; CHARGE = 0; SPIN = 1
O -1.1529979797608698 1.1447363024997486 -1.0198065519652666
C -0.5746703127320335 -0.048417082192658625 -1.014593216694433
H -4.3239514830780506 -1.130555335250914 2.2375464769767137
H -1.1712513665336375 -0.9037545626348317 -0.6926693454591978
H -0.009703987499251648 -0.21426101238202575 -1.9339264428124459
H -1.880663043014222 1.2425683391218474 -0.3846290970749119
O 2.3152709731934604 -0.6599608611205164 0.2579771469244684
C 1.2975948863316908 0.05520928287018511 0.7003296065519051
H 0.33755364285869977 -0.04257915770622144 -0.13834346619177254
H 1.4162597536463577 1.1397810837551612 0.7596466227083593
H 0.837774392047767 -0.39745571387065587 1.5806251919969394
H 2.908784524540095 -0.18531128308911532 -0.35215692496035883
