12
## STRUCTURE-ID: 645669a0261aba756a7b9253 ; CHARGE = 0; SPIN = 1
O -0.9277581207171893 -0.9050669761496849 0.2163290785399286
C -1.6347083314780224 -0.08346927069376556 1.1297260475997828
H -2.3920088068434464 -0.6575892642038678 1.6665168174702376
H -2.108613278890046 0.7587431614746162 0.6195691126807831
H -0.9056904917289157 0.29455810150757106 1.8435314236551517
H -1.5531399562675319 -1.286576706301083 -0.41393330280575724
O 2.968020470298593 0.26050009503495175 -0.9494818694463654
C 1.601889692270753 0.49542350219009634 -0.9596377348415802
H 1.335239465724035 1.4415468982783008 -0.45701088539525553
H 0.6703502857661577 -0.30695271088438314 -0.3804490318168633
H 1.1860563282039256 0.48442000899771104 -1.9823639972790141
H 1.760362743661689 -0.49553683925046166 -0.3327956583610362
