12
## STRUCTURE-ID: 64566b594fc2224e082726c1 ; CHARGE = 0; SPIN = 1
O 0.06518739919695646 -1.6865550270189034 -2.6066997926068187
C -1.764635604284834 0.9702381780361398 1.2766299592343255
H -1.5004779907792305 1.0631564971685787 2.321962081398821
H -2.4789540790553497 0.16621651996580722 1.1567425489589431
H -2.2040052357492605 1.8969600834776579 0.9315961016271498
H -0.7326230795839264 -1.216534526968744 -2.861727540638746
O 1.2475537036547577 -0.10441224220483365 -0.38178134297092425
C 2.266957775614901 -0.1921080916061438 0.24516904731449274
H 2.995001961772524 -0.9955382107760239 0.06893577123181442
H -0.8774734133387602 0.7530154265247623 0.6963119371460019
H 2.5301620748671794 0.5266750540867849 1.0330583977324286
H 0.45330648768505505 -1.181113660685084 -1.8801971684274914
