18
## STRUCTURE-ID: 645689ea4af3ee601f4dd530 ; CHARGE = -1; SPIN = 1
I -2.354315053314821 3.3737336567542973 -1.0711011574466898
C -2.0844324724763106 -0.011296067087507668 -0.7325218176390227
H -1.798376314445051 -1.0559495469641527 -0.5723806880885741
H -2.661083072630062 0.31173040791258944 0.14039474409392386
H -2.780110449176785 -0.00565861071552459 -1.5959663706721867
O 2.333614847351942 -2.8765963308234617 0.9263560767990503
C 1.1602994102975877 -0.9555107326178536 2.401482842587628
H 0.6459837455991988 -1.8025073119297488 2.835013436739322
H 0.6698271248296063 -0.019643952276863493 2.633408838383175
H 2.199998703403924 -0.95542961342073 2.6979609669068907
H 2.5796753862652437 -3.4368230955019947 0.18767819890160722
Rh -0.6958058642856262 1.3571327824575719 -1.5946251888358796
I 0.34906304737125965 -0.6360196331144584 -3.022659974113134
I 1.1208193466624368 -1.2003502813573697 0.29394155905350644
O -0.30300146876860484 1.28489054709788 1.153975731357866
C -0.16806777170995976 0.634381003904076 0.15933851329085486
O 1.2886786526807705 3.396057482902748 -2.542196132467112
C 0.4972322023452697 2.597859294780525 -2.2980995788512355
