12
## STRUCTURE-ID: 6456668a7dd094256f1d80bb ; CHARGE = 0; SPIN = 1
O -0.05334084757852321 0.45310471968581134 -2.714036995336493
C -1.152874255866325 -0.28624767842655974 0.7875307963831917
H -1.0843961450687414 -0.9184201801540434 1.6793054324580317
H -1.9144845344923176 -0.6791684355541591 0.11810794781356272
H -1.419905947780245 0.7319423586614933 1.0912244234832913
H 0.12199856796938681 -0.38415492958741354 -3.150311171318738
O 0.06304901234997219 -0.29665080875288524 0.07092001663782252
C 1.1503725399169042 0.18635017808160217 0.8301872876320078
H 1.3064933738735112 -0.43001085469695693 1.7220190981200159
H 0.9826784678538184 1.2241651336500012 1.1384548651343787
H 2.0278806370701936 0.13269043446253084 0.19015625833145441
H -0.0274708682476255 0.26640006263057786 -1.7635579593385307
