12
## STRUCTURE-ID: 6456685cd46d0c2f772a1581 ; CHARGE = 0; SPIN = 1
O -1.0298370910774477 -1.4084295159178917 -1.8030358111769762
C -0.13333134652940895 1.2706955212379252 2.3030270843036202
H -0.4618106869945407 0.3383627964650166 2.7435792895049764
H -0.9807943901850624 1.9330824076138406 2.183471279751502
H 0.5962808559344158 1.7363158594000359 2.952447431432236
H -1.613673893947433 -0.6458632414953067 -1.87187258966237
O 1.0466875982942039 0.2922508697309352 -0.933162109820548
C 1.1113662905931867 -0.6214891939600525 -1.7168016871932017
H 1.0052834735050502 -0.47594428926129795 -2.799874099797186
H -1.2552639250700235 -1.8615448102705212 -0.9837297118969599
H 1.3984033500622894 -1.6366319502189768 -1.411167138503179
H 0.31668976541477617 1.0791955466762826 1.337118063058085
