12
## STRUCTURE-ID: 64566b1e9856d02c9e28a816 ; CHARGE = 0; SPIN = 1
O -1.4952624595138977 0.1965632731395277 -0.36691694166039046
C -1.611256469236818 -0.3616148087173588 0.9086582485987191
H -1.0236098846851884 0.19321902908587657 1.650456653996951
H -1.3068541461940482 -1.4147297605647091 0.9213674304660213
H -2.665267801183584 -0.29851099618440463 1.1866172501719172
H -0.5294907746924445 0.15639262494994272 -0.6631328445134022
O 0.9612330253486372 0.07821396790426173 -0.912735900067784
C 1.7128035150431997 0.18092450390055995 0.20221668433153908
H 1.6062250008285095 1.1593599793238103 0.7017686618492994
H 2.77614605900861 0.08929548750827077 -0.08572523432532651
H 1.5224449860096783 -0.6361803422193648 0.9204975210032545
H 0.05288894926735658 0.6570670418735916 -4.4630715298508
