12
## STRUCTURE-ID: 645666d2ad67602bf8293428 ; CHARGE = 0; SPIN = 1
O -2.397672327005429 -0.012395293129852344 -0.19937106896892648
C -1.6558564347347775 0.45807126241619284 0.9078464898939759
H -2.1255445162764137 0.16707922775983527 1.8530935912890225
H -1.6497281354777682 1.544616521396162 0.8382141646490966
H -0.62638505709646 0.09054948128149766 0.8882877743652247
H -2.3891582908653537 -0.9768030465652178 -0.18539432236977582
O 1.5631302623380312 -0.7752111743512526 0.20967826263509887
C 1.800948294627861 0.1024696877425311 -0.8702322907232835
H 1.4147645245379237 1.0761991377822977 -0.5736678831951808
H 1.2766975604020498 -0.22494484747671445 -1.7731581729253172
H 2.869503575542163 0.19468856945682875 -1.08401660317436
H 1.9193005440082207 -1.6443195263122887 -0.011279941475617429
