12
## STRUCTURE-ID: 645667962cd6e26ddf6f2ca0 ; CHARGE = 0; SPIN = 1
O -1.6745099220756257 0.06023336226073955 -0.7853274000606787
C -0.8603085679300699 -0.165578677988332 1.0196974190590005
H -0.7281381078783589 0.7792930965701889 1.5156334042761006
H -0.05794632010933072 -0.8703583202524686 1.1560152499941958
H -1.829526943046956 -0.6226627912836006 1.1671212334849894
H -2.235489731919559 0.838268774438341 -0.6879918583166874
O 0.5427682629113928 0.6885844893723281 -0.29928794442351997
C 1.6398529435539517 -0.10942654767518638 -0.4935818272357346
H 2.3582268990461306 0.4072406540027838 -1.1473850541654698
H 1.3861860788523295 -1.0704631391724138 -0.971271348149754
H 2.1582464540273594 -0.32168080640339436 0.4562743193752139
H -0.6993610454312698 0.3865499061310109 -0.9298961938376524
