21
## STRUCTURE-ID: 6456b87c092e0762310b3f60 ; CHARGE = 0; SPIN = 1
C -3.6673359670594614 0.008409628356095255 -1.036935596498169
O -4.018898382909229 0.5805357330727253 -0.1267383795148159
H -2.3062074996273934 -2.3767183331601696 -2.061579341322423
I -1.8460752670958638 -2.274417496699244 -0.5524285877802089
C -0.6148314835226668 0.6161227968305155 -2.1530900171552894
H -1.7060280314921887 0.7237406070986334 -2.1131977969919
H -0.33576996148480837 -0.1041597284633816 -2.927282411203116
H -0.17434736005766843 1.5833908920782147 -2.4004545866104943
O 1.451168281578668 2.0894443406983 1.9710829844700668
C 1.9211214280476239 -2.838029186160423 1.4713674179190162
H 2.690029784703263 -2.4121948803530935 0.8342759215504516
H 1.2752945572520742 -3.5142147272161974 0.9209000229736848
H 2.35160243236893 -3.3229236557474198 2.3394391112376542
H 2.196699344590751 2.6733981098689954 2.2218350581767563
Rh -0.04296465963254291 -0.07192447145327008 -0.2959570422985474
I 0.7007113565482695 -1.1930487515432564 2.1978678826410243
I 2.434613064161333 0.3131025827397943 -1.0125343605040789
O -1.5609932176041466 1.7820190863861702 0.7747109533051076
C -0.3857045654846596 1.5991921941624778 0.5855660436468084
O 0.9027746698740169 3.5928134661903304 0.3941072904213257
C 0.7351414768457859 2.5454617933127057 0.9690454335353429
