18
## STRUCTURE-ID: 6456700d2a6ddd12fd462270 ; CHARGE = -1; SPIN = 1
I -4.86021341680425 3.4531764324887444 -0.5725817490204735
C -2.075093740824661 1.690994575667273 -0.005528799987681846
H -1.9180826181457378 2.761802574280675 -0.03844449605574021
H -2.497705748760716 1.3388287662734388 -0.9531314521640911
H -2.7309940166769366 1.3916429177608631 0.8028691430686854
O 2.206471369512893 0.24661512815397163 -0.14731851615618746
C -0.4402265435938118 1.059254743159932 0.7837890473137238
H -1.0443739684451963 1.0743669906209348 -0.2560981538870363
H 0.5624433282324675 1.114770815446332 0.3043040880217559
H -0.5206263898801865 1.7700307029402533 1.597696816974833
H 2.980704962806429 0.4372022184462951 0.38474064262691693
Rh 1.6974757546131864 -1.703490803221558 -0.5484483264638915
I 0.08065471582394723 -0.8131420655381087 -2.419510568227842
I -0.6144047781856897 -0.9327227599023228 1.5666357761104523
O 3.8757995832889103 -2.670030352542113 1.253996892441061
C 3.0164529138931684 -2.2916244932566197 0.584320799216415
O 1.0248521237690407 -4.505966363725116 -1.3299618085925609
C 1.2568664693771323 -3.4217090270528496 -1.0073293352183392
