17
## STRUCTURE-ID: 64568cfb2fd12a08c32b66ad ; CHARGE = 0; SPIN = 1
C -1.3330451841480853 -1.124468238785612 -0.41849771578853917
H -2.0359124973139315 -0.29798947110994173 -0.3345926892178494
H -1.3110795285879349 -1.4510919270810672 -1.4582577659093547
H -1.7485025594246957 -1.9891378258028436 0.1601529270277491
O 1.5549369141485623 2.0981675141952945 -2.1535320249184284
C -0.5756290674274609 2.003527703948157 -0.4960128023870647
H -1.3812918270781929 2.075173667093202 -1.217035597622869
H 0.024504773479125344 2.9050413256168826 -0.504132334820761
H -0.9367137743308038 1.7667824010085298 0.49587859008150453
H 2.146933414153239 1.8103411500765927 -2.852507984777458
Rh 0.348072148330109 -1.3475926270719494 0.8918234899388308
I 1.3968474415954857 -3.0544625009630875 -0.8005604639654896
I 0.7419895882092574 0.4637556919657266 -1.131815377046839
O -0.8649969795525249 0.4245160297500287 2.964505379725083
C -0.4189232245190352 -0.2378683247086621 2.144948755648971
O 2.646714316110962 -2.191736783323466 2.660471102252678
C 1.7460960463559354 -1.8529577848078345 2.0491645117798427
