12
## STRUCTURE-ID: 64566631d1d4bb36742b66bb ; CHARGE = 0; SPIN = 1
O -1.874759438313311 -0.6261251624816596 -0.4411059117876849
C -2.888784657551405 0.007756367541266805 0.30770041173298124
H -2.756152235720351 -0.15708942714657018 1.3815712817334884
H -3.8835659469967165 -0.33709778879692537 0.01010175750654687
H -2.808503752151238 1.0734476560437385 0.10071270726773415
H -1.9271313708270628 -1.578194607610011 -0.2945755100040438
O 2.796226653552948 -0.29779703157464615 0.740097322798354
C 2.836536310928269 0.4010500311877081 -0.4851085564705797
H 2.6204784648162653 1.4648019206746667 -0.34551108506881817
H 2.1303121478441165 -0.017295089441829916 -1.208414119315575
H 3.8486086035828793 0.29296400905631015 -0.8717735523301685
H 1.9067352208355977 -0.2264208774520379 1.1063052539378393
