12
## STRUCTURE-ID: 645667b7b6ab7e5b0e28a816 ; CHARGE = 0; SPIN = 1
O -1.434396773334683 -0.2438256636264896 -1.0906723194182733
C -1.3909774799862409 0.47543612918311057 0.06531514946427462
H -1.4742606838513546 1.559749622139006 -0.07820764141569676
H -0.2858854070929462 0.3151223929507429 0.4571003832489975
H -2.0995071482894767 0.10291210016989231 0.8067665180736872
H -0.4269890297196135 -0.17203110121367027 -1.407478507329506
O 1.0010637574119723 -0.012394992229097866 -1.2507476644889468
C 1.046057916077994 -0.21827636424846084 0.8443652135909613
H 1.0756637965258502 -1.2857026310074517 0.7066634477236111
H 0.6762970145631062 0.053424904291529365 1.831725478669815
H 1.96831982338886 0.292835963554107 0.6266443041686022
H 1.3446142143065423 -0.8672503599632291 -1.5114743622875242
