12
## STRUCTURE-ID: 645669b847fdab514819eb6e ; CHARGE = 0; SPIN = 1
O -1.4099545167533116 0.40872717051280383 -0.7303168622601859
C -2.125786386411206 -0.8011155372767373 -0.3703895316144765
H -2.304446133225547 -0.7659604334804437 0.7011845345680929
H -1.552758974278023 -1.6924153769092989 -0.617401482183476
H -3.0777421815649757 -0.8020632166522151 -0.8951904802202174
H -1.2632084349039876 0.4345178492768137 -1.6998220143694442
O 0.8175969995727829 0.02338223706148978 0.5956377642119447
C 1.6668291981613965 0.5619847758277386 1.2553136567156855
H 1.7276056192447826 1.6524639576361073 1.3557019562264796
H 5.606732356610408 0.5779032031396154 -1.1485498351555423
H 2.4309935587277147 -0.006126447128929177 1.7942981577961985
H -0.5158611051800147 0.408701817993054 -0.24046586371507767
