12
## STRUCTURE-ID: 64566971513f342bf5111dfb ; CHARGE = 0; SPIN = 1
O -0.5189574424028908 0.8955223011808251 0.8068579870997763
C -1.0816281058155506 0.03260705340367936 1.7734552608666285
H -2.033263906277844 -0.38263007537625554 1.4292861364569596
H -1.2340605628228158 0.54738690328943 2.725653439768185
H -0.37225851935007004 -0.779699679748166 1.9203428318415083
H -1.112900909408121 1.643457690810043 0.6705882994464509
O 1.7091063157183226 -0.1314532242095634 -0.7070628638742715
C 1.0166483101046335 -0.4621243053827231 -1.8885645783460694
H 0.15761819728662219 -1.1075346915713993 -1.681119578015822
H 1.7169923115891237 -0.9975325328506444 -2.5284720231832654
H 0.6702105825510458 0.43454492320497595 -2.41262379971907
H 1.082493728827541 0.3074556372497968 -0.10834111234100773
