12
## STRUCTURE-ID: 64568f13afdb9d7f221a5614 ; CHARGE = 0; SPIN = 1
C -1.451010634334362 -0.08442504799670723 1.2012982116461328
H -1.548887702181888 0.010917780777551202 2.284264137869137
H -1.5877938638839568 -1.132492076515744 0.9385581071711665
H -2.211521938152829 0.5364645491783181 0.7278116934568858
O 1.052762611466522 -0.2611816274933522 -2.8311426360598175
Rh 0.7523221139657847 0.34349427855470965 -1.1256627025257195
I 3.1566363547422434 1.317735816374046 -1.195743758439984
I -0.8403454971432316 -0.7349303596686149 -2.967294261681471
O 1.6050155625884366 -1.465057186780497 1.0268064647532777
C 0.9896150406215624 -0.5278302511909512 0.6904521163961128
O 0.16762197122131467 1.5871002352690466 0.4283178149094137
C -0.08441401890961434 0.41020388949222014 0.8223348125048526
