18
## STRUCTURE-ID: 645672f4c7721304aa3eaddb ; CHARGE = -1; SPIN = 1
I -2.7049017395167465 -0.48658478725089066 -1.954310656151751
C -3.776316779563928 0.08865665377087087 -0.18120354428921115
H -4.834942174714289 0.01621612827564545 -0.3939402916882252
H -3.492483767141403 1.1051844961969761 0.06304305035779936
H -3.4879832582178434 -0.5872054498377639 0.615690991948741
O 0.9287024641711702 1.0036392133280514 -1.3584861627824973
C 3.7791409253165384 0.4029275859531203 0.10840026325968848
H 2.983773394700574 0.8007612840482387 -0.5171496118039718
H 4.1876822987973075 -0.5047095211844943 -0.3183454299656735
H 4.546571423078833 1.144623386941263 0.2836808561251249
H 1.1064580555531744 0.6113843733917977 -2.2197927971710563
Rh 0.09058603287258919 -0.3632905220679964 -0.051105294521499
I 2.899319992518286 -0.10280906499483171 1.9985632120846606
I 1.218314379611833 -2.354296745974472 -1.350154956912005
O -1.1799234364095637 -2.2816734708152775 1.8514203725689184
C -0.6614614463276722 -1.5459596148156693 1.1230513572216108
O -1.0175799833957064 1.9781286759505279 1.4378112615596252
C -0.5849563813331288 1.0750073790848942 0.8628273801597661
