13
## STRUCTURE-ID: 64568c8f0ea61170642b66a7 ; CHARGE = -1; SPIN = 1
I -2.390279968201521 -2.4913980121418984 0.46747602581116265
C -2.261078382606887 1.017296001370485 1.5098969986645343
H 0.210133760211282 0.6338865317254228 -2.165362695962221
H -2.435225492955347 0.29197247374159485 2.2886317476244313
H -3.142565829041886 1.5151682665298598 1.1471084741080921
O 1.6301741673290078 -1.5560255562575345 -2.0228540609712953
Rh 1.1242228016972153 0.11639470569812517 -0.9793530831549749
I 2.929669577635844 1.996699812696533 -1.536489214266218
I -0.04008728857719497 -2.1494298343634033 -1.079804767912204
O 3.161808615114671 -1.3432944062140009 0.613412686420994
C 2.343097200649155 -0.6596475411408328 0.1902670902592845
O -0.022061503068020433 1.4125888144734027 0.5624260350483007
C -1.1078076581863165 1.215788743882245 1.0046447643301295
