13
## STRUCTURE-ID: 64566c4706b85020535eb020 ; CHARGE = -1; SPIN = 1
O -0.635031391206206 -0.7508455459398814 0.47792686794138023
C -2.4496202404358796 0.42224518367757796 0.28954759408878883
H -2.5294355672077855 -0.18026913581788423 1.176678586843174
H -2.6467449619569132 -0.056166938641160166 -0.6522117214722761
H -2.877986607315709 1.401047093692288 0.4034156592540345
H -0.9575369799802479 -1.617060820457629 0.20311176107389373
Rh 1.2548571747774704 -0.11811756791133218 -0.32473376938801257
I 0.6032688651469281 -1.100812702353834 -2.741068206241582
I -0.4292315629105745 2.1512543730620615 -0.48477182850432465
O 1.9726492309767387 -0.5776202995318517 2.5470781501766426
C 1.7945619142318563 -0.34881146818699327 1.4289719050975114
O 3.9755695940243063 0.5048619622273021 -1.3733689367956996
C 2.924680531855991 0.27029586618127877 -0.9505760620735568
