12
## STRUCTURE-ID: 645665e67488f8522d610abe ; CHARGE = 0; SPIN = 1
O -0.5652929575126515 -1.2195183534187393 -0.8168591676274074
C -0.16344313536097285 -0.8352537962906615 0.21285992715288019
H -0.5251782603702194 -1.033678401905511 1.2237310508913002
H -2.156017356424264 1.6090876271090941 0.5492952801190846
H -1.7384410630656566 2.2641971626870476 0.605020567267913
H -4.444146604835701 -2.7073239972371854 1.5850612200736856
O 0.925296423631875 0.08297152667247458 0.2624053958976858
C 1.6753966669290217 0.374720270899046 -0.9569126401537646
H 2.025411358203206 1.4024691569528431 -0.8866243578401345
H 0.9911896913268418 0.2703789798245908 -1.7981121776217703
H 2.5038784937393337 -0.3235663472592816 -1.0683459671128748
H 1.4713467437391847 0.11551617196624862 1.088480868953451
