13
## STRUCTURE-ID: 64568be57525943c6c610aad ; CHARGE = -1; SPIN = 1
I 0.8409039108890569 -0.9870377409390948 3.51459744799806
C -0.9285122580035512 -0.16303963037616007 -1.4985719130579505
H -0.8552714911639561 -1.219682710773182 -1.2347329677678294
H -0.43678201141981365 -0.01975940981448905 -2.4592228011425203
H -1.9731812783794884 0.1329298591646896 -1.5639058227532472
O 1.7148184766294228 -0.7094181077163723 -0.6531484333249605
H 2.575969392304001 -0.9180278907704872 -0.2471452263544806
Rh -0.18835548113115683 0.3451807591313854 1.5799907739298915
I -2.6273717108414796 -0.20468899798025414 2.1758209451641286
O 1.7282659354402525 1.021229835178934 0.8258555452168235
C 1.1417392212845245 0.3495006974446249 -0.06307065587482476
O -0.7570315083804012 1.6967756629249997 0.0895282422022135
C -0.2351911972274158 0.6760376745253818 -0.46599513423529126
