18
## STRUCTURE-ID: 6456891352d4450f51662c54 ; CHARGE = -1; SPIN = 1
I -2.134454604952658 -3.4380318613568868 0.8049393085674644
C -2.2255143495385417 -0.09775817150627049 1.0243938734116718
H -2.782728258311931 -0.37820725884661194 0.11865764805442457
H -1.9599039359167392 0.9621276934655968 0.9076672435235162
H -2.9487417712515973 -0.1490462281434397 1.8582284484232616
O 1.669702955929242 3.2765794484708475 -0.9493785067568347
C 1.22185593381338 0.9792744115172972 -2.363267594124626
H 0.25889188781585604 0.726456057001712 -2.788831954911464
H 1.9115852801881241 0.15035487605693662 -2.4593745937759115
H 1.6231186368054598 1.890741786064768 -2.781960317496988
H 1.7257609222884036 3.911702441256128 -0.23178872640752982
Rh -0.6280673761830439 -1.354583705007706 1.4977321840655509
I 0.36006589852885895 0.577311381542063 3.048600840079383
I 0.9476722006476734 1.356914432230674 -0.28884469960197
O 0.4946873519016286 -1.4964447893122426 -1.0687226806519499
C 0.2903250700872899 -0.7805024439319089 -0.14073056739937523
O 1.4582437641825499 -3.5073379121117485 1.9205815333559135
C 0.7175003939661746 -2.6295501573890885 1.8920985616454644
