36
## STRUCTURE-ID: 6456d560e9e5e934933dae5e ; CHARGE = -3; SPIN = 1
Rh -1.107811247440032 0.30432842758084805 2.204927765289297
I -1.4344913681793876 -2.046561633278019 3.309427061781681
I -2.5411032459333294 1.5403437462190765 4.080036222302188
O -0.00819706868179798 3.052958041980373 2.0258234086887827
C -0.4002233951061302 1.9512034195944965 2.03786472801916
O -0.8375772325979692 1.3324244979159663 -0.5583203260762603
C -0.479515768180292 0.5811946934757064 0.3054351719410477
H -5.842468540750389 -2.1307717985336714 -1.3763183262011212
I -4.710456943592309 -1.217168350386668 -0.509394805894967
O -3.3185180212264167 -0.06981413984083705 0.8908405623330169
C -4.603053825184059 -2.9362698766436837 0.7429383801621486
H -4.090922996891677 -3.705830548001484 0.17780600979609407
H -5.61468021004099 -3.2028248003310518 1.0209184538502227
H -4.013446193915296 -2.663167811768763 1.607743203292234
H -3.9401456095751968 0.5023337027804626 1.349452524816254
O 1.558456557207497 3.0941262019331717 -2.0402467628718326
C 0.19252349183654827 -0.23469185755588134 -3.301354291688871
H 0.5692714882938414 0.17912989063019372 -4.230097930671684
H -0.4085586866200207 0.4955075570892314 -2.764746036932995
H -0.37169004499891933 -1.1484711118529665 -3.470714175292476
H 1.9612929570517037 2.974359458631846 -2.9189218184923527
Rh 0.6274998394848459 -0.9861783493948395 0.5819030125306508
I -1.1398833531058947 -2.4290835155250057 -0.6809124332756256
I 1.914749056601622 -0.7385916820359107 -2.059445012992993
O 1.9668149516139326 0.5849675859464263 2.6934534538807724
C 2.0005726142928113 0.07575324775168128 1.5656595161232412
O 2.4370413548329086 -2.8198787585254013 2.0862782835859606
C 1.6881157113400846 -2.3081791749530036 1.3613816821825144
O 3.2646862948153115 0.055635728791245745 0.9865869297125472
H 3.917966801684635 0.4561473306181091 1.5941759037861518
Rh 3.6410964655796247 1.0892222278833794 -1.4407853929244034
I 5.427831312717861 -0.795566392873594 -1.6964577130304843
O 1.7877556690314278 2.4982023108523093 0.08428062628373474
C 2.205414180132695 2.3433631881505925 -1.0670500536853733
O 5.076447888778973 3.692110144330385 -1.2193286270306332
C 4.62520711672336 2.6297383993446903 -1.3728391932960788
