12
## STRUCTURE-ID: 64566a87a669fd18fd0876f0 ; CHARGE = 0; SPIN = 1
O -1.898209895968905 -0.2444110275441222 -0.13348795126146915
C -1.1882307957570055 0.40929898614410376 0.7743214563912509
H -0.1091217948165983 -0.5634253050376608 1.5587110464298475
H -1.5945248294470942 0.45168613392353596 1.7828131263950795
H -0.7785191324534884 1.3401359780400064 0.41695886810907484
H -2.3561454922492673 -1.019638194873235 0.2317612464333427
O 0.8209734952654549 -0.13432685996618313 -0.05940115333839044
C 1.4699941970280115 0.12383009824615339 -1.2379176724049403
H 1.9169725459724505 -0.7903885044604059 -1.6663276819806032
H 2.2749349607534244 0.8766903054188201 -1.1303909149843008
H 0.753985443780109 0.5043402213275635 -1.9856885855827915
H 0.6878912978929083 -0.9537918312185482 1.4486482157939973
