17
## STRUCTURE-ID: 64568cff2a5d603d0a068a04 ; CHARGE = 0; SPIN = 1
C -1.6261949785746315 0.7314080943400292 -0.9185046606402714
H -2.08002027111247 1.1264235969977747 -0.011744256852360881
H -1.9794023596228645 1.2877102000062441 -1.7904996894192813
H -1.8640309159477328 -0.32543725503335014 -1.0351008661334429
O 1.7983023255416188 -3.1591922410507705 1.0998518011289586
C -0.0266525837085126 -1.3014027888034265 1.8693408467774044
H -0.18920830508025405 -2.3155981013020166 2.20858928074061
H -0.9564358654542278 -0.7639869724783642 1.7309857526234183
H 0.644185048954407 -0.7857759302780162 2.5452137724977364
H 2.3454846706526813 -3.699213993602288 0.5302097833496164
Rh 0.4959414248163764 0.9669062091335031 -0.9500825372999273
I 0.8727551136643331 -0.14417191177647143 -3.2828235464581024
I 0.9347265129285726 -1.4623538405260847 -0.02712145081147471
O 0.568987111476224 2.0292103468694194 1.8286046535070524
C 0.48251372160515293 1.636743511500081 0.7614541938367466
O 0.08564022990001201 3.4812378255564833 -2.63557456397956
C 0.49340911996116105 2.697493250447242 -1.9227985128670402
