17
## STRUCTURE-ID: 64568ed94c1f687130374184 ; CHARGE = 0; SPIN = 1
C -2.523297191034858 1.2672310389990227 -0.3000976379008126
H -2.938301538585315 1.2665090820495342 -1.3166695693529804
H -2.5079624047258213 2.28417297209336 0.09639009390500454
H -3.139657299443624 0.6479950126841333 0.34746065207297755
O 0.9142190662154797 -0.25938674203671624 1.539824403394574
C 2.460999568920341 -2.1261120967393445 -0.7643350170838429
H 2.449898395599746 -2.845331333404187 -1.5746669339359487
H 1.6811256380530157 -2.339939097464671 -0.0432726938087718
H 3.435969248975929 -2.063946468629323 -0.2967963483364304
H 1.2076600455954634 -0.3796091453859338 2.46961752769802
Rh -0.5798258063326448 0.5911235509242816 -0.5330985446141743
I -1.4415157609249674 -1.8277637550458892 -0.6379546576876952
I 2.034946849570438 -0.1793171812900491 -1.6128271603362518
O -1.0005294764211767 0.6732342564592317 2.2656166171571925
C -0.24522325428568897 0.3272510963353915 1.4101063385705042
O -0.15264336173440357 2.5793373507234167 -1.0369332404665057
C 0.34413728055807435 2.3845514597277555 -0.012363829274835978
