10
## STRUCTURE-ID: 64568d3257530e2ed0324920 ; CHARGE = 0; SPIN = 1
O -1.5150019208535648 -0.7897654227070303 -0.02400088900140447
H -2.2948020250488588 -0.2870082369659103 0.24828338479053616
O -0.7957582835219139 0.5221173698083545 1.9296716129846152
H -1.5141622700563047 -0.03264249501058145 2.2629065995776725
Rh 0.20836791091946155 0.004692899277055021 0.43270113334020727
I 2.4811233552683665 -0.5589221304410542 1.4935827314074501
O 1.6435346401399848 1.800216038604028 -1.4637141828642417
C 1.0970746169149328 0.8404278439768254 -1.0347235353430815
O 0.2143237184084136 -1.1241930085094745 -2.3492908568613573
C 0.4753002578294896 -0.3749228580322132 -1.4954159980304045
