8
## STRUCTURE-ID: 6456644b4393fb036f2eaab8 ; CHARGE = 0; SPIN = 1
H -1.5351015840898126 -0.14578514756812622 -0.823972057498671
I -3.1213145265819837 -0.11441353121456714 -0.896075473247893
O 0.28233064857327106 -0.09259832961518034 -0.668689168685958
C 0.8003124674738643 -0.03295757238471738 0.6475255091372849
H 0.19307188093501096 -0.7002197536684476 1.2564231282682006
H 0.7356564742423722 0.9800465452176343 1.0529273257877805
H 1.8374992575427092 -0.37287735291328566 0.6754147847059052
H 0.8075453819045625 0.4788051421466911 -1.2435540484666576
