12
## STRUCTURE-ID: 645668b16e62d014b76aac6b ; CHARGE = 0; SPIN = 1
O -0.4783095292521845 0.4440493390375979 -0.529745247904531
C -1.2361656774946375 0.8730590539726485 0.561403386930306
H -1.0700857612659291 0.2647406124907459 1.4528394859928482
H -2.251816366606954 0.6964632868898916 0.20176399001258966
H -1.0950261469264657 1.93708224713548 0.7628595989356172
H -3.0316602358488094 -2.664212404594598 -2.4566376511390224
O 0.9768115113992407 0.6321212767913176 -0.296725827116233
C 1.5986837694047735 -0.5395536563476987 0.26984451633721634
H 2.668374667348241 -0.3264622542026062 0.2885967523969947
H 1.3898177718164273 -1.4365697989270911 -0.31392638384973576
H 1.2319231945363311 -0.6622658051523055 1.288568886338646
H 1.2974528028899774 0.7815481029066391 -1.2288415069347163
