12
## STRUCTURE-ID: 6456696726f3ef3d402a1578 ; CHARGE = 0; SPIN = 1
O -1.4615519504497623 -0.27160884923911394 0.3506209563615372
C -0.9016811378386985 -0.14572039730070885 1.6428638868724612
H -0.11923525306061354 0.6080119513689751 1.5740635919112507
H -0.4615886730499795 -1.0889218989278107 1.9785362956962795
H -1.6491408140744064 0.18513008957017757 2.3680055799440307
H -2.1855289138561034 -0.9086902528714282 0.382839565713094
O 0.49048370846444805 -0.5361534277718156 -1.7259031773697193
C 1.435203194765298 0.4625508728356905 -1.422802784441357
H 1.8711778315644347 0.3132454069389847 -0.4291392639655369
H 0.9915157726231275 1.4621763126731264 -1.4711637828972963
H 2.2260504571606115 0.390032745040388 -2.1684502755213635
H -0.23570422224834972 -0.4700525523164601 -1.0794705923034214
