13
## STRUCTURE-ID: 64568c5c4d260951d75eddf4 ; CHARGE = -1; SPIN = 1
I -0.8879670192827765 2.6840753831082025 -0.15189969383522553
C -1.3115384742902243 -0.7362751908486358 0.6149936877682409
H -1.2460065558647497 -1.503055879201606 1.3876628882156699
H -1.2488665518227666 -1.1895033913075546 -0.38110019941695494
H -2.2334337212694306 -0.16278893686897916 0.718416257024338
O 1.1366604038321626 0.304892928258126 -1.2699349596146299
Rh 0.34824811765925534 0.5308963696896309 0.6788900780852613
I 2.0373652791107673 -1.2923700068957418 1.501631406938497
I -0.05960025743532541 -1.3438096543333704 -3.3867211148834957
O 2.315307428739011 0.41484751925013136 -3.1621347451668314
C 1.4416466247254225 0.0822073675010287 -2.421596349957377
O -0.24133727868264085 1.2593746279713545 3.4766324392143986
C -0.05047799541867718 0.9515088636774023 2.3951603056281257
