21
## STRUCTURE-ID: 6456758c74c547333f0b3f69 ; CHARGE = -1; SPIN = 1
H -0.8042082764042938 2.0352434397256394 4.357617560232293
I -3.3889228670454172 -1.5560504126470893 2.9433473715553653
O -0.9040162417736579 2.049423845097521 3.4018394457286734
C -1.4025288339591837 -0.6369977655662742 1.7284087089007354
H -1.941840184074551 -0.7345208879275059 0.8058883254744511
H -0.8227135601510105 -1.4697251919598082 2.0767093650653203
H -1.485822376893525 0.2566773788712956 2.3219193958884596
H -0.436700625875113 2.82729547768539 3.0864865302864564
O 0.9782361654067567 -1.9832762786763127 -1.4372957861313596
C 0.13566722970693895 0.13755497704703118 0.8228608803175836
H 0.7175819155229657 0.29086236989790554 1.710280504280739
H 0.31528359038002424 -0.7307456047376371 0.21417868350835612
H -0.40261262538824955 0.9693156679911585 0.4132903151759272
H 1.5926942524737169 -2.713412803921156 -1.555951047717086
Rh 1.2514624300207646 -0.438202091225914 -2.78976672597925
I 3.5631248848566304 -1.4748325429517994 -3.6149312799829514
I 2.2346877230926085 1.1508294171852482 -0.47664969312100364
O -1.7139584672813053 -0.27744670104500674 -2.455040452077785
C -0.5753994614175215 -0.2587760911574403 -2.630067839969904
O 1.6274564336826047 1.6738450411579542 -4.873035331184243
C 1.4625288951210027 0.8829387571565933 -4.050088930251112
