12
## STRUCTURE-ID: 64568ef63ccd6079df7ffa80 ; CHARGE = 0; SPIN = 1
C -1.389178745038444 -0.5462442743344992 0.4834714743982473
H -1.3313891698810978 -1.000623209817959 1.4727190698939563
H -2.086083487701434 -1.0873452993743693 -0.16044610079715899
H -1.802157568607338 0.47386261106187116 0.5918821270914467
O 0.9854942089081212 2.3261547113857777 -0.6405343728919992
Rh 0.44330529458684953 0.3087318279021086 -0.3908295016312577
I -0.6683251873401777 0.3047183174733725 -2.765656545114461
I 2.585445327479552 1.6202670647274418 -1.498067464701345
O 1.861340527199881 1.096831976831231 2.1267869535934847
C 1.2698871994732748 0.6590117753665549 1.2682266899964052
O 0.06085692870244098 -2.6502021436745054 -0.25416747895013003
C 0.07080467221837813 -1.5051633575470855 -0.2333848508871579
