18
## STRUCTURE-ID: 64566ec4858dca2a7b1fea78 ; CHARGE = -1; SPIN = 1
I -5.704986069466652 0.22422547012104327 0.449328486154225
C -3.5720711729522945 0.1571440945217876 0.5695334189713404
H -3.212106763990969 1.1582615125373017 0.7687384258539732
H -3.192916862807441 -0.20692849006742464 -0.37666426593701713
H -3.3026803154423385 -0.5119212412439705 1.376249444799756
O 1.4226400595434174 2.0844857478494743 2.547331083666765
C -0.04490419040386522 0.7298846936419855 0.6561333276920687
H -0.3298414431943792 1.392846093175914 1.4582028434485832
H -0.4404812249304225 -0.2665166962213457 0.8147179193051641
H -0.35548752902600783 1.1226216933154494 -0.3051782029069239
H 2.2028960614009034 2.391566102001667 3.00763165856989
Rh 2.579881272440192 -0.9751055986792878 -1.3012875508990085
I 5.033535882530272 -0.5163550242974406 -0.6568636390190692
I 2.0809364699948936 0.6265363714736895 0.6868591286047238
O -0.34289438146719614 -1.3160069415386042 -1.8115308182857695
C 0.7866540091037592 -1.1834657260288848 -1.6159316712027818
O 3.323575003098638 -2.8036884635231223 -3.569707014643587
C 3.068251195569485 -2.107583597038264 -2.6975625741723426
