19
## STRUCTURE-ID: 64567b2cc82c1346a21fea79 ; CHARGE = 0; SPIN = 1
H -2.471081158065069 -0.9107224178058888 -1.2194695182166864
I -1.7899626066329137 0.5190461217391873 -0.8092471202373855
C -0.6539286538801995 -1.2896227612200857 1.0656806791498916
H -0.2773030953333684 -0.38952928861822617 1.5240566544562262
H -1.6819318624754935 -1.5740805662123394 1.244068148121656
H -0.1469660674985567 -1.6436468823947985 0.18082653042807265
O -0.6360174592189097 2.889950511084669 -0.11557633980485275
C 0.6236336883793989 -2.7559506420616406 2.6582295661092616
H -0.06723645433282636 -2.1649098755999563 1.9283459771462315
H 1.6298984955526106 -2.3764514964147403 2.512693361316829
H 0.23542109711473244 -2.605089305647228 3.6599021504678833
H -0.2163350703937545 2.895562696615836 0.7504558123540037
Rh 0.5149887886090482 2.273999382127302 -1.7392403779075933
I 0.5031195495558151 -4.800504732376903 2.111905803716077
I 2.0932385564342844 0.9262179854644597 -0.1762231010117317
O 2.18736895710287 1.5569054615400535 -4.0994413426803
C 1.5240433712079087 1.790000302792011 -3.182629807641404
O -0.9451047311580665 4.211682277462875 -3.4914610937917416
C -0.42584534496749543 3.4471432295254125 -2.8028759819744433
