13
## STRUCTURE-ID: 64568c825cf1325c1f2726b0 ; CHARGE = -1; SPIN = 1
I -1.185531729612302 2.744127810840106 -0.8813313679544316
C -1.292714405458366 -0.8469110059279064 -0.2215179202418344
H -1.464225270726845 -1.9192853620398032 -0.1278878044812773
H -1.6427122260813791 -0.5104509568907183 -1.1976439437255746
H -1.8972166929738035 -0.34465346230495936 0.5526790280010022
O 1.9669992621521963 1.1206497271159266 1.525965216879703
Rh 0.5847650996629742 -0.05562121791304996 0.4833008653083131
I 0.8834978771872567 -2.0366095643481255 2.252837201849105
I 0.4301762754903714 1.685591581665397 2.56790622961685
O 1.582924744013188 1.8385196337562557 -1.43645373445611
C 0.6852541858013321 1.4407660264477316 -0.7829257154748811
O 0.7315919837923903 -1.9159753806460376 -1.8151934221350137
C 0.6171908967530171 -1.2001478297548376 -0.9197346331858887
