12
## STRUCTURE-ID: 645667e0039a9b7fd65c0b00 ; CHARGE = 0; SPIN = 1
O -1.3700066981562087 -0.6530097368731391 -1.159970534448641
C -0.3096032406039561 0.2761175803238251 1.3904653324758927
H 0.16299088264398523 1.2445496112458705 1.5621722325733383
H -0.4064750176118198 -0.2745002402470807 2.3259816411270324
H -1.2910206037104242 0.40920055632942287 0.9374258132793986
H -1.2393434877383833 -1.5946980266946065 -1.0355520898927197
O 0.432452805736953 -0.5101813788125849 0.46676532489060923
C 0.5876926926068924 0.32773937057937547 -1.1702212530142841
H 0.7349535107435801 -0.40552413729900244 -1.9402254402817025
H 1.5137760446256678 0.7563629033037899 -0.7915282726331488
H -0.15425860812831538 1.068802718008317 -1.4003896355047438
H 1.3388417195920497 -0.6448592198641827 0.8150768814289484
