18
## STRUCTURE-ID: 64566eb60c5eeb29a2530d66 ; CHARGE = -1; SPIN = 1
I -3.826853374061572 -2.955270076073766 -2.1962459285196725
C -1.6135298250017136 -1.338560388266939 -1.3460686814868443
H -2.0697358044263967 -1.5322263365937085 -0.39771711948136523
H -2.1002985305646997 -0.636040157070713 -1.9895992743710855
H -1.0766407054845415 -2.1415346141175897 -1.806544040861055
O 0.9285626883822664 -1.698466025706989 2.390280176238238
C -0.08496891406385165 -0.19071096176427915 -0.7324905875552891
H 0.14114422640689409 -0.1478478371921131 -1.7834157677447553
H 0.16167640824053978 -1.0649024407385166 -0.15077246156979854
H -0.8114043570358128 0.5084625928045114 -0.3376372144920527
H 0.8208664534302902 -2.2662707846071264 3.1559484912538918
Rh 1.120895144092896 1.9256652428036658 1.0784277017326083
I 0.6736950198226684 3.30364811009834 3.3059939955377367
I 0.8058713771005362 0.23073411562844917 2.9551516514862275
O 2.4162057730737065 0.10915090551669572 -0.7581586469225954
C 1.440349344600895 0.5878325280615644 -0.2774108363784595
O 1.649390871427404 4.0578064928047315 -0.9470220583112338
C 1.424774204060326 3.248529634413731 -0.1627193985545118
