13
## STRUCTURE-ID: 64566e187071bc2ea11dbea2 ; CHARGE = 0; SPIN = 1
Rh -2.6582356135646283 -0.2811818591565456 0.10891707596131663
I -0.43462067323424236 0.021076181783912365 -1.1606931379580105
I -1.4848276825548066 -0.3233073570862537 2.4188859740290236
O -5.2471769616238495 -0.6103570829465078 1.5597430424013266
C -4.250794337241456 -0.4855028438271615 0.9967569217148368
O -4.13461686529325 -0.27890629130617256 -2.4847490972930153
C -3.549723099863399 -0.27425016121452234 -1.492316484187679
H 1.5954046467967755 -0.006325805307899775 0.537914610430873
I 2.9331804145009106 -0.00044513695423719013 1.419396580935432
C 4.175035994578176 0.5057591753127908 -0.2929437913031614
H 5.2026170583920255 0.5288462317008867 0.06125267835128546
H 4.013320546224331 -0.27490798146053147 -1.031722166510915
H 3.8404365728834127 1.4795029304622258 -0.6404422065713098
