12
## STRUCTURE-ID: 645668ae2094e42a1e530d68 ; CHARGE = 0; SPIN = 1
O -1.571901682802548 0.30917956308197053 -1.0353759467667736
C -2.059931950832451 -0.22961459356348785 0.17111414858060356
H -1.565950091339676 0.2185862118199402 1.0391690401551392
H -1.9269947084515935 -1.3157570991648873 0.20695965432432828
H -3.124371522109174 -0.001747567306526567 0.2131805066631522
H -0.6183265326884236 0.12577556697874814 -1.080735243125723
O 1.1999156378021991 -0.349725963840002 -0.6616017665471782
C 1.8744340193608342 0.43938419591615263 0.29642504403169984
H 1.9028345604449606 -0.05667332640539595 1.2708360959046814
H 1.3158615502143154 1.3692331103840034 0.38698891676161484
H 2.8939354936126542 0.668729255945973 -0.02426411602973007
H 1.6804952267889077 -1.177369353846473 -0.7826963339518213
