12
## STRUCTURE-ID: 6456883eae89fa30e0750eea ; CHARGE = -1; SPIN = 1
Rh -0.4435689083234812 0.5698890764829209 -0.28192762265088844
I -2.980229057299357 1.445059310371856 -0.8499087589039473
I 0.043161928725859014 2.5742170279974848 1.4471988218371503
O -0.9692476942334727 -1.0729164601287644 2.1611679517609854
C -0.6680960156215033 -0.4765441351774479 1.2243776869287981
O -1.0234958577662217 -1.4126054737993663 -2.4435004159802496
C -0.7736933674467391 -0.6923893338783357 -1.5941467926775907
I 0.7668515460477172 1.7754498141575539 -2.4321306758343324
C 1.2452939124061733 -0.5796219699160733 0.6441626973865933
H 1.2515540576304456 -1.6595795173831276 0.5008019620086199
H 1.5639487875974882 -0.3357096730111786 1.6572385743658093
H 1.9875206682830957 -0.13524866571550478 -0.033333428240955205
