12
## STRUCTURE-ID: 645668e21222c77a42230d70 ; CHARGE = 0; SPIN = 1
O -0.9127547633760228 -0.18942419115837442 -1.5397119882793446
C -0.4361675049054274 0.0006831777946431823 1.3413549434555236
H -0.3471945565601116 1.0326009821195974 1.6771433764511183
H -0.5744670748291321 -0.6812492343825294 2.1764463047009186
H -1.270694648618297 -0.08289544048278492 0.645041258304033
H -2.375380988811565 -0.41065500589506304 -2.1556994996653627
O 0.7392652324857252 -0.4263102917258022 0.6144481362908094
C 0.8963706909023158 0.20596172540720914 -0.6610607164082518
H 1.8652641098999525 -0.06370403805513786 -1.0782142464044953
H 0.7051746902011383 1.2724975407094674 -0.643102098400661
H 0.17598750450510878 -0.4051252285276716 -1.5527373237478976
H 1.5345973091063199 -0.25237999580355563 1.1760918537035252
