12
## STRUCTURE-ID: 645668bb627c9e44ec111df8 ; CHARGE = 0; SPIN = 1
O -1.76051764337354 -0.172271214422799 -0.7798995301426178
C -1.9302663175189372 0.6020564546119646 0.38479129565146036
H -2.9859361231278694 0.5530349500401924 0.6492930781492141
H -1.6556383087142925 1.647972699442233 0.21277158358064782
H -1.3369484668287697 0.20997336573171993 1.2165166265276663
H -0.8143235267411199 -0.17381821882121815 -1.0011835307492438
O 1.1238485413327237 0.020155336327897913 -0.8687785960199144
C 1.7935785901437846 -0.6998705819758115 0.1452799038413856
H 2.7104340780365472 -1.1603322884250065 -0.23188120123848802
H 1.1156857602415173 -1.4857823023356338 0.4730977144835119
H 2.0338107569008264 -0.05682716301463173 0.997088662225284
H 1.706272659649138 0.715708962841092 -1.1970960063089087
