12
## STRUCTURE-ID: 6456668d0dd3491e2a6cd4bb ; CHARGE = 0; SPIN = 1
O 0.30649614793756114 -0.9948733136017325 -2.671957679358834
C -1.2409071149036615 0.4802331066145206 0.6593390573967133
H -1.4136496190838082 -0.20785924964147873 1.4944576286630105
H -2.0459447384678846 0.38596048046583353 -0.06552159355280349
H -1.2112805010068062 1.5057632003179602 1.0434928973147422
H 0.1918576855900604 -1.9151560209498706 -2.421291664039772
O -0.04519814702079759 0.1600576507621335 -0.017412815948405595
C 1.095531808239751 0.2511701303728083 0.8079792211800457
H 1.0272959770440657 -0.4496205923945433 1.6476956991267053
H 1.2147348641947893 1.2668959337385761 1.2003052878385472
H 1.9520996265031574 -0.0021761875295875596 0.18771984181560877
H 0.16896401097358765 -0.48039513815460183 -1.8648058804355554
