19
## STRUCTURE-ID: 645679c9ac275a3a1e159876 ; CHARGE = 0; SPIN = 1
H -3.959777018518469 -2.621498304437612 -1.186898091673869
I -4.347898937871085 -1.7431107875695555 0.07377896560509986
C -1.9010004102242293 -1.3005439302203934 0.43380074580290473
H -2.0171090963683773 -0.8380864122006035 1.4061247041967646
H -1.668984150918912 -2.357373429940683 0.3801015279101514
H -1.8279515072715886 -0.6720051049857161 -0.4475183396906906
O 1.9461895835529388 2.6615731191553036 -2.713441525047872
C 1.196662973319178 2.6560545935453046 -0.08987037580693592
H 1.2945602300664534 3.4968428237581244 -0.7590674812881564
H 2.0582778158018056 2.6012429669057595 0.5653004818093853
H 0.2767443425153064 2.7121113147165015 0.4792536102776029
H 2.103921747679061 2.350308876899667 -3.602896889940889
Rh 0.6481559589765876 -0.9859581111872082 0.42831323808820304
I 0.6268241067376167 -2.3571810089702607 -1.778685934736154
I 1.1648826668223309 0.9372245163039873 -1.316592531760243
O 0.9688533270376791 0.9751426296750072 2.6601343511079207
C 0.7794695872040108 0.22740248959781323 1.8125408414326456
O 1.640915625604643 -3.241101194581362 2.128900773696675
C 1.0172631558550573 -2.501045046464063 1.5267219300174455
