12
## STRUCTURE-ID: 645667066587a525880b3f60 ; CHARGE = 0; SPIN = 1
O -1.5034645509263749 -0.41857209040833726 -1.1051797657285012
C -0.9013670149669812 -0.1869293476812837 0.987170192811423
H -0.9930179862688405 -1.2371180941525561 0.7840786886611435
H -1.8333831866572716 0.3455813751843787 0.9945015486776014
H -0.26872883574311446 0.026510132973333964 1.846925147161664
H -1.6662266872097957 0.451217346728086 -1.4744715171341232
O 0.337073519173729 0.740373378513977 -0.018624190627880732
C 1.3438975914037614 -0.11972763109448122 -0.5367899984509575
H 2.026388988963077 0.46571225381758935 -1.1526455956590063
H 0.8178514456991905 -0.8446633613904239 -1.1563429872047648
H 1.8871706926484013 -0.6271110705690492 0.2620254505999599
H 0.7538060238842097 1.4047271080786865 0.5693530268935324
