14
## STRUCTURE-ID: 64568ef2ffb7393699662c57 ; CHARGE = 0; SPIN = 1
H -0.9196602382362699 -1.0352374503738158 0.9601000792996669
I -0.8532785986315286 -0.07073354690995898 -0.3132897620423259
C -3.0872355364812334 0.03267343708878255 0.041218314308087485
H -3.499336903616859 0.6881577051325438 -0.7162548721409605
H -3.479637592097689 -0.9726276865898518 -0.05128595261314146
H -3.215286356469653 0.4467570525825058 1.0363484083075098
O 2.098526947484422 0.6597550215840227 -2.4079234454758893
Rh 1.847629814626044 0.28285008253515387 -0.29035855232535807
I -0.21690681713436852 2.0933592548779085 2.7563683887708095
I 1.7846455823010032 2.6454459747905434 1.014267195997797
O 2.0756326193677865 -1.6291456476943647 -2.5677649570151453
C 2.035236530281277 -0.5254005516794166 -2.1053279962676092
O 3.048718663276987 -1.6175325466116437 1.679742289938347
C 2.3809518853300955 -0.9983210987324098 0.9641608612582242
