12
## STRUCTURE-ID: 64566b465f11de60a02726be ; CHARGE = 0; SPIN = 1
O -0.24694227894776968 0.7191638868287236 0.18763564371514074
C -1.3006003163158077 0.23805802997452336 1.0678197967870162
H -0.9886451732050775 0.4518186031696611 2.088338663698379
H -1.4556509322237725 -0.8332954594909328 0.939234214286814
H -2.2080656085129635 0.7898504789047932 0.8377795460728771
H 0.8703801937851496 -1.5833042174307905 -0.9800021243874815
O 0.7690571154318401 -1.3926816012961438 -0.03736334216936383
C 1.0002815138176522 -0.09909384268414932 0.2855200573790014
H -0.5806402552604103 0.7253969973109774 -0.7374995205846256
H 1.7240126203952482 0.42408759312247757 -0.3458313464751155
H 1.2769227944521186 -0.04206978980319464 1.3424234994329272
H 1.1398903265836993 0.6020693213939915 -4.648055087755622
