18
## STRUCTURE-ID: 645670fbe37975539a0b5344 ; CHARGE = -1; SPIN = 1
I -2.6454093696478584 0.23003553803152718 2.3002737610711543
C -2.6853252365193745 1.507760992056942 -1.5021781795019
H -2.0709484090487793 2.2319880917875663 -2.0226293377435356
H -3.6658181473923124 1.415516910533544 -1.951356566589154
H -2.764855849462159 1.7490852493058855 -0.4476493629834313
O 0.8699549604236078 -2.546720195371471 -0.7180407645540818
C 2.48293153052626 1.7952283770255926 0.11432294068306828
H 3.053557477768918 2.517001260003913 0.6839092662420692
H 2.3507208603972316 2.1145923874855517 -0.912082204062943
H 2.9348053082042536 0.8109555288315133 0.16548207995609335
H 1.708040131848992 -2.878462834263501 -1.0958186992941157
Rh -0.507419353386558 -0.8685624098656024 1.0844440465371894
I -1.7060676654398486 -0.43278396971622907 -1.6623225273171718
I 0.5357017943154294 1.6128506649166012 1.0250520539498134
O 2.282287987337256 -1.4365256842044152 0.5917859550110203
C 1.1046559486905683 -1.6612868615776417 0.29801429798323026
O -0.6189761783315323 -3.619011517297262 2.2488251645627866
C -0.6578357902840898 -2.541661527682504 1.7999680760498777
