18
## STRUCTURE-ID: 64568ba3e4cd1c439175cc20 ; CHARGE = -1; SPIN = 1
I -2.456629131361918 -3.1996717740014122 -1.1761843714581353
C -2.31132740205981 0.268334647250938 -0.11154728319125354
H -2.545277349257899 1.191224453471076 0.4224389411103983
H -2.672427113429287 -0.5732982872421615 0.4899775082358665
H -2.839193446539414 0.28260221262934254 -1.068364113673541
O -0.06746351763353234 0.18285331876930655 1.7382745934215893
C 3.0593992210850858 1.1926436148447992 1.2217657479585808
H 2.247847089315747 1.1538474147745486 1.9413233941808272
H 3.096932196024199 2.1559011357212996 0.7248791875053383
H 4.008732017317121 0.925763171762572 1.6693291396480696
H -0.4914922495450334 0.9268052746270442 2.172852139834049
Rh -0.257715284205092 0.009877156190075311 -0.34275392166626495
I 2.592415405924414 -0.30386318606706325 -0.2775060511370646
I 0.02223623316631046 2.5868094722869635 -0.668558629491462
O -0.7297953249649349 -1.1226478901428487 -3.1317485411332737
C -0.5095687145355275 -0.7761913857766993 -2.016396991337019
O 0.3945457550255026 -2.784727397762266 -0.6376014949046303
C -0.5412183843259332 -2.1162619513355514 -0.9501792539019867
