15
## STRUCTURE-ID: 6456b7239dea4033f56aac60 ; CHARGE = -1; SPIN = 1
C -2.038285119715927 -0.8104895243174377 -0.2803309464186559
O -2.934824989735636 -0.3597453244915771 -0.8576202776835894
I -0.818687535370983 1.0186942082707973 1.0575441317136747
C -0.24866132252561526 -0.301995298099229 2.7099002578980116
H 0.7975225188130131 -0.1337939325616195 2.9455629181606935
H -0.4130982294250165 -1.3245703763384635 2.3859776954354834
H -0.8734331299334651 -0.06293118185096006 3.562410465927869
O -1.4952393294760375 2.3607393733310755 -0.9766449041917186
Rh 0.9383878357004372 0.1281834921724097 -0.726686561654929
I 2.9460788659779036 1.1054178233538519 0.6328385107988024
I 0.07309863066254782 2.700450287126647 -2.0410947605454166
O -0.7700790328034453 -1.5214436932528732 -2.521736324627056
C -0.32782336471587087 -0.9070825650757559 -1.6472610135376349
O 2.9743619484450226 -1.1931590780163197 -2.4582063616028513
C 2.1906822541031112 -0.6982742102505195 -1.7846528296727668
