34
## STRUCTURE-ID: 6456cd65be136e653776345b ; CHARGE = -2; SPIN = 1
Rh -1.5634634775278793 2.108122548109622 -1.1333796858573544
I -1.9964616874987096 4.626933556867495 -1.858537852110063
I -1.0570297161208768 2.7087274875485043 1.4061394879105498
O -1.3960530646152005 -0.8591627908930121 -0.7521242851099008
C -1.0447270432864726 0.267417630616646 -0.8913271659891602
O -2.6827336869336103 1.2577618130442896 -3.75363942089741
C -2.172480756132743 1.5939436504045792 -2.7778897277374504
H -4.313250796993568 3.7251303181678113 0.07695376570429677
I -4.351993846277309 2.180477452128586 -0.3126900584150127
C -6.557667435148458 2.406701498138748 0.24556614698046017
H -7.021671939202184 1.4390725478892163 0.0850889832655788
H -6.589360236320566 2.6987041342189584 1.2906356066330746
H -6.965356522258112 3.162391860950471 -0.41895421486935636
O 3.319218236528329 -3.6474859315034363 2.4958478459871465
C 0.3326070975363259 -3.5296833076570655 0.14555775808954013
H 0.7733338514406807 -4.489979582371812 0.38439653280478464
H -0.5230757764301643 -3.6370657142425866 -0.5116969241699737
H 0.0510521729272394 -2.995748944701984 1.0493512425156297
H 3.858890485965671 -4.185317248184009 1.8926171864619552
Rh 1.0731246994648063 0.2239287894876973 -1.3090472910621525
I 0.6464941526283019 -0.21247190858259396 -3.918772298399668
I 1.804556539496321 -2.3255386884248868 -0.8398277392530124
O 0.534829263183539 -0.33154624445354913 1.4086854062834095
C 1.3414385279534202 0.21244568336819078 0.6596185920676964
O 1.613052257397775 3.1606810712172173 -1.309059681498102
C 1.2815211154238961 2.051754878159749 -1.3263437605144872
O 2.4976604133652636 0.7084114582004924 1.1665990904743966
H 2.5592915785803085 0.5051022852922001 2.126205673248287
Rh 3.9378281088019906 -1.606540359239513 0.46458887952723277
I 4.316728263534837 -0.2939793697664279 -1.8536282726909556
O 2.733636636738288 -1.5656797318868232 2.946066813170137
C 3.299347050235658 -2.3196335512639314 2.1624311193876866
O 6.6474741850649535 -1.493534330979158 1.7353774608255088
C 5.613241348477938 -1.5443409596595952 1.2251907872372634
