21
## STRUCTURE-ID: 64568d21d82bdb083032dfd3 ; CHARGE = -1; SPIN = 1
H -0.1417943844582966 -1.919008377750414 -0.9381535714939011
I -1.165147079812081 -0.8563330137858992 -0.08691660118689419
O -1.3139644601813043 -2.72993257404248 0.7053023110305815
C -2.566547755670243 -0.33579649005182116 1.5275413043195045
H -3.5248941316654276 -0.8173140714525227 1.3756285844526863
H -2.679521915666441 0.7425058728018553 1.4694363392362955
H -2.1338620627494853 -0.6071995804135883 2.484800548542096
H -2.052104407431185 -2.8590219120456126 1.3030870925406761
O 1.5759588104311495 3.224288783950385 -3.105593422295272
C 0.7218055832366653 0.668405071304603 -2.530129630483411
H 0.983807868244567 1.121251575291185 -3.474745242454085
H -0.33252079323735306 0.41162563742656494 -2.482690112461825
H 1.3398598629423333 -0.1986752784329427 -2.3253272661620503
H 1.8270979552769813 4.1295569380538195 -2.927283500618226
Rh 0.7619395726069763 0.497410147989292 1.0078353983566397
I 1.6597028536346943 2.5497429966256946 2.407305738488593
I 1.118738288257644 2.118353262061206 -1.0286548498158852
O 2.1847027350203727 -1.5998091279621305 0.035960040325602044
C 2.1451115387728326 -1.046059934043608 1.0776271668043604
O 0.7593567864934836 -1.6685929188779802 3.154471154656933
C 0.8322751359545921 -0.8253970066458631 2.3504985182176013
