14
## STRUCTURE-ID: 6456797af88e7b1d0461a6e3 ; CHARGE = 1; SPIN = 1
H -3.301555957605018 0.30401083457511774 -2.240835928503181
I -3.6529645273130464 -0.40850190580332185 -0.8699513392883651
C -1.0979325215272662 -0.2658876196890217 -0.19813609273789287
H -1.3602892202914245 -0.538109631160747 0.8169685133704722
H -0.880708863407384 -1.0431484330916385 -0.9203583342060868
H -1.127991559344271 0.7745321339297079 -0.5031656556836884
H 0.6049256800376904 3.4242968333584796 0.6151385596185219
Rh 1.2944876914663332 0.07766746024772155 0.3718888286561117
I 0.7324976639140575 2.334288003558454 1.7654688674665553
I 1.7704665320706674 1.3550205404568851 -1.8581228747905505
O 2.4359571748178084 -2.1808489523067576 -1.2140592010645084
C 1.9583254673649515 -1.3545700157496585 -0.603392253162141
O 1.3621883979932767 -1.5456709247312137 2.893960683027588
C 1.2625940418236536 -0.9330783235939156 1.9445962272971247
