19
## STRUCTURE-ID: 64568eaa879dac5f96670ff4 ; CHARGE = 0; SPIN = 1
H -3.8071426775384123 0.1736538353821365 -1.2787756429519344
I -3.1181622693393587 0.9897454024035208 -0.11062559827543053
C -1.7692143669288694 -2.152260537779808 1.4614105173555134
H -2.1252241535808767 -1.7736842535712993 2.4198418660237886
H -2.6235935003062094 -2.4648702802726175 0.8582725601830454
H -1.1200367874758146 -3.0123151818983636 1.635305111790238
O 1.484945937279715 2.431867739137378 -2.7087338509332963
C 2.301497213426039 1.7158479957315207 -0.270637430222189
H 3.279925636753545 1.6848453887004662 -0.7323770236667133
H 2.297901063338949 1.2084515455632938 0.6873722324352578
H 1.9669117644392722 2.7409935728367585 -0.18788773989896762
H 1.0920623907598328 2.4509153057459954 -3.5828113972386837
Rh -0.714230421973835 -0.7035725305397793 0.3306401321149776
I -1.0978456087129103 -1.9660988473385526 -1.958603911959945
I 0.9574926646705948 0.7221823771853458 -1.5730286007067293
O 0.035413957677734476 0.5558856966681595 2.930501582426352
C -0.2853011094930651 0.07013335599056668 1.9477556417537782
O 2.111684610734948 -1.6315861312475615 0.19278570123654148
C 1.1329156562689076 -1.0401344526970047 -0.06040414946559097
