21
## STRUCTURE-ID: 64567a5f22ae8d46f1351d84 ; CHARGE = -1; SPIN = 1
H 0.6580403202737077 0.04689145443385499 -5.529372118892913
I 0.8307612113804198 0.058862198049542534 -7.083090292459309
O -0.645049985065697 2.450354952863224 1.2244658471032062
C -0.1416934711013641 -2.220906221841919 -0.06510761079958284
H -0.40979640170564563 -2.714752304944771 -1.0026550397138085
H 0.8828094593330299 -2.527892514999062 0.17556710229628725
H -0.8054689858614174 -2.6299693954172083 0.7094478423508713
H -0.46999213605395745 3.401777239272556 1.3770516816216412
O 1.791245853815864 -0.03318865498462112 0.2951406188590129
C -0.09657461762831017 -0.2557089765879812 2.770745791707871
H -0.20483493324380156 -0.22209164048717833 1.6519337718722507
H -0.6632233987653795 0.5575076273320517 3.209928422767914
H -0.4336514188497745 -1.220568485488223 3.13219175833986
H 2.3616444923218527 0.6273600330331276 -0.10670651895040191
Rh -0.20007630878414798 -0.04896462011558654 -0.09641123829063822
I 1.9496525536697817 -0.014902513522468372 3.226900234552439
I 0.19523356434800476 0.004523089394610278 -2.658933220985166
O -3.161433485167139 -0.03700436076982923 -0.4481300657824079
C -2.0174440616394547 -0.05118507575838254 -0.298010181564707
O 0.6158710889238371 2.8183060665256825 -0.5656909164836246
C -0.03601934020053718 2.0115521040125794 0.08073413245110805
