18
## STRUCTURE-ID: 645671df2e3fd24363462270 ; CHARGE = -1; SPIN = 1
I -1.681490438720355 -0.21800804917188665 -0.022376932070083583
C -1.4636535324387818 -1.9449753266893806 -1.34392876467322
H -2.2314828947605925 -1.8741399779187642 -2.104117934341619
H -1.5807137548404966 -2.8378360411776256 -0.7402552795526788
H -0.46836679570127354 -1.9042075854869809 -1.7735335782152828
O 1.9826438695129815 2.0284869576384654 2.4769315499745646
C -0.4594929657633855 0.9282791748455832 -3.0922785890251627
H 0.2557001536254794 0.22203471399682634 -3.459066234223959
H -0.12210336566157096 1.8956871208499653 -2.7854048634161783
H -1.5050424537358777 0.6995089261156662 -3.080350563730311
H 1.9528596114136796 2.9968026200666973 2.61409523259317
Rh 0.8462648377595705 -0.35669801601768103 1.5104294174591706
I 1.0909853944165526 -3.040343098057172 1.3431687604072318
I 2.1975928837221903 0.17651537017791355 -0.6884940713484432
O -0.05615619948001837 2.3491533690945716 1.6244813740691326
C 0.8570713702080172 1.576298991400681 1.8746539538663756
O 0.05598062071613502 -0.29997407197431575 4.385260039870869
C 0.329403659727722 -0.39658507769258583 3.260786482356448
