18
## STRUCTURE-ID: 645670843c65a43b7219eb6e ; CHARGE = -1; SPIN = 1
I -4.6931102481764375 0.7885219349826939 2.182896336399659
C -1.4864000911836992 -0.3780739068613689 0.6135448683737327
H -2.4240229463860103 -0.13925300116301925 1.1401868373030515
H -1.398663389294941 0.2735410168040831 -0.25674890266366823
H -1.525694375699316 -1.4159485999502641 0.28215225872962263
O 0.9811919206168328 1.5483637381254571 -0.4614490084214427
C 0.2270242573870104 0.057501630040644285 -3.0377480451090584
H 0.8286971191071821 0.09218977225898062 -3.9381833096518135
H 0.2770169560513598 0.9908966933723435 -2.48260935893989
H -0.7937642016444008 -0.24284989520824954 -3.243621132941469
H 1.0853191855363902 2.4329545471871454 -0.10013971227816178
Rh 1.426149026802021 -0.014586145126654357 0.6220265636144031
I 2.887520573283703 1.5096728842290492 2.2125631964493833
I 1.0973302984223494 -1.431225391084136 -1.7236090644813333
O -0.3903891312228013 -0.05632965771098244 2.7415727301353865
C -0.36883709357866384 -0.18871374417031878 1.5615955098676666
O 2.316840783051189 -2.3411820110436454 2.2791574174717977
C 1.9537913569282914 -1.4854798646817267 1.6084128161420987
