12
## STRUCTURE-ID: 6456667ce354852acd4975bb ; CHARGE = 0; SPIN = 1
O -0.0006265707638795509 0.09000245780740009 -0.24802677608197182
C -1.3837421187500687 -0.17970452505004392 -0.32484769188430007
H -1.8483324965913743 -0.1273580408609452 0.6659850023823355
H -1.4853768178094287 -1.1865647010829965 -0.7228736494147328
H -1.8827612679605565 0.5320265797831539 -0.9913901096080704
H 1.165375131584424 -1.367277739178709 0.2568405342123091
O 1.7969510470089174 -2.0883006322102333 0.39635334399993677
C 0.2782081732119084 1.3792980119153195 0.2537074497459541
H -0.1506254271707848 2.150587884820779 -0.39510195712745105
H -0.12311575993501662 1.5011282375201336 1.265796151032021
H 1.3606966771534632 1.4803565356221997 0.27570538166785824
H 2.273349430022393 -2.184194069086045 -0.4321476789238701
