12
## STRUCTURE-ID: 64566a7f394ca9183d29342e ; CHARGE = 0; SPIN = 1
O -2.377279651667631 -0.06723694697336662 -0.4335235537234631
C -1.2958932612129483 -0.9601076548464716 -0.2563352306201687
H 2.8919253055455822 2.7591943378833172 1.8565053419413207
H -1.6600515985595912 -1.9982291702959576 -0.26467166005698467
H -0.9025842815254117 -0.7433306423032383 0.7400519563743263
H -2.7114883201810835 -0.16624485674676884 -1.3341438920984674
O 2.736515487200236 2.0236765343678806 2.4547740644205085
C -0.20221641840471805 -0.7821896789860142 -1.302995655753224
H 0.64394698125811 -1.4173425204690655 -1.059019617831219
H 0.1284807332687777 0.2532666905544023 -1.3189100383296564
H -0.5675310726502752 -1.0501991124201455 -2.29245136935106
H 3.31617609692893 2.148743020235454 3.210719655028117
