12
## STRUCTURE-ID: 64566b1f2be20e59235c0b11 ; CHARGE = 0; SPIN = 1
O -0.7101768356457401 -0.48482245822096043 -2.966586406840559
C -1.285629441210767 0.25320909370629563 2.0360626029510485
H -1.7600312271737213 1.196722920077308 2.2720769586639995
H -0.7447121348674896 -0.10497967485980629 2.9021985916701087
H -2.0408024046144306 -0.4707270055076981 1.7590713161530966
H -1.5824479056200866 -0.14982539178167398 -2.7448695094288773
O 1.064317136650271 0.18193461591590354 -0.7037819958250536
C 2.22333878053565 -0.09476113194702633 -0.5617385128704979
H 2.775860347538048 -0.6939704267487731 -1.2979022114887886
H -0.5988117781102963 0.3905179080897498 1.21120716582827
H 2.7977980947459558 0.23572110235892327 0.3141243048672838
H -0.1387026322273385 -0.25901955108223135 -2.2198623036800904
