18
## STRUCTURE-ID: 64567290fd34191f2c2cdf88 ; CHARGE = -1; SPIN = 1
I -3.045544267562587 -0.25166981137523625 -1.6909163635533502
C -3.3307429952733454 -0.6027762622217421 0.40935398417941643
H -3.4725707907361616 -1.6664090726979317 0.5525207123578265
H -4.198350985958726 -0.039421459210163774 0.7264652423397567
H -2.431755859580185 -0.26141500256535466 0.9155114977897846
O -0.3663480286491441 0.698834610414928 0.8602162514844132
C 2.860338555435955 1.3132668110966719 1.324639464082113
H 1.790228644927628 1.1777502599847804 1.4584636225106322
H 3.0663040210618924 2.2127767236137506 0.7575100551813705
H 3.3761165613083204 1.3127072776821183 2.2753940932248784
H -0.5270970291006374 1.6422339181157817 0.7463530870552806
Rh 0.25116396867032426 -0.19275466972148297 -0.9142949170405136
I 3.569557331136126 -0.35890554654201007 0.17880923582745264
I 0.6928415871748395 2.163811697444272 -1.9877832981267822
O 1.1174267409476688 -1.4966936985735542 -3.456773361177657
C 0.7871477567644487 -0.9951150705415107 -2.469871121198243
O -0.14876133900924216 -2.8404612002533898 0.4111787504701593
C 0.010046128442845139 -1.8157595046498773 -0.09677693540652095
