19
## STRUCTURE-ID: 64568e5c61d88b0d63242a2a ; CHARGE = -1; SPIN = 1
O -2.077240081135839 -1.3794862043791187 1.3480135235839006
C -1.860780480207624 0.059256849622812774 -1.3336576755898168
H -2.8326778457315105 0.014341184117177913 -0.8347389358339761
H -1.6214282642868654 1.1086624342595466 -1.5302331736056074
H -1.952184195785529 -0.44550343784523255 -2.299547895801556
H -1.7996983052757012 -2.0121334403871742 2.01653552228878
O 1.4883118176561616 0.9921253039214266 -1.0369302123310002
C 1.56737158275684 2.0546338381568603 2.0394679462607654
H 2.0029989679938143 2.5518346008351394 1.1817692718709525
H 2.1236513755326167 1.1593722682568322 2.3009779900244296
H 1.471173758560059 2.721927724103791 2.8883372746395226
H 2.179061986333629 1.2426231766490516 -1.684791695628958
Rh -0.4427596950142494 -0.8154466713103299 -0.04685045477311939
I -0.45882956078698584 1.4306175569980701 1.4719087739250478
I 1.5206223604516345 -1.891119404762296 1.495466681406478
O -0.8711762040942517 -3.4099912954120177 -1.3932428985102128
C -0.6811630245755257 -2.3841946661814295 -0.909799255028556
O 1.3103069262919653 -0.7970187389028538 -2.335479261779726
C 0.9344388813173368 -0.2005010777403298 -1.33720552511733
