12
## STRUCTURE-ID: 645667186f8d141339304581 ; CHARGE = 0; SPIN = 1
O -1.1839927688563217 -0.13084098982077283 -0.3949426861043216
C -2.242346135959706 0.13965145740814172 0.10166523576150133
H -2.4654329119939655 -0.08013917048298942 1.1539624651403766
H -3.0488228814118696 0.6218814223465453 -0.4662606779539261
H 0.9407634135725506 -0.401521303317868 0.9955065685939596
H -0.5189811864532491 0.20570773130173478 -2.2344232592357005
O -0.20372129244755238 0.3635917728505603 -3.1347243262231865
C 1.7973279850700739 -0.21971159505407545 1.6311565515033493
H 2.483031972846482 0.44847997447733823 1.1268308751142617
H 2.296791999796382 -1.1559655553688424 1.842941903144436
H 1.4715708851970206 0.23262318913295008 2.5587261339723555
H 0.6738109206401697 -0.02375693347272813 -3.180438783713102
