12
## STRUCTURE-ID: 64566a8cbda5bb57b3092928 ; CHARGE = 0; SPIN = 1
O -1.2426557536631166 0.3801225146154607 -0.5448275201402946
C -1.7708614389270143 0.253936503212551 0.7589262185213842
H -2.8371626487045463 0.014154646247877292 0.7351066005993317
H -1.6162416797524204 1.1671405487244126 1.3405912181787352
H -1.2365978814995215 -0.5650749723182622 1.2369056828657417
H -1.7086658708441826 1.0872440642892691 -1.0067045756288924
O 1.2284405851722995 -0.957360777716693 -1.194022642651245
C 2.041853741766013 -0.31495462890497306 -0.24024548789968975
H 2.075760630711348 0.7664175489738299 -0.40661311029715386
H 3.0459068488810677 -0.7225382989256994 -0.3519518865653247
H 1.6920400927823762 -0.5070418165167896 0.7793211191508489
H 0.32818337407770065 -0.6020453316809907 -1.106485616133442
