15
## STRUCTURE-ID: 64566dfd20febf7707530d54 ; CHARGE = -1; SPIN = 1
Rh -1.4320595651731538 0.18242115257175923 -0.03827346310868868
I -2.6166386513392204 1.4711984546830892 -2.026136789351404
I -1.67506978752674 2.187403116780037 1.7498175829441027
O -0.7412254690272436 -2.025412298998951 1.8221509282525663
C -0.924029044201476 -1.0853820246123134 1.1600396923997205
O -2.2425141809182754 -2.1802656205099815 -1.4014947768279142
C -1.3414182224489544 -1.3579313158932982 -1.2506593653734392
H 2.582110622027688 1.7900647764848097 -0.9698165175971029
I 1.052328742516199 1.0887745962458035 -0.7208755009274468
O -0.17490883857914583 -1.5237709688102212 -1.920444680411317
C 1.8446570905811852 0.9526458305336917 1.2980617291332242
H 1.2155204634269978 0.25990582530621203 1.8471825968683289
H 1.7843414474937855 1.9413788992532046 1.7416295841517984
H 2.865131620697982 0.5932383497144149 1.2301740359143913
H -0.19622622752964794 -2.2942687727483033 -2.5213550560668705
