10
## STRUCTURE-ID: 64568d9a9e77543dac390814 ; CHARGE = -1; SPIN = 1
H -2.857268258856175 1.8653199876098667 -0.6139577105671997
I -2.6198740407774483 0.6019558900095905 0.3150433139245287
O 1.4608785524909322 -0.050431682701433986 3.2552448649880263
Rh 0.46290671233748454 0.042381501724942934 -0.3271495250613367
I 0.629853773374328 2.431828863059549 -1.3522773824527905
I 1.2538109685271772 1.1947070489958165 1.8664670667236418
O 0.8370910957275995 -2.4864614004942056 1.2176266633469544
C 0.6558198280681516 -1.5517084086103088 0.5743846064432374
O 0.020109727270027147 -1.289191367312425 -2.9712221944183073
C 0.15667164183792306 -0.7584004322813898 -1.9641597029267575
