33
## STRUCTURE-ID: 6456bc2c5827db3ee1051b94 ; CHARGE = -3; SPIN = 1
Rh -2.5335538621530835 1.2533470112502998 -0.5678583474096334
I -3.2868379710800584 1.6597560607694146 -3.071779633457831
I -4.506486740249526 2.6874010389678236 0.46281139533442867
O -1.533259325821851 1.1803500011601324 2.2328111248945164
C -1.9204049191816994 1.1718811395221118 1.127659001467275
O -1.1806540078144416 -0.9002065631524552 -2.009068002806426
C -1.2021502099054844 0.10549989516043472 -1.3768865336459204
I -4.601395627713248 -1.2903896661477068 -0.4063328792096724
C -6.40331718529559 -0.3187058502987226 -1.1592578270449392
H -7.12780570035694 -1.0981678459842545 -1.3540407277334459
H -6.128161628166987 0.21140414253213138 -2.0647913123449055
H -6.739179441194602 0.3773818936894375 -0.39869037156096904
O 3.5141185814658282 -2.401629303727886 2.4051686323641657
C 0.18319610105050782 -1.084380388372621 1.7624686237232436
H 0.8439891043433696 -1.9335932377598573 1.6141929533158943
H -0.6082828815636206 -1.1369233497050115 1.0140154267459798
H -0.25157257030631147 -1.1033750103096314 2.756436405000028
H 3.7114404435641215 -1.9034329956884506 3.217218920050741
Rh 0.5102634802140541 1.3012052975168522 -1.0205790930886758
I -0.08627547615382666 3.862198831897061 -0.5575371679933482
I 1.3093609858191113 0.6848749943206542 1.4738194655560457
O 1.16467760431118 -1.4978447055274755 -0.9670433135076555
C 1.5818990579639456 -0.3561304882937073 -1.1360755206824016
O 1.0363310475945466 1.0549277905950585 -3.937085505641908
C 0.8705086131263036 1.321823330345789 -2.819260245075479
O 2.9110325481961206 -0.15878907728203578 -1.3446594224188
H 3.388501061378641 -1.0130893841065198 -1.1707217932659915
Rh 3.836485964768459 0.30191298268975114 1.3549169058217632
I 3.4468196578402557 2.9136886298436027 1.552215159975967
O 3.6408870746325004 -2.268408889718064 0.20562455240490507
C 3.6936394969412563 -1.647643918829368 1.2675296583600764
O 6.801018863310642 -0.07116986170722957 1.463232390815683
C 5.66516786043646 0.09622749635048189 1.451547081057303
