12
## STRUCTURE-ID: 645669d8d14830447b3288be ; CHARGE = 0; SPIN = 1
O -2.6542409235451054 0.33629558989190655 -0.3620273664242755
C -1.9190633364550582 -0.4065303563217031 0.5895091341052121
H -2.4080209344261245 -0.20920562374470122 1.546923932090769
H 0.050866785531874244 -0.23579628710169084 -0.2862133213641844
H -2.00564816007218 -1.4816149775490166 0.37372285593075594
H -2.2198098495674694 0.24856935941821312 -1.2198382905873932
O 3.760253181030168 0.3531608139214646 -1.505224243470335
C -0.44990016152846074 -0.0047690076443512325 0.6518340364323202
H 0.044210416437385595 -0.5463338778958297 1.4529535816411807
H -0.3636289785059314 1.062464482931363 0.8407592498765044
H 4.319121599008964 -0.2925441496468468 -1.065297370806045
H 3.845860362091941 1.1763040337412092 -1.0171021974245191
