13
## STRUCTURE-ID: 645689ccd7f0353671324920 ; CHARGE = -1; SPIN = 1
C -1.4667802528755507 -0.8014099335367159 0.25407846959850133
H -1.319313546589639 -0.6461799691139949 1.329076852327462
H -2.2562674245969228 -0.14405571336721412 -0.11139319918717454
H -1.7614282882868915 -1.8416305454359179 0.07873443641540089
O 1.3384371593509106 1.2781621583537912 1.534634751791254
H 0.45897174040845573 1.201660450103806 1.9445307067629956
Rh 0.3607734389048789 -0.5804022415132805 -0.717365423271928
I -0.3689103687092288 -1.6086218801916006 -3.0229458751916995
I 1.7271167292386185 -2.6230897885297373 0.2306687446107149
O 2.440331530712254 1.1805838212714355 -0.38324854800041236
C 1.3915949546579622 1.0446541898749313 0.22398791765202375
O -0.5212909247048075 2.30796720073992 -0.6928274714142831
C -0.023234747510034466 1.232362251344604 -0.6679313620928613
