12
## STRUCTURE-ID: 6456671eb3b93849cf07102e ; CHARGE = 0; SPIN = 1
O -0.9619912644200542 -0.8513808625128861 0.17204394312606452
C -1.7023822558940387 -0.7621102285753063 1.11447250674981
H -1.731978602366738 -1.5240486405243554 1.9063185352544592
H -2.414003364060245 0.06930642009458779 1.2235753161082876
H -0.4850388190668751 0.4274713090086723 2.6592865258062663
H -0.31800626611829713 0.2083156087213945 -1.3932730249778964
O 0.2554111253137272 0.6820614969090941 -2.01565236721905
C 1.5856952057932638 0.2985206158337471 -1.7536105350178721
H 1.8908819490217352 0.5831777497361941 -0.7413706941178214
H 2.2136925447406632 0.8204550400365973 -2.4742001773160602
H 1.721391153055075 -0.7803679463304593 -1.8752870195662563
H -0.05367140599821993 0.8285994376027175 3.177696991170077
