13
## STRUCTURE-ID: 645673e24dbf0204b81f8bc7 ; CHARGE = -1; SPIN = 1
I -3.031649785517344 -1.8352356664004574 -2.8890856842383363
C -1.1592686996519554 -0.12743006793159647 0.9374256857000985
H -0.9118267706905032 -0.054191547954080474 1.9995080345515548
H -2.0936457245871543 0.4246051919616529 0.7743461966976573
H -1.344352451126367 -1.1880944731384675 0.7163400633190188
O 2.3164431811080894 -0.5524401104525573 1.3844915792123558
Rh 0.33522137113372374 0.5204648871042443 -0.35689370419062255
I 1.9910630252945731 1.2021809971317283 -2.378942936682487
I -0.6448719959917288 -0.4271586533120013 -2.613636897155368
O 1.3887633060046976 -1.7953793739676138 -0.2836374595265031
C 1.6334068948251643 -0.8839889719193161 0.46383896289750465
O 0.8564798725387052 2.8170834038317674 1.4578113537532011
C 0.664237776660114 1.8995843850467118 0.7884348056619062
