18
## STRUCTURE-ID: 64568b9258d73216f82fdd8b ; CHARGE = -1; SPIN = 1
I -3.306228690153099 0.18389640632180623 0.2167613420777166
C -2.274850489618773 1.7770293305084697 -0.7547187720183428
H -2.935479496298464 2.204236574216435 -1.4977124145886231
H -1.3861763236210665 1.362323719955798 -1.2198463768454264
H -2.000420955763759 2.5040000437457404 -0.000974079536868942
O 2.0905069319253022 -1.8957841702689342 0.22489422306297457
C -0.08894740778034353 -1.2111471690021824 2.448397619374828
H 0.17916201184598168 -1.3155193555744233 3.491460215997457
H 0.5159395841598516 -1.854631523480096 1.8165590576004154
H -1.1463906563071602 -1.380677423561193 2.2867369210155366
H 3.016586110695728 -1.8931710621713589 0.48651867086216816
Rh 1.5812968466703432 -0.2543102802165388 -0.8987293616514783
I 3.9629119457901787 0.8192314077459606 -0.5237707702428708
I 0.3546383988475271 0.8061348411333337 1.8579893801421365
O -0.7991745466583428 -1.825199068890621 -1.7944725456537618
C 0.10262712438018062 -1.2086728836111185 -1.4233888505839511
O 0.9582713276879419 2.0255365846768942 -2.7253555308686765
C 1.1757282841980117 1.15672402847207 -1.9903487281432188
