18
## STRUCTURE-ID: 64568adc1182341259390820 ; CHARGE = -1; SPIN = 1
I -1.9681938402785777 -1.5237010961675879 -0.031060178782837265
C -1.79588096850119 2.177282399158469 -0.9031795584947374
H -2.1201660377381746 2.125160742485617 0.18340473724829734
H -2.3283210955404985 3.1543076100224647 -0.9799107290559631
H -2.155043507555696 1.864275758112096 -1.9176698282477265
O 1.982152389974395 -3.1309993666230547 -0.42502533258185443
C -0.2863531762710767 2.4569250023093385 -0.9488932562434977
H -2.0421012586090685 1.0562764835166394 -0.6970776460213046
H -0.007479893758636487 3.0715751408737257 -1.8012260542766134
H 0.07365616946709848 2.8955408557099376 -0.02072039158024631
H 1.9355300628223762 -4.06549984194324 -0.6937975317099344
Rh 0.4803654356728056 -1.1000348399343662 0.9941822362586004
I -0.2972992171753677 0.9395507353845257 2.5803743756801207
I 1.0236030645701306 0.6147137451094847 -1.2151076726457055
O 0.8844528421273772 -3.947128642233445 1.3659631364110465
C 1.33847039820789 -2.941940443726308 0.7875467358914858
O 3.186627596753864 -1.9514058653714161 2.095441060705041
C 2.095981035832343 -1.6948983766828651 1.626755897445826
