13
## STRUCTURE-ID: 64568c7db9587b5588630f0a ; CHARGE = -1; SPIN = 1
I -0.12701063526684064 -0.584842222676627 3.0281241781089263
C -0.8524290815621909 -1.1784281041162885 1.1063637224228735
H 0.49452327948670055 2.134696260126589 -1.8803258908242473
H -1.7270665128858753 -0.5647093604532161 0.8942522112225216
H -1.1118929500696553 -2.236022708556916 1.1693823056659087
O 0.8923424895100404 -0.41546863851292043 -2.542133460224019
Rh 0.41076807876229343 0.7880121513975774 -0.8700786419401119
I 2.819306619824047 1.0474273139833474 0.22500411269587145
I -1.009234849054939 -0.5934185349652301 -2.6519085314371673
O 1.012197029342073 -1.919864201265808 -0.13588187683633746
C 0.29413946233202254 -0.9840363415233672 0.12386933052336367
O -0.7782751773071092 2.6323889804205667 1.1304223314859583
C -0.3173677531106242 1.8742654061423125 0.402910209136444
