21
## STRUCTURE-ID: 64568d75f70aa3247962319e ; CHARGE = -1; SPIN = 1
H -1.0847399873870174 1.1548998654781053 1.9704632173730185
I -2.099622703182715 0.03848038755701881 1.2520212974890539
O -0.8937178494899589 1.0723317707015323 -0.18876577517757917
C -2.8799140596753445 -0.914649453708695 -0.5538256937698999
H -3.435855849583054 -0.19152323530793117 -1.137521356503146
H -3.519375803666135 -1.716558128579345 -0.20950980248914958
H -2.047359321180425 -1.3101687799382 -1.1218815660687025
H -1.2762216905284531 1.1019388531856509 -1.0655691256864444
O 0.12477522811374216 0.033650648874832594 -2.899033180911994
C 1.0796348028701879 -0.21393197918108886 3.553854906875905
H 0.42216316886423644 0.44742008941524836 4.105740704598023
H 1.8357975511673588 -0.6527833951122815 4.1938839583287795
H 0.5159536280345456 -0.9812593506880383 3.031818973448562
H 0.09774693323168644 -0.23752193283864342 -3.837054114119225
Rh 1.5604376364139811 0.2864826052721707 -0.48706899283604616
I 0.7703418755435831 -2.114479236043089 0.191807085349823
I 2.126357297722388 0.9967859274740567 2.040144934122364
O 2.192259923574639 -0.7592122197828977 -3.106196373695992
C 1.362632403220743 -0.24121295772144072 -2.3568180652104846
O 2.8036366648353424 2.5046608230606124 -2.0460630665364317
C 2.3450701511007117 1.6966496978824623 -1.3304279645804384
