12
## STRUCTURE-ID: 64566a760357026414112990 ; CHARGE = 0; SPIN = 1
O -0.8173296950835887 -0.40320420854494843 -0.16374295769434657
C -1.3491200643888182 -0.08318913035563305 1.0580561477692536
H -2.2346226067828256 -0.7079460510500348 1.2479165711950349
H -1.6796237938543244 0.9683887656288394 1.091835231955828
H -0.640084469286266 -0.24942254907166028 1.8861606732997063
H 0.4066645031647089 -1.1275008500251433 -0.2625839985585382
O 1.4094773654736539 -1.0792409291439309 -0.5270794256860956
C 0.8194065889197749 0.8177219458404603 -0.6827899717449842
H 0.4899678524062807 1.3479576250106444 0.19439002170903935
H 0.2204643477335023 0.9726425122639374 -1.5622516043727332
H 1.8854985292651074 0.9156935365475519 -0.837575916170043
H 1.4893014424327833 -1.3719006671000893 -1.4423347717021067
