12
## STRUCTURE-ID: 6456649d9e591b3d87248aeb ; CHARGE = 0; SPIN = 1
O -0.9301115583661534 -0.8809718140990325 0.31597933907187814
C -2.067109209658228 -0.08912594971304845 -0.08336277777793528
H -2.30500525066688 0.6853722922634417 0.6454880818332084
H -2.8912222079321723 -0.7965924852518679 -0.18789686103591358
H -1.8495468361980028 0.36174814769545477 -1.0513078270086131
H -1.0776817139276642 -1.2704759666755046 1.2222090114075324
O 0.2762661613393581 -0.04256173823403678 0.5409259022787016
C 1.1633233994127952 -0.1288067876324234 -0.5320643253574475
H 0.755052053865591 0.302501789842705 -1.4483863305829978
H 1.5157409527997965 -1.1495398219862183 -0.6922464719259217
H 1.998591699765087 0.48590693031328985 -0.18945757330507895
H 5.411702509566504 2.5225454034772072 1.4601198324025666
