12
## STRUCTURE-ID: 6456698c405b7b6d1a0b3f74 ; CHARGE = 0; SPIN = 1
O -0.673554698089489 2.161027130887714 -2.8424493733901084
C -0.4759152197639552 -0.708688757905363 2.4240040994809884
H -1.2776701723255108 -0.3054483532841084 3.0286670810998415
H 0.46168570020194255 -0.6037202452415474 2.9542975471183808
H -0.666075348549555 -1.756132596686675 2.2285959420486647
H -1.2112451660289145 2.7792396455108466 -2.341808884360373
O 0.37985754372526537 0.1518123505903608 -0.9671629214180891
C 1.1634692295037719 -0.7306578236697663 -1.184607949985698
H -0.3632558904791476 1.499955774943674 -2.208195273512123
H 1.544831588117621 -1.3798500872874122 -0.38496689511152965
H 1.5431970214139612 -0.9389995178675401 -2.1939331848467605
H -0.42532458772597914 -0.1685375199901639 1.487559812876788
