12
## STRUCTURE-ID: 6456690850eb3b65321fea81 ; CHARGE = 0; SPIN = 1
O -0.24684947813319463 -0.8778191176196682 -2.990285218540178
C -1.5667106472361974 0.4439263304186081 1.788243994049934
H -2.271120992929701 -0.3457316740790424 1.5617882502176577
H -2.076462664686471 1.3982070380381555 1.7690332614900341
H -1.1464028878532317 0.27994717990474166 2.771917304996127
H -1.1659125761906048 -0.6132584496636938 -2.903828470787393
O 1.137224046079835 0.11852425641452054 -0.5710736634376258
C 2.269346308500059 -0.04707271086161799 -0.20911751542779483
H 2.979193043449014 -0.6661106404131535 -0.7746806733165933
H -0.775102515904585 0.4424919428600264 1.0504741268865254
H 2.659725399876416 0.41046316043176617 0.710013997636815
H 0.20307296502867397 -0.5435673154306454 -2.202485393767526
