31
## STRUCTURE-ID: 6456fef1b3f3d5532b5c71b3 ; CHARGE = -3; SPIN = 1
I -2.333761949985558 1.5616101040385848 -2.6033297759462632
O -6.42162296190011 -0.4929707594429646 -0.5052758945434931
H -7.161833945435576 -0.059213239879345 -0.976443770765813
Rh -2.2154136645980316 0.7596807945339925 -0.13741050783329095
I -2.8789772698147726 3.096972408890265 0.8346751247574561
I -4.993837374199644 0.8443182543098532 0.019371069332233423
O -2.3267308638323057 -0.9703441756153188 2.2723969560464115
C -2.2194108087487163 -0.164451810445025 1.4434361066938477
O -1.7775676310572697 -2.1058805446026296 -0.500989907404648
C -1.490424972049043 -0.9132365511840028 -0.7042265089790223
O 0.13189943558467396 0.2964552095750873 1.4709983072654242
C 1.7979122399108785 3.751971119810618 -1.9513434727150014
H 1.0140529947759098 4.511254918621804 -1.895148135112427
H 1.9404990811326446 3.3912730828665296 -2.9687663670404123
H 2.7324150434082077 4.093145947230456 -1.5077575586909675
H 1.7786204895368816 -1.1228630168284794 0.4107421980913977
Rh 2.389996765415387 -0.26049694005168883 -0.6460935792439401
I 3.895630317510079 0.31763530621816216 -2.6533259749788956
I 1.040811842658439 2.019306440766089 -0.6705414968774509
O -0.2509415036833387 -0.6844843980536091 -1.446297944704684
C 0.6171025777435295 -1.1671180920563748 -0.4601386294289618
O 3.2175824430212865 -3.0615636440483023 0.028541630359820963
C 2.974712792615619 -1.8888002920130762 0.05523966836815354
O 0.6872536683405914 -2.5984902507662073 -0.6338790558082908
H -0.2653456468513636 -2.880224988472194 -0.5993932621301343
Rh 2.3237464220170816 -1.1243760334721966 1.7879154814964253
I 4.0038262594241365 0.8686892442300103 1.7528867345316532
O 0.005973451488956487 -1.955806112344766 1.658646399970465
C 0.23628674158118243 -0.8893626086786042 0.9758494792569062
O 1.370482036721188 -1.5048222165261045 4.4827480337233485
C 2.1770639892691945 -1.6678071566105643 3.6669146523103064
