21
## STRUCTURE-ID: 64567c50057a5432855fdac0 ; CHARGE = -2; SPIN = 1
O -3.280417176533404 -0.3693490201165724 0.2066593426307272
C -0.5245886157415391 1.52930696071351 0.7614237722387788
H -1.4029223643668924 1.403217263647071 0.13228835311608864
H 0.3151149021787116 1.719973206982533 -0.3859729312460304
H -0.6336388185107596 2.4505862668019125 1.3314104238466773
H -3.81898878528735 0.1876933161703605 -0.36525118848945376
Rh -1.8561690478525281 -1.507421207902533 -0.7102957588203621
I -0.7759311687669379 -0.10062202533468809 2.1717381293162012
I -1.8190092093674268 0.19881524545545237 -2.7202521373929964
O 0.24899829325816375 -3.157031364971068 -2.029034805267524
C -0.5617450719112275 -2.503190974088621 -1.5167115359563474
O -2.2280730807825777 -3.9715874239521245 0.9294375026960112
C -2.154745692358257 -2.9556641595208646 0.3796308432267463
O 0.9816319794920391 -0.6754499685918844 -0.27422120907285086
H 1.620223476886775 -1.283922515688335 -0.6543708693627274
Rh 1.6444797709944523 1.2688263546148735 0.25275306282606175
I 3.210663534962791 1.533062539928159 -2.0571311955943883
O 3.4698026529335015 -0.829062166454432 1.4015967575988217
C 2.8933129798197403 0.14754759601843004 1.217053479445717
O 2.516106748948327 3.9801021414423206 1.1214333061059478
C 2.1558946920044217 2.934169934846402 0.8078166581548675
