13
## STRUCTURE-ID: 6456889aaf9447416e75cc20 ; CHARGE = 0; SPIN = 1
I -0.951668189795086 -0.8835636205036342 2.607980529207096
C -1.5002643612422366 0.587809795838399 -0.7648897429742729
H -1.4620072103809194 1.142595146326689 -1.6924645429635372
H -2.364173111948701 0.788238849530955 -0.14297089824773482
H -1.3953506519901375 -0.4824878508354774 -0.9491753958420016
H -1.1849245183323165 3.079131277336255 -0.18360034903040778
Rh 0.6511142202872803 -0.48857828146264837 0.5122136101514705
I 0.008035791264932613 2.1714754284856057 0.4559115181814706
I 2.801923711426898 0.6507205380318721 1.933386601090148
O 0.5505602468810015 -3.5031056521955475 0.54782446817649
C 0.5299149982074435 -2.3683227013143524 0.4251628976224568
O 2.537021535603096 -0.31597730263290047 -1.7998308316306182
C 1.7798175400187501 -0.3779356266052122 -0.9495478637405823
