21
## STRUCTURE-ID: 64567c4b2025bb55ec3d7d7d ; CHARGE = -2; SPIN = 1
O -1.3304261564187116 -2.4084512314159365 -0.15256008213967565
C -4.023712402175071 -1.1593191833064707 1.0542228661499315
H -4.003741258473161 -0.7993190614993367 2.0757049979031925
H -3.326830682844068 -1.9799945016793405 0.9234823058012248
H -5.021509546188754 -1.4189357093920905 0.7273653858121363
H -1.0391192732624788 -2.9776142227302183 -0.8673377369421852
Rh -0.3151844074120397 -0.5085315475201585 0.08170012185234464
I -0.6080675593377545 -0.5727328290972435 2.71679586433002
I -3.310085845785192 0.43772283133963347 -0.21447320274914394
O 0.3802157827358527 -1.0023827413759694 -2.760300519610977
C 0.15051015583412575 -0.7191643315788336 -1.6566345805189235
O -0.0969529808009269 2.3608912803861166 0.665760503881311
C 0.33129580098932404 1.2862211463336617 0.4038017903132105
O 2.3014356210942797 1.2866397579210813 -2.2279172764077013
H 2.444358808573675 1.9357749257702375 -2.9467347763950835
Rh 2.1439698892629737 0.4303753985836223 0.30036103699586325
I 2.9861711351957476 -2.06954356394999 0.5567332449638723
O 2.326483508182608 3.100263117035015 -0.9278237352649454
C 2.2497816532380184 1.8888314289718924 -1.0043640698758063
O 4.217858740512451 1.6858678821018322 2.030812500854681
C 3.5435490170791413 1.2034011551024302 1.2214053610466595
