12
## STRUCTURE-ID: 64566b5de1397502e77b9256 ; CHARGE = 0; SPIN = 1
O -0.7648104357472374 -0.2754104950579409 -1.3806628098930296
C -1.1908368644760023 0.008259252514692998 0.6615904015149408
H -1.4399465470302364 1.03030035363656 0.4322305217316402
H -0.9328894770912259 -0.1202187670228412 1.7115533953846034
H -1.9252205623970327 -0.7171763013910801 0.3556849666712823
H -1.2409797710056323 0.4645536187158017 -1.758206495768215
O 1.5028515482281468 0.5167941882486371 -0.8861383567472142
C 1.4325288345521754 -0.13669508614964263 0.30712266492435125
H 1.7746917396517723 -1.1781602344588427 0.268443734747016
H 0.27087656093185847 -0.21674353199364293 0.5180072015065869
H 1.9124324977421432 0.42441660824798794 1.1104554313375334
H 0.6013024766412783 0.20008039471031577 -1.3400806554095002
