12
## STRUCTURE-ID: 64566bb2c7db4a184e5c71bb ; CHARGE = 0; SPIN = 1
O -0.06994962326378334 0.29342264128855466 0.061773374209856444
C -1.2502295806093395 -0.2798732919354583 0.5815747643515878
H -1.6287950829155522 0.3081377090357993 1.4244048885166034
H -1.071947330496283 -1.3082612003432168 0.9145760977477415
H -1.9804888574276582 -0.27852593976897766 -0.22423149646677723
H 0.3575823024584087 -0.2364817252270078 -1.728355297594465
O 0.5306310884307295 -0.39915235566497786 -2.6680199219006098
C 0.9741336013127442 0.3498146976426221 1.0095681311626898
H 0.6854634947123053 0.9606509581105699 1.8717457541513205
H 1.8267095986591453 0.802946480516935 0.5092341750886925
H 1.2410703448795932 -0.6544064820815189 1.3566887846497786
H 0.385820044259698 0.44172850842668543 -3.108959253916425
