12
## STRUCTURE-ID: 6456685d03b3ee0abf671006 ; CHARGE = 0; SPIN = 1
O -1.1926816587551143 -0.5801802977708228 0.09667916860055799
C -0.9595987141186888 -0.1322099517278338 1.3635383533693108
H 0.06947328568827553 0.3260321167959229 1.3249077843908073
H -0.9176833751234725 -0.9548901097218095 2.0833213916131346
H -1.668060933266668 0.6447209034548003 1.6641499543585703
H -0.33449071221174365 -0.2697646761577292 -0.5342601685766737
O 1.4860645087924922 0.44201913284674593 0.39239838366231683
C 0.3620401664626547 0.18534955773935244 -1.5587214824731033
H 1.2361226683770914 -0.416317454822373 -1.7401099893151435
H 0.560994216158008 1.2408945810258512 -1.4868624046012586
H -0.47833191890132876 -0.05967832778939575 -2.2049146658772565
H 1.8361524668984786 -0.42597547387270235 0.5998736748487861
