12
## STRUCTURE-ID: 645667d959ffc53e9439082b ; CHARGE = 0; SPIN = 1
O -1.7154451654019407 -0.3914498257177394 -0.9767366956742325
C -1.0069218174718473 0.5299745154065395 -0.20829134394704574
H 0.6814244310842297 -0.6099654005043144 3.3234354897732796
H -1.5328571836430855 0.7666705094477848 0.7274250604984237
H -0.9274198885228192 1.4348895189965558 -0.8286717291214976
H -1.857444830228679 -1.197952346921438 -0.4619891973817549
O 0.2542184554057108 0.07535433778735626 0.1816779200668642
C 1.1819640343480264 -0.029488337222547383 -0.88603807928192
H 2.0897813675992967 -0.4499114017114115 -0.4610447674734406
H 1.3894076210816453 0.958788166486721 -1.309335958731635
H 0.7986317231682809 -0.6840008745561605 -1.6732989678434063
H 0.644661252581175 -0.402908861491335 2.5728682691163542
