12
## STRUCTURE-ID: 6456883b805ea828ff2cdf7d ; CHARGE = -1; SPIN = 1
Rh -0.26629431188237274 -0.4012089264191056 -0.6075081610517572
I 2.0450082393091042 -1.347844711244049 -1.5913337232638243
I -2.6576483851791286 0.22686459049337615 0.46095894633449275
O -0.0755784777457294 2.322030052673706 2.089920112960361
C 0.3947624752420005 1.311960831939737 1.8214757876194172
O -1.598467813384664 -1.1811753706246138 -3.134648649895428
C -1.0860756127813664 -0.8922092707315087 -2.1491601965276415
I 0.16124376307256072 2.094445011888327 -1.625654402993333
C 0.910288785684912 0.1477745337590105 1.461064637269572
H -0.4725841503442201 -1.7836951000438899 -0.0037810386141984413
H 0.6878057668472202 -0.6900851980304619 2.1210706539706115
H 1.9575397211616803 0.1931435563394716 1.1575960341917249
