12
## STRUCTURE-ID: 6456884c5b5e7a1a53462270 ; CHARGE = -1; SPIN = 1
Rh -1.2393235911544929 -0.9841341023316732 0.26933039301336875
I -2.353147479101468 1.0667692553181192 -0.9468360529374652
I -3.3920462373919515 -2.3566248568850847 -0.09872185987510106
O 0.5522257300860202 0.5318373845972363 2.0965956647950676
C 0.025929648500113433 -0.042028632393083694 1.2180313311573625
O 1.1951631276876697 -1.1313631677496503 -0.7807187517465839
C 0.6714049792571886 -0.1336784743287531 -0.3208835800980561
I -0.20056609141954335 -2.9210968331377556 1.7936010293918379
C 1.088351294010548 1.2494230816359206 -0.7226400191659925
H 2.1551583867279316 1.329326832042257 -0.5072900335628316
H 0.953262485796856 1.3599277859905863 -1.7989051859651541
H 0.543587747001147 2.031641727241854 -0.20156293500646177
