21
## STRUCTURE-ID: 645677775b26971043671000 ; CHARGE = -1; SPIN = 1
H -2.3436626029438927 1.7365781248642542 1.5723793361301082
I -1.7235573322786941 0.21201164866259645 1.8948679426000234
O -1.1164802790470774 -1.9441699698558108 1.9823416267494371
C -2.230063862179733 -0.21420069417941098 -0.13255946889388473
H -1.8834885554425647 -1.2180751119719448 -0.3398796152407367
H -1.723712240797849 0.5161558336812058 -0.7541169189140271
H -3.3060074140023694 -0.13834177488334923 -0.23255080912527332
H -1.5388286064048609 -2.4102619941081516 2.704940489037032
O 1.3059481341205812 3.333214521598814 -2.286381716574421
C 1.1687796919306868 0.5877813930346331 -2.3647843352126983
H 1.150860149710821 1.3298683930831403 -3.147813846595836
H 0.261430092744373 -0.006085579293828804 -2.3673415328761327
H 2.0391566783075445 -0.053217642984036556 -2.458596398056903
H 1.397413964264397 4.200022043079717 -1.8921291002256608
Rh 1.1777868037916734 -0.3634339502644699 1.1715978535307066
I 1.9331799786206545 1.420841301544764 2.928669393842932
I 1.3206144888932982 1.6369995912798596 -0.5181941922684773
O 0.8538608412055207 -2.4403306184098437 -0.9429076632182203
C 0.9623430068072236 -1.5894548892856073 -0.16402664303124181
O 1.2363740233186993 -2.7778912197788093 2.978797760304488
C 1.0580530393815701 -1.8180094058138205 2.367687838038709
