18
## STRUCTURE-ID: 64568916312f2733df6a6024 ; CHARGE = -1; SPIN = 3
I -0.3291712323788645 3.238840075828001 1.695153593697132
C -2.0067078274720793 0.7128706326459919 -0.31606260547383974
H -2.3875604906861723 1.0170482189416803 -1.2948411622760596
H -2.5608024349252996 1.262125110026066 0.4512900636385303
H -2.2217793806395436 -0.3502194621975469 -0.18432497228097391
O 0.12531251535446003 -1.4636921919211192 -0.9133702994068366
C 1.6606818855679597 -2.099283646840713 1.984257441473629
H 1.5009140673005152 -2.964583642763613 2.6157769707189025
H 2.569742951977091 -1.5697553071963335 2.246165911191385
H 1.6592802570843914 -2.3619843410569485 0.9336371370170684
H 0.11663062468781259 -2.14697320951892 -1.6151756909822625
Rh 0.07412496668588683 1.2250479300020165 -0.06609550417268174
I 2.7490469561266604 0.8783260248163686 -0.11527913732897536
I -0.001815638485819618 -0.7457157656383429 2.304045016112475
O -0.0373872686591634 -0.04590069686350521 -2.6194155421633676
C 0.028557600211179732 -0.22487923380719793 -1.4185147850576916
O -0.908227829860192 3.031979388027168 -2.1597959597704026
C -0.030839721888317365 2.606750117517199 -1.5274504749359625
