12
## STRUCTURE-ID: 6456883f4754b152b156edda ; CHARGE = -1; SPIN = 1
Rh -0.6199688464228144 0.46465598694029236 -0.002045696000627614
I -0.09418083376188317 2.8026534001219434 1.3390432500889637
I -3.353272260368597 0.6475724913305075 0.14222860441475998
O -0.8865835629233859 -0.4377221403572219 2.8357851625124866
C -0.7429076212411688 -0.125939766185396 1.7473553069751473
O -0.3340980709212909 -2.157726232006059 -1.410573116071776
C -0.33921045617783496 -1.1486265816721528 -0.8578236150367728
I -0.510038622511353 1.5506678575839616 -2.461518385981709
C 1.4325723195458142 -0.37902716685794746 -0.3301551367379072
H 1.7302867997548679 -1.2221616866475489 0.2922199466383163
H 1.923048615712786 0.5262339269664273 0.05369179470518814
H 1.794352539314862 -0.5205800892168011 -1.348208115506061
