12
## STRUCTURE-ID: 64566db485e93a4b1e12b095 ; CHARGE = -1; SPIN = 1
Rh -1.5678670523320637 -0.5103653548404038 -0.019829789232141824
I -2.4806290595389178 -2.0865936345477345 -1.9585669161181696
I -2.3488091612536626 -2.114545088465133 1.952493012866632
O -1.0050130507244028 1.4728597274592286 2.1396118129880386
C -1.2069518560278722 0.7082751751508669 1.3000615109165243
O -1.123134851496877 1.5020170504211452 -2.1799097180468148
C -1.2807404478267563 0.7248431369769017 -1.3424457552952347
I 1.3870288632701206 -1.6814859365133803 -0.11758773918587909
C 2.302973970278378 0.27228146607019615 0.038536466797401324
H 3.373171539550549 0.1411060353730534 -0.059495493008254116
H 2.0436396807112547 0.6831230702354355 1.0071318226002741
H 1.9063314253902524 0.8884843526798465 -0.7599992152824053
