8
## STRUCTURE-ID: 64566462362fc2175a4609dd ; CHARGE = 0; SPIN = 1
H -2.829954424898975 -0.721589899474353 -0.2867143072334978
I -2.603969764047513 0.2721052741558019 -1.4840744054121386
O -0.5177647229818676 0.2547258191762724 -0.5637878473034147
C 1.2113696594794165 -0.0017668618121114282 0.5333847493415226
H 2.1403600286316466 0.4731038812347462 0.24140069584792606
H 1.2466231089981914 -1.0779743888905562 0.47382574483720624
H 0.827795133956859 0.3564464517173946 1.4755168850584137
H 0.5255409808622441 0.4449497238928046 -0.3895515151360208
