12
## STRUCTURE-ID: 64566a8ffc55ba7fa14f7348 ; CHARGE = 0; SPIN = 1
O -1.2992622838615373 -0.20110599723377717 -0.7782015796388793
C -1.793464341725778 0.3856254589914361 0.40952413745839833
H -1.929847489184368 -0.3624657811397989 1.1955151065223095
H -2.7394061837020183 0.9031249423155292 0.2324319789993767
H -1.0500811185157197 1.1115366636883013 0.7339800019742744
H -1.9531840219847476 -0.8258235692251991 -1.1145129362173496
O 1.4220388240871589 -1.0647721996995407 -0.5977804117265876
C 2.0723324718094416 0.010450614959723513 0.03704582998510251
H 2.020514779275134 0.9226923512837025 -0.5660184501463474
H 3.116810970769809 -0.27482918664210976 0.1579280800663338
H 1.643503231122668 0.21049780759246564 1.0249608388227935
H 0.49004516190996306 -0.8149311048907175 -0.7348725960994389
