18
## STRUCTURE-ID: 64568be796d4b20e3b5a851a ; CHARGE = -1; SPIN = 1
I -3.7379267282726873 -0.7896083605214086 0.2568299778577642
C -0.42394684465736243 3.6629321276501448 -0.38058352352024616
H -0.9193600249697464 4.206313570072149 -1.1780884055629663
H -0.8259909263150932 3.9664586149954038 0.5841230178597508
H 0.6445394999970678 3.863231620090421 -0.38483281337767133
O 0.7389237884897625 -0.37463528353912795 1.3350637211552105
C 1.5761131545518956 -3.5235215252728564 0.420813874955626
H 1.994204962148915 -2.537776394850217 0.5797646411840645
H 1.5318909311442375 -3.7532168369398278 -0.6371240217855798
H 2.1185710655325973 -4.281410863359535 0.970071134486293
H 1.1852894695872926 0.3471830305335567 1.8177966760031334
Rh -1.258713028290595 -0.9609137083552584 -0.5764333265058734
I -0.4449873228782328 -3.480914303639075 1.171025028271557
I -0.08789711505816611 -1.7852897623594928 -2.76497813561375
O -1.3633545757100658 1.6870218719231294 -1.4011834512852361
C -0.6568438556937459 2.1970327523354554 -0.5609392753867349
O 0.027440404911775195 1.4716235862702505 0.3458350864564946
C -0.0979528545178842 0.08548986496628655 0.40283979480817295
