18
## STRUCTURE-ID: 6456735626b72257924609dd ; CHARGE = -1; SPIN = 1
I -2.60075323013399 -0.20333863269074584 -1.3818399742064094
C -2.23165003124682 -1.341672639810037 0.37316284339556166
H -2.9485405362680868 -1.0432053808900064 1.1273612757227
H -1.201633068631894 -1.1291663608921292 0.7048699190290788
H -2.3242230143227647 -2.3899507781372784 0.12137751471294406
O 2.9044733592888505 -1.500635283701868 -0.6432207340065672
C -0.32390124580057383 3.2933305202181016 -1.0948790374780946
H -0.3481681629946504 3.5935976060139674 -0.05258703580723101
H -1.3026241531653746 2.96523463172169 -1.4286518440541875
H 0.07051744627122115 4.077927068726069 -1.7285066273444902
H 3.1438442902566734 -2.226273272917211 -1.253247446483739
Rh 0.8834835976685259 -0.07084558148628847 0.7707742413884235
I 1.0297092206086573 1.5811525806285682 -1.262297078517132
I -0.3448762054160869 1.624577653396505 2.3906868489582735
O 1.7894920329840807 -2.141095388503418 2.7158118459574783
C 1.3863362760540479 -1.2997852683421554 2.0153038066341122
O 0.8549399351701009 -2.3182068747896745 -0.9598720007984834
C 1.5635734896780913 -1.4716445985440778 -0.4142465171022473
