12
## STRUCTURE-ID: 64566a795e07cc25444f7351 ; CHARGE = 0; SPIN = 1
O -1.3848199125274017 0.05348847415655197 0.22062079745411978
C -1.5869374283828281 0.51120895203081 1.3177409182061621
H -1.2821391553683164 -0.008718088994743096 2.2357992766664725
H -2.193943251305236 1.4123968759787702 1.4756525750841547
H 1.0049530759807785 1.3445595418215492 1.7414831959216164
H 0.16024459353714526 -1.099660354236834 -1.355974669315121
O 0.2021093987039863 1.8720390506384221 1.6718398185960814
C 0.9883601132169425 -1.5223007322812552 -1.910596724250331
H 1.4315783592807858 -0.7595013022867421 -2.5374168499695564
H 0.628564668007624 -2.3325804804573997 -2.5311354850030754
H 1.7316241442645257 -1.9009149170723565 -1.2210436511254654
H 0.30040539459197596 2.4299829807032323 0.8930307977349331
