12
## STRUCTURE-ID: 6456689519929b6dc461a6e8 ; CHARGE = 0; SPIN = 1
O -1.1748705397508485 0.033817555998877306 -0.9803162051796015
C -1.848329477043101 -0.21364336115243812 0.23812418189480516
H -1.8362022192077547 -1.2780940597799249 0.48971603387099955
H -2.881656396504509 0.13945733941117106 0.19798295709742803
H -1.3157826161130373 0.3403671734400435 1.0091412703687137
H -1.6449606019630874 -0.41397733885348803 -1.6940023647906903
O 1.6591552773555043 -0.33417440358374817 -0.7938333385173
C 2.002820225384291 0.35097189859224465 0.3871050172558486
H 1.4855227076471 -0.06736709971494763 1.257451868715023
H 1.7718461237565377 1.418682285334526 0.3138371602302884
H 3.076804081350969 0.23005862261213483 0.5246974525708346
H 0.7056534350879431 -0.20609861230445944 -0.9499040335163407
