19
## STRUCTURE-ID: 64568df5d944d505ea29341a ; CHARGE = -1; SPIN = 1
O -0.9408278695384191 2.3269379850391196 -1.242194895957443
C -0.051758597770062025 -2.217662483897441 0.8662967727139205
H -0.39693290867251624 -3.147006258173882 0.40943842637229166
H 0.897515418789206 -2.4078931466699593 1.3866042110390646
H -0.8076182396400682 -1.8750875558035505 1.5784287011006146
H -1.0597599966923779 3.1413338960120973 -1.7514410953984412
O 0.8492314358372272 1.1291708592792933 -2.068640216379775
C 0.8780500078230118 0.4366045483359093 3.1903219374282985
H 1.8389375280335993 -0.05148862235859666 3.077212297280587
H 0.1230423067703116 -0.25866904380541306 3.539004528043802
H 0.9500461252024668 1.2957337053686666 3.847890367495977
H 1.2270016323275008 1.3940827068263448 -2.917882796841306
Rh 0.3444430577250859 -0.7750503679046633 -0.5221251831094534
I 0.24376130422602427 1.1853231528174808 1.2073141314726896
I 1.0250677387335028 -2.4957177241307624 -2.324846686197045
O -2.2978722404605065 -0.36665693494893387 -1.3544576243101527
C -1.1671878192426017 0.02013590542697313 -1.4112800074663079
O -1.04494474641212 1.4100914418459836 -3.3483036427448853
C -0.6101941370392506 1.2558179367413416 -2.161339224542414
