12
## STRUCTURE-ID: 6456676ef2563b5b315c71b8 ; CHARGE = 0; SPIN = 1
O -1.3225900660152905 -0.44412269238314106 0.3139197303979932
C -1.0661508184367712 0.09025683002014868 1.5960920584866707
H -1.1632910289370548 1.1796000896249823 1.599481595714827
H -0.041257409777288555 -0.1756968822231211 1.8484336689223042
H -1.7363739862059422 -0.33648693058610674 2.3467228261364417
H -2.2333926201223737 -0.24584537387005778 0.06561772347453942
O 0.9656010426713338 -1.0555714645854588 -1.3248306156762175
C 1.4958175183794644 0.24768660867844575 -1.392035195259897
H 1.7494791766864872 0.6289416186374658 -0.3974945996556335
H 0.7961339925400079 0.9401695801787667 -1.870783166424255
H 2.403997426460786 0.19131994564480811 -1.9910149617724957
H 0.15202677275660345 -1.0202513291367517 -0.7941090643442416
