16
## STRUCTURE-ID: 64568de62a89460e8b1a561a ; CHARGE = -1; SPIN = 1
H -0.4661023407041424 1.6525326176533015 1.0725991981390426
I -0.6819475333223435 -0.08018915402082522 0.778893236510504
O -1.3992198001649965 -1.8846976467876035 0.0289171749237461
C -2.3728901444634185 0.6756328002868529 -0.2818076904719026
H -2.0245943931428414 1.4184924182045897 -0.9888189567391673
H -3.0416979386534297 1.1188625783059596 0.44636020983355507
H -2.830294126447167 -0.16865018483154134 -0.7794336749882153
H -1.0418859417265351 -2.585399127592732 0.5705933691143498
O 0.6169759379440595 -2.246227648053514 1.9952613319327919
Rh 1.5647734061407412 -0.13833312433703962 -0.5793767321017111
I 3.44791383667726 -0.7936995882048797 -2.2974520726376166
I 1.9760538576562234 -2.3900609425036845 0.6900924874691877
O 2.014160720431169 1.0641661947652101 1.96501388330806
C 2.6471813872363246 0.844975279900963 1.025080324107062
O 0.5651925752174328 2.20022401743685 -2.1050905925789967
C 1.0263804973216775 1.3123715097780777 -1.540831495820659
