12
## STRUCTURE-ID: 6456692f72ab7823160b535e ; CHARGE = 0; SPIN = 1
O -3.31581041186432 1.222968140912797 -2.361987893980245
C 1.0620396577055613 -0.5790710233753704 1.9658368385104523
H 2.0742494756660053 -0.227111311347515 2.1597560846319093
H 0.3393774469948442 0.15973763345942157 2.300343979426747
H -3.6373173265336747 0.4379353106014359 -1.864318691504248
H -2.604510070829174 0.9777229432655915 -2.995076770371669
O 0.13616468597332354 -0.3221999121911346 -0.22706294513539688
C 0.9327751601996858 -0.8442969860951648 0.5107794663084612
H -3.02140213087458 1.938037244746979 -1.754282845532605
H 1.6441710650646835 -1.5980212101040832 0.12422623081647283
H 0.9393726580331844 -1.5119067167370899 2.5125507200556974
H 5.450889790464468 0.3462058868641341 -0.3707641732255874
