12
## STRUCTURE-ID: 645667153532014e3d493a7b ; CHARGE = 0; SPIN = 1
O -0.07308787602558509 0.12621961682606006 -0.5810790063782497
C -1.2614660933143562 0.26879015518566496 0.13502227475502215
H -1.5308128099973435 1.3167979994423997 0.2795783395792787
H -1.2475111839389246 -0.27516799420734356 1.0816858252174015
H -1.9892855693533276 -0.19629330559225452 -0.5335167412873952
H -4.835994529447285 -1.6338140534674168 -3.398057575148258
O 1.0684874818369607 0.7567024887770029 0.13232472193621395
C 1.9241200030339412 -0.22796788787904887 0.7466600207616894
H 2.733427413381794 0.33902466377954427 1.2094293050207279
H 2.311541989199151 -0.9447432771766782 0.022928805012742373
H 1.3541153249027567 -0.7460210276376692 1.5175858425747637
H 1.5464658497222272 1.2164726219497348 -0.6125618120439493
