21
## STRUCTURE-ID: 64568d7d9053246896242a33 ; CHARGE = -1; SPIN = 1
H -2.8500900658598067 0.9803003341307167 1.3896416958296156
I -2.002372309741685 -1.7965458938651895 -1.4807987135415874
O -2.3589020007639396 0.2611782250013572 0.9654471541220556
C -1.600019592204857 1.815090120209155 -1.630940421937637
H -1.0661756198847119 2.420556946208406 -2.365051836231079
H -2.41454643478197 1.2962562309554673 -2.134833593679159
H -2.0637110951164437 2.4756821750883837 -0.8846536915438419
H -2.3704683388471515 -0.47871150321591077 1.585878446059871
O 2.23114867557874 -1.9191708747124494 2.9508707977249022
C 1.8914970265876017 -1.966540674963516 0.31456873076058933
H 1.431526390165034 -2.8820816873247157 0.6589976826462114
H 2.9682841638069393 -2.054629006532648 0.36962357289629044
H 1.5688870896270362 -1.7150573346374167 -0.6912424533351997
H 2.218301951403196 -1.6358064631951363 3.8656464336931053
Rh -0.26674410606900745 0.8740251433247833 -0.15389739092880494
I -0.10754287407402965 2.5925222652398485 1.9531709004880942
I 1.2951745097368486 -0.4052227441517095 1.6152758192418886
O -0.050613901211614486 -0.009974660920052442 -2.924260462773755
C -0.5614039431044777 0.06482363928607841 -1.8543491393849583
O 2.5895259314590935 1.1030849454879095 -0.9907651788502571
C 1.5182445432951857 0.980220818586649 -0.5583283512563246
