12
## STRUCTURE-ID: 6456696fdfffb857930b39db ; CHARGE = 0; SPIN = 1
O -2.0182054222237156 -1.7376240938452263 -0.678487585906247
C 0.12607092309974488 0.6309248267829544 1.2769804955720805
H -0.4212888681316346 0.026015412484687753 1.9960541428051686
H -0.42877668465060464 1.5535819050542155 1.0743934464032718
H 1.109652152639947 0.8879147173933216 1.6845935858425787
H -1.7030109027991793 -2.633140690109023 -0.5341871302219924
O 0.25622626715463886 -0.14700293379587437 0.10654221535935866
C 0.9564387448927715 0.5215848203395504 -0.9205116242412721
H 1.000117824284492 -0.16093667882445636 -1.7659569927893464
H 1.9722883914374563 0.7741628225686179 -0.5981741868322259
H 0.43651996130509696 1.439617365192005 -1.2155586720480838
H -1.2860323870089732 -1.1550974732407115 -0.42568769394331474
