12
## STRUCTURE-ID: 64566a1b8fd7c76405399e4b ; CHARGE = 0; SPIN = 1
O -2.418283975391082 0.127131937198764 0.735382377091222
C -1.6864656812247443 -0.6445293844180507 -0.1938405087607674
H -1.6833581151275137 -0.17703724287410605 -1.1835366281366955
H -2.088063312629907 -1.658764755205478 -0.276480989734341
H -0.6641301274130585 -0.7011021164556057 0.1765538518827419
H -3.3375342850452685 0.17186839650593277 0.4461911144876892
O 1.6323571526299576 -0.23558403508410136 0.7846556221858112
C 2.079337105697178 0.5571423433127145 -0.29434976869057716
H 1.3714601056323992 1.360848328419238 -0.5185633907476603
H 2.1507936762852724 -0.1033337904835482 -1.1568832066353065
H 3.0648017501169766 0.9876499860512009 -0.09372007531037573
H 1.579085706469745 0.31571033303296103 1.5745916023683482
