21
## STRUCTURE-ID: 64568dd23f92f11fe23eadc4 ; CHARGE = -1; SPIN = 1
H -1.3683086480884386 0.7207544641319468 2.1237962451857237
I -2.0909595585003977 0.9047604925364846 0.6396438008448037
O -1.106455728719101 -1.0138563241006089 0.5702138458132461
C -2.7378914569491446 0.20520265441566965 -1.3712157214632466
H -1.8727610954617218 0.06674231627908095 -2.0072197936615925
H -3.3726967765808205 0.9982760869734975 -1.7469300772051963
H -3.2912165254762904 -0.7192284958008393 -1.2697570695077691
H -1.7410602737994656 -1.6801568974727306 0.8338585482492578
O 2.5099487094881017 -1.451181632212839 3.057156212369371
C 1.9776359450222478 -1.7629667774925413 0.3846936458078847
H 2.4095044651416773 -2.4381265507345327 1.10661787297853
H 2.6606211223355203 -1.5919002021184405 -0.44166281002124813
H 1.0268276952296795 -2.1413236996922618 0.02768900380550387
H 2.602334009065718 -1.0001168048059728 3.8962813365210236
Rh 0.5785097401726964 1.6200961400489073 -0.44622573769774765
I 0.8730046184584903 3.356082137876426 1.470011161522275
I 1.6374116715132616 0.05420188313021834 1.3824944008753233
O -0.23530818310975057 3.5471347028843954 -2.611195462146109
C 0.022344400883772802 2.859332682479767 -1.7337195026489132
O 0.8145352176437118 -0.7258300744791871 -2.27879444691799
C 0.7039806517302778 0.1921038981534848 -1.5857354527031449
