33
## STRUCTURE-ID: 6456bf420fd0420dbd750ee7 ; CHARGE = -3; SPIN = 1
Rh -2.9609911189092366 2.108667176820613 0.7265303352075716
I -5.456268108048022 1.6205308952346429 0.1246947097488226
I -3.2370454291660384 1.3676451195215182 3.2404643528232318
O -0.3892763468413097 3.4413286372288803 1.4642009909182057
C -1.3573596632772935 2.8557690105067524 1.186546654918061
O -2.753084168034306 3.489345906315226 -1.909357591959996
C -2.8437614771532336 2.931212300633368 -0.8981515074202219
I -2.1743085961231583 -0.626618790864442 -0.1959622277610337
C -3.704928807033098 -1.7222912494509033 -1.4050641423014774
H -3.378210641740896 -1.6941801252289495 -2.441858137149081
H -4.65567383374303 -1.2115807904485347 -1.278505134623578
H -3.751183002165609 -2.737549774709881 -1.0248341393319622
O 2.6505807230331584 -1.8140224503716762 2.722824183732161
C 0.42120043933333806 -3.3269616422599357 -0.5293405068962328
H 1.0981980638668707 -4.170564527694958 -0.4439768283680327
H -0.3088590836181673 -3.485492601520265 -1.319431896702583
H -0.07708980106660582 -3.106054132884058 0.4098692899611936
H 2.997581239576811 -2.5737459286145654 2.2223393268556455
Rh 0.0839040679899943 0.5087560216654644 -1.6065331121644828
I -0.7531138309177734 -0.3438327871869926 -3.9292022514887712
I 1.619867358336908 -1.578057386904512 -1.1180439571488108
O 0.05930016912706239 0.5472852585500764 1.1954335421942093
C 0.6778416323657372 0.9591823984462783 0.19435101528383614
O 0.1052678445278292 3.4868095542480826 -1.4800542717591856
C 0.04035711151935845 2.331806302851527 -1.7046069453087502
O 1.8187687231916556 1.6850540546814952 0.4204373463666645
H 2.01948912333571 1.628574728348782 1.3868069140599253
Rh 3.522063724914477 -0.3992751172210616 0.2707117753915511
I 4.2638696903056985 0.3911671266206958 -2.1521177443947757
O 2.4820716187594005 0.38670793518593205 2.7174993875908307
C 2.8247176659981053 -0.617431225096718 2.0788627350981677
O 6.017755733182765 -0.10038795994948317 1.8860409640932723
C 5.098318978472852 -0.23179593645232954 1.1894268705356101
