14
## STRUCTURE-ID: 64568ef2ffb7393699662c54 ; CHARGE = 0; SPIN = 1
H -1.4192228849754192 -0.2915722481197864 1.723512109531527
I -1.120932366068341 0.30724260076106436 0.27847455551525635
C -3.272875175847349 -0.15225561306844773 -0.16054166977965298
H -3.482255811207074 0.26062018841321993 -1.1415557262642764
H -3.383726166666771 -1.2312671716623136 -0.15235862547578072
H -3.8641614035980347 0.33807130504363964 0.6057240791011631
O 1.9755789537191766 -0.31043902012025587 -1.511964504641499
Rh 1.6183907013424876 0.6121450504418955 0.7012071328298973
I 1.1311729169316638 1.4229848892841728 3.1510996561319717
I 1.816549774838805 2.9397460890169675 -0.4458317729053785
O 3.1990803983077005 -0.34790614802035236 -3.4448907395197845
C 2.5925259518608197 -0.3225171110787009 -2.481135428542818
O 2.276821474292213 -2.1422721097985744 1.5847174401528341
C 1.9330536370701346 -1.0825807010925397 1.293543493866548
