18
## STRUCTURE-ID: 64568cf466b9cd6c502fdd7a ; CHARGE = -1; SPIN = 1
I -1.990331391125788 -0.7584187625901583 -0.20812702674116526
C -1.034399602586581 2.9662739630884603 -0.044664764685644565
H -1.8002779345222333 2.125646237108528 0.0606744315593914
H -0.8797313422002603 4.06111387477255 0.15032590318706612
H -1.7067273950668365 3.253951530731171 -0.8997738906127057
O 2.4773777574056424 -2.508852675244629 0.15569400282691293
C 0.26558201508047746 2.3685918611147057 -0.6196686377806864
H -1.04001446933868 2.883419747187582 1.0796106820291698
H 0.09682465898432312 1.810755658954327 -1.540152760961687
H 1.0481124010252245 3.1072963384726284 -0.7738256075895393
H 2.593523431253483 -3.1821301518658394 0.8281310095526895
Rh 0.42174097861853216 -1.7800457299210863 -0.10884382288721671
I 1.0387264499520223 -1.0802029135801274 -2.6683737941479606
I 1.254862361555119 0.8458066102469094 0.7644579138132667
O 0.24788006671780297 -3.139361979611312 2.600825988911299
C 0.06051522383315252 -2.914968039801412 1.3980774580826112
O -0.768910356606754 -4.513829440009155 -0.37642208258298776
C -0.28475285297864633 -3.5450461290531283 0.2020549980271723
