13
## STRUCTURE-ID: 64568b37100f7701ba4975ad ; CHARGE = -1; SPIN = 1
I -2.461206862398634 -1.56675794091592 0.3249866057277621
O 0.6510067960798438 0.11781760682829524 -1.939744801000563
C -1.3624951293606429 0.2146839996446857 -0.13804508200168383
H -1.7851584877263253 0.973094681647174 0.5463518692249727
H -1.6543586151096004 0.5118931156932596 -1.1449347903569158
H 0.9373758541955368 -0.48466096640877837 -2.6536463525496807
Rh 0.5823050968838611 0.6708282688442909 0.719893513189332
I 2.9110278447583604 1.2359583686691102 1.8027257427702603
I 0.35283189521394354 3.027006599510149 -0.40675796239254713
O 0.35672100149771974 -1.7571902257874916 -0.7598999755784929
C 0.3271713529336145 -0.54475212877787 -0.8213524680531332
O 0.5681574795686744 -1.6273243908600872 2.6153993721766473
C 0.5766217734636445 -0.7705969880868193 1.8550243288440431
