12
## STRUCTURE-ID: 64566a7862ca355d4e41e580 ; CHARGE = 0; SPIN = 1
O -0.6261335037142429 -0.6729303493212945 -0.11763555904237032
C -1.4104957345197606 -0.2817279144370124 0.935925199980297
H -2.0427380008593 0.5817568160677906 0.6700419664052452
H -0.8201669321993114 -0.015977140302796775 1.828632747555273
H -2.085275577332633 -1.1042350791799531 1.2162161650598124
H 0.7561717704496378 -0.96008263018361 0.07347423821660329
O 1.7289029324241274 -0.6464397261272176 -0.1116509613669472
C 0.6349864473749756 0.8661673385936589 -0.8096411490271165
H 0.16764770546017235 0.6126663442854048 -1.7442711057931255
H 1.6342157828481787 1.2709616393168301 -0.8976966070104863
H 0.025552664789832598 1.4425756233149585 -0.13475123238689712
H 2.037332445279654 -1.0927349220264906 -0.9086437025904326
