12
## STRUCTURE-ID: 64566a361072e059ca051b86 ; CHARGE = 0; SPIN = 1
O -1.3439908750501484 0.40760564000869554 -1.1506365153468323
C -1.4628157087614544 0.03240321103473181 0.15330141288693921
H -0.34254715846597916 -0.08043477934126772 0.5185180040599761
H -1.8965537189195463 -0.9651488130814395 0.2949082604890964
H -1.9686001539924893 0.7902518068075121 0.7535379437559618
H -0.4348480854124462 -0.0679154881672427 -1.4121733482032122
O 0.8708445189070972 -0.6423031682411415 -1.1816620993196367
C 1.110353563739842 0.08291761329611923 0.7821677888186666
H 1.4529878365439886 1.0156668407402252 0.3674847388469187
H 1.818737296988325 -0.7259431193316489 0.7259261317445757
H 0.7386248215205831 0.20111747975191815 1.7985777827957075
H 1.4578076629022354 -0.048217223476449 -1.6499501005281603
