21
## STRUCTURE-ID: 645675d67cc7417af52c50d1 ; CHARGE = -1; SPIN = 1
H -0.865438945300186 -2.5443870180339054 1.9681755027496566
I -3.844918063394776 -0.1580312023913779 1.61601540574704
O -0.9825123174896178 1.7377687003870952 2.021996112661928
C -3.25088032932382 0.5828114279736881 -0.28448720009610035
H -3.7633635100601026 1.520007859847569 -0.45697998754577207
H -3.519101294737246 -0.15471867644269804 -1.0304608992793265
H -2.1666216622076258 0.7432735782922328 -0.2658789936769614
H -0.9574254776970229 2.129533384985534 2.9173514151394824
O 0.44618821383140994 -0.9032179114221482 -1.8848935185979376
C 3.3857345671196164 -1.8561155099625932 -1.1766056554582758
H 2.43430316303881 -1.78331767069557 -1.6942276984693425
H 3.555814227484211 -2.858116627522503 -0.8049341116520923
H 4.197513892721202 -1.5201234557662273 -1.8080539580546187
H -0.19579073234191904 -0.726497345464485 -2.5737741297676204
Rh 0.38099143606289887 0.38039031570472726 -0.07665872215894466
I 3.2713132249993744 -0.5205478512419438 0.52452553912826
I -0.44333734141051584 -2.0610307159276 0.4872560922929509
O 1.166415870480492 1.3963626842247545 2.4749502143699007
C 0.24992981405981043 1.2605012099022879 1.6636482056264184
O 0.4662907766995727 3.2404044255373985 -0.928993258952147
C 0.43489448746538406 2.095050398015746 -0.6879703540064693
