18
## STRUCTURE-ID: 64568a89c117da5f994dd538 ; CHARGE = -1; SPIN = 1
I -2.892526630359459 2.190888847824441 -1.0940748876600488
C -1.4897286665839684 -1.6916029781719577 -2.008288825997412
H -2.1532065961266396 -1.7940588213827715 -1.1483835128031659
H -1.8548081774384588 -0.8624100793538219 -2.609443228011353
H -1.4924347637079838 -2.6200618214748124 -2.5681881759969722
O 0.6334106887325426 -2.4842650683591363 -1.389645193501434
C 1.8266962165446758 0.4153033370078905 3.233225963294201
H 2.8698539041217384 0.2568849938896742 3.4778106600673913
H 1.3301046548127646 -0.5111380682503848 2.9665146729289744
H 1.2974075435892674 0.9095893591667149 4.039628866386149
H 1.5221438272002878 -2.307247622012787 -1.0285002043962845
Rh -0.5584298785040358 1.711775589695755 0.15557479008719327
I -1.632073170939834 -0.011442350442370632 1.8258932893724107
I 1.7739469791976568 1.7384519305677704 1.4871742970867166
O 0.3141391008568294 -0.2964770110771443 -1.2089958719632226
C -0.11453572737609388 -1.3989678461574575 -1.501589479068522
O 0.5146903420141357 3.788882041169848 -1.6733081624038364
C 0.10535035396652843 2.965895567360553 -0.9554049974208184
