18
## STRUCTURE-ID: 6456895b2902964e293ae5e3 ; CHARGE = -1; SPIN = 1
I -1.8420889241814984 -1.5517819385311264 -1.2221697488421304
C -1.7813067517294352 0.2676304065336486 1.75612596339049
H -1.537909575642278 1.2945001359957002 2.0431896468795343
H -1.986570002362067 -0.29515469454176874 2.6787002572342415
H -2.705706266245549 0.310134279273259 1.1745404169121199
O 0.29768651696521437 3.2452137684358813 -2.038898506190422
C 1.2800133755350909 0.6972737173985415 -1.9939521656233983
H 0.8025435404903104 -0.08904534142333692 -2.569916502971014
H 2.0737902726815873 0.2984901404355699 -1.3681985082068733
H 1.6380153387954706 1.4952575690535947 -2.631281838789934
H -0.253490127331909 4.005631891062969 -1.8402611738814205
Rh -0.20446153905989947 -0.7208958429327486 0.7137336518442077
I 1.5395530835617397 0.44387303664193967 2.3708534212402284
I -0.1885286387898919 1.5719543049826172 -0.7259954108019312
O 2.2536640767544625 -2.6658858443790705 0.6433108340995428
C 1.261784411746458 -2.0362744278295573 0.4594920397817037
O -0.536350483179027 -3.681417282070079 1.289045779700543
C -0.11063830800877818 -2.5895038781060205 1.2616818442245203
