12
## STRUCTURE-ID: 645668ab305de204220b39de ; CHARGE = 0; SPIN = 1
O 0.20074508763850063 -0.6007870739768288 1.1819772799921142
C -1.132417118889882 -0.19344824377091638 1.2548499350467524
H -1.6002980399223785 -0.08547112303149311 0.2732953762686775
H -1.2504815619399339 0.7163457952422785 1.8466078451691448
H -1.5922442698014503 -1.0338777191194564 1.777495506415349
H -3.2361370257858835 0.13149387151550349 -3.6871134858041548
O 1.064973471795905 0.4219245180544307 0.5535291244392035
C 1.3620490991802547 0.11061921777907875 -0.8214751027274858
H 1.8316582433122168 -0.8671530472181782 -0.9267338081992412
H 2.0237406315526347 0.9064955241734277 -1.1652929473615132
H 0.43626599150340584 0.1418106321991556 -1.3971212050549147
H 1.8921454913566058 0.35204764815299383 1.1099814818161031
