12
## STRUCTURE-ID: 645666fde3571362344b65f0 ; CHARGE = 0; SPIN = 1
O -1.530104048538873 -0.0814063249400768 -1.0588939012090077
C -0.9267668990909032 0.00700763696541231 0.20347927336209778
H -1.784276175859482 0.3541543522315346 0.9111562406884279
H -0.41013157331701183 0.9618003964022503 0.4051348509476977
H -1.2414542762228762 -0.9043615932148888 0.7925716430646322
H -1.0474970891112918 0.41371198430741757 -1.730930800172539
O 1.170496889816539 -0.8778792287781573 1.410591785493992
C 0.5614876906419174 -0.902476152110797 0.20166169410669066
H 1.115788097381726 -0.4347165726585604 -0.6131151466416523
H 0.31729024282738116 -1.9319600710417293 -0.06274796530854607
H 2.06246574220885 3.4846752297578525 -2.006282637534755
H 1.7127013992640248 -0.08854965692024061 1.547374963202981
