19
## STRUCTURE-ID: 64567b1f6734ff7cb562319e ; CHARGE = 0; SPIN = 1
H -2.6444113997017897 -0.34176536076735314 4.737997476732164
I -3.3065761128643936 0.06159328478582916 3.367643948657761
C -0.7682408095328384 -1.0855585671950065 1.4964078293906622
H -0.2800176347151634 -0.7471123020965186 2.3998356751583434
H -1.401671617206772 -1.9539501225587552 1.6088117563041575
H -1.1994041539129243 -0.28255783295627707 0.9031946351479807
O -1.0555858894646473 0.8396321561300436 -0.9004838256990685
C 1.0687461866110202 -2.0969967379373964 0.26671910504486535
H 0.14788166509768064 -1.4354852833790142 0.7752263885239676
H 1.9270223164507283 -1.8767367735767664 0.8999314944352421
H 0.7281612957443642 -3.1297144710428846 0.27699097128717237
H -1.8164059624421158 0.8326644257718712 -1.4843218849822994
Rh 0.7080479272309749 1.6190215537824342 -1.561236318895963
I 1.368901159278135 -1.416272909246175 -1.705133872520846
I 1.5816129848428142 1.6258914306135133 0.9025213959064473
O 3.232691565040026 2.9571496830836037 -2.439099462980445
C 2.2815469125435253 2.40469522408349 -2.090692223857139
O -0.5304429938847113 2.1300826166493008 -4.235486850794555
C -0.041855439113873495 1.8954199858561134 -3.2188262368584466
