12
## STRUCTURE-ID: 64566a8360a24934422648be ; CHARGE = 0; SPIN = 1
O -1.5773831867707302 -0.29164975455353664 -0.279945987616763
C -0.5186197557972998 -0.4221249558288796 0.21093252020639827
H -3.90806757752379 0.9052454506467105 1.767460630474876
H -0.1800604159427382 -1.1667371366411838 0.9377687450823295
H -3.6788946488825216 0.5314369859845023 1.1244344574266167
H 0.3640183465915042 1.0771667231593085 -0.8540777658501233
O 0.5080700311156099 0.5050773274773597 -0.0562055747858782
C 1.902337087715361 0.2096266163919421 0.24641521349763962
H 2.4316765944735117 1.1601551667885985 0.29178914244062937
H 2.3365958011685612 -0.43512391159117275 -0.5177742842257674
H 1.9426024664103456 -0.27704077514036235 1.219818492524845
H 0.3777252574421927 -1.796031736693288 -4.090615589174803
