12
## STRUCTURE-ID: 645669a19874f830970b5353 ; CHARGE = 0; SPIN = 1
O -0.9210141576684333 0.8912898711518776 0.2725287515726448
C -1.6371021520409794 0.02504271931380785 1.1361053551281126
H -2.1286854676143636 -0.7742213841476279 0.5760866503168321
H -2.381052896991272 0.576601445410323 1.713746597100333
H -0.9108557286164534 -0.4105924722896876 1.8192315484047992
H -1.54296418112533 1.3196299428233653 -0.33033304525784746
O 2.965705031180865 -0.2019672956807767 -0.9885118802329426
C 1.6017536704535957 -0.44887274120890497 -0.9875530940143838
H 0.6721142135738516 0.32363602963596494 -0.36666397743021617
H 1.3504802039693347 -1.4153988717666646 -0.5168290810870809
H 1.1706792043043135 -0.40364753357670197 -2.0030462407985525
H 1.7609422605748652 0.5185002903350306 -0.32476158370168673
