9
## STRUCTURE-ID: 6456b6b615ab360fae4b65f0 ; CHARGE = -1; SPIN = 1
C -1.6250931229049153 0.35290354739776325 -0.8444106648047752
O -2.6253963292187965 0.6502767607620298 -1.3130082706079702
I 0.690970137925368 2.6160976037599135 -0.7930951050287617
Rh 0.0053899807499611305 0.061537900447150067 0.005596934776576189
I -1.2484210567348177 0.5671133283279269 2.4410823776797597
O 0.3269080062665407 -2.7151257355300467 -1.146134204031006
C 0.21543210348225889 -1.652588231469571 -0.7242270389104685
O 2.6203770985153314 0.10508593213607192 1.4782872173762134
C 1.6398331819190552 0.014698894168757274 0.8959087535504446
