19
## STRUCTURE-ID: 64568f05733a7a1e1b2648ad ; CHARGE = 0; SPIN = 1
H -2.3592279902635314 -3.0221601149758928 0.4877448971716851
I -2.1615796619082293 -2.0159021149492973 1.694804499501521
C -2.1727641977152703 1.4719522645656573 0.659689607500943
H -2.836164166951151 1.3289482681085958 1.5136686722344714
H -2.6947157322537594 1.0875628874776542 -0.22599945963700457
H -2.0010955263256673 2.534320026062684 0.492255123567155
O 1.758531517490417 1.1303120151765624 -0.8881901986933111
C 2.489718265056006 -2.2519323529150257 -0.9477389328202405
H 2.542733394110198 -1.4307916186083904 -1.6527890220862158
H 1.7768325320633105 -3.001023454033976 -1.2740588567789555
H 3.465844280387571 -2.6828503056248545 -0.7594426794873027
H 2.270581789857728 1.8006126036284524 -1.3859594511717876
Rh -0.4806571564731089 0.11373077674847394 0.377649518069997
I 1.7803110743611692 -1.4325549015934906 0.929645477793928
I -0.8967123725861991 -0.9714654395339933 -2.0274940917881494
O -0.48369785062740533 1.9696108976674747 2.7182726434720923
C -0.5909661264380385 1.2627678385066905 1.8124129157796414
O 0.06894665598141783 2.590831409898352 -0.914594481560749
C 0.5240812722345656 1.5180313143943207 -0.6098761810677163
