18
## STRUCTURE-ID: 645673607627762b4b41e58b ; CHARGE = -1; SPIN = 1
I -1.5018317685920033 -1.0258632785153976 -0.48772272184712384
C -1.8508341157395551 1.0775091772835366 -0.8472943213143928
H -1.1895563499317483 1.6297320379261144 -0.17275688372624912
H -2.8895450428187925 1.2808084973920713 -0.6190064589268974
H -1.6176136809613324 1.283828393514428 -1.8855437793234573
O 1.7821992069560175 0.523438437756075 3.728765121225381
C 0.927333867708702 -1.8711435094956514 -3.5019208790025034
H 0.40320683571125326 -2.572413297662844 -2.8660762855376687
H 1.58620012446845 -1.2433852924374302 -2.9153539850322367
H 1.468743709265241 -2.3777157896713956 -4.288994768317332
H 2.17352659204919 1.203546547656286 4.311303607254743
Rh 0.11658651025884591 -0.11803620988113457 1.5366257025948613
I -0.536300655305297 -0.6142642561352988 -4.416957423824927
I 2.1415141524755335 0.15755964139617806 -0.04015469859299195
O -1.6804963775676762 -0.3814683840665902 3.9031010086542075
C -1.0542130083901782 -0.33049022051858745 2.9208842968767823
O 0.7682224067774055 2.29726574129095 2.8298531824658304
C 0.9528575936356967 1.0810917641691549 2.8112492863741827
