12
## STRUCTURE-ID: 6456678d9236ce40af2eaac1 ; CHARGE = 0; SPIN = 1
O 0.3428129856833849 -0.3448479383567341 -2.9610477081286537
C -1.9221358264951454 0.148150162952312 1.2778446403963337
H -2.2481291714781815 1.1791943856294649 1.240410415468195
H -1.7589805474778553 -0.14138268168453905 2.3077427773580093
H -2.6805050267704 -0.4871778056847468 0.8394855393174425
H -0.3815132985602642 0.2689051230381266 -3.1077573958991977
O 1.2956079578360515 0.1982170610919376 -0.2024545032403771
C 2.261754492506931 -0.11616398349516985 0.4360385893745376
H -0.9988659928186325 0.044193716662595486 0.7229763295580005
H 2.632109386288503 0.4930838983694539 1.2715936583512564
H 2.8305984409782394 -1.0312662206687977 0.22284789638389882
H 0.6272466003073831 -0.21090571785391574 -2.047680238939442
