12
## STRUCTURE-ID: 6456673bb128f84d821f8bd8 ; CHARGE = 0; SPIN = 1
O -1.6785285307676703 0.8839146782931391 0.47105170882601444
C -1.6397316080442497 -0.3144459651886396 1.2103584085600834
H -2.631808386480369 -0.45782594708727115 1.6369423706307675
H -0.9081786928260548 -0.2599818645398808 2.0228686844363977
H -1.4007214741652585 -1.1715018604582912 0.5722560977115064
H -0.7974788107301158 1.0265446827613143 0.08562912923105531
O 1.0504959393154785 0.858296747070838 -0.44462055236376896
C 1.4766858820323012 -0.243422042411399 -1.219244579688948
H 0.5837612376781699 -0.6778196476137298 -1.6652485844938372
H 1.9697244134792538 -0.9978846527692959 -0.5994091005717558
H 2.1539418939924877 0.06959539975698129 -2.0182356555302605
H 1.8218381365160397 1.2845304721862254 -0.05234792674725879
