36
## STRUCTURE-ID: 6456ee38f41c652896071031 ; CHARGE = -3; SPIN = 1
Rh -2.56339659880833 -2.0398008651586226 0.46804152505045804
I -2.3558101696183167 -2.7676333313664463 -2.109829543940815
I -3.732025333236127 -4.287735445636602 1.1543186387601143
O -1.6175385894290124 -2.083365955427025 3.1110765034353
C -2.5154905599782946 -1.6594360825234804 2.400863383130381
O -1.1170187606334891 0.4950031892454987 0.9666212362614457
C -1.6542495180255077 -0.4540890746445507 0.5565627811454807
H -5.5096456504032565 -1.644377593035071 1.409617002355341
I -4.86412960348599 -0.6754988588821037 0.12138019407948136
O -3.482045702347888 -0.8765986611014194 2.9078028704088466
C -3.776248116769192 0.5487972677699164 -1.4918924739440174
H -4.2141201956081025 1.5384290670339946 -1.470224133479992
H -3.9412137349007392 0.06571995630927699 -2.4465262603512015
H -2.709587991083673 0.5931177551510362 -1.2801451257177436
H -3.406770202809018 -0.7618330851761719 3.8791972836454565
O 3.3420929899705434 3.0799666265140093 -2.5968781885784606
C 0.7362709188768921 3.071834104933862 0.26982743163245654
H 1.190518338284431 4.042755850134609 0.11436600290294222
H -0.05973701707895782 3.1191354783428396 1.0042751558659535
H 0.35769295147276003 2.6675469878131617 -0.6658957018103158
H 4.1799701425627225 3.4114806790346512 -2.2300833312405897
Rh 1.6377071984486768 -0.8145111222485614 1.5650888881956735
I 1.4867221757689197 -0.35267026109221716 4.170515295766514
I 2.2278134714110305 1.6953392260758964 0.9704004326030229
O 0.36146230931237905 -0.77049015740122 -1.0260640226311668
C 1.4013618055146715 -0.9980882503033643 -0.39171049826958787
O -0.11945839831294783 -3.1299902069994463 0.9645109792294206
C 0.620606256500151 -2.3156636950310774 1.3901242137584957
O 2.4685290148498744 -1.4852920183077947 -1.1141216971887689
H 2.231344356315438 -1.6041442170900864 -2.0539455240416813
Rh 3.9732633230488084 0.8402956311560752 -0.7724732900374895
I 4.606866120989154 -0.5958991257376673 1.4340934202807847
O 1.9983621070631454 1.3321636601883105 -2.623308748579752
C 3.0368216260895697 1.8155140800068772 -2.178066134981106
O 6.339694106201838 0.3995820246406206 -2.552169580100646
C 5.4413869298471225 0.6004364228117899 -1.8553489836138874
