12
## STRUCTURE-ID: 645664b464add854f90b39d0 ; CHARGE = 0; SPIN = 1
O -0.8013055450391512 -0.5476902498712026 -0.2592968586598655
C -1.5430810995021176 0.26196621805726494 0.5598677954812327
H -1.7284582386205272 1.2451851686879003 0.09562476657027776
H -1.0702949734933893 0.430217344411184 1.5432751931014215
H -2.5258505338744133 -0.19897093724909834 0.7413749006298953
H 0.38708836455764606 -1.245458656902024 0.1706686093291761
O 1.4197995432190957 -1.2271114084437011 0.18508764901309024
C 0.9843972954473484 0.3818148617922911 -0.9047609475174109
H 2.0593302890076024 0.3385547873895404 -1.0160140448910706
H 0.6376430799535646 1.2135405281005227 -0.31629166284499477
H 0.46321541567845875 0.22180588929353165 -1.8314846814408778
H 1.7175164026658796 -0.8738535452662163 1.0319492812291293
