18
## STRUCTURE-ID: 64566ec120b3154b815fdacc ; CHARGE = -1; SPIN = 1
I -4.647287419622478 -0.20180329117428 0.4867916259603282
C -3.0218650790730335 1.13305853810795 0.19807693780444927
H -3.4071825096475505 2.110134707699707 -0.0620407580160324
H -2.359323946846184 0.7334283563345387 -0.5584971523352038
H -2.4599372098915016 1.2240436530263576 1.2037227910810528
O -0.15378463069209147 1.3886613742908367 3.897570679974546
C -1.32204744106342 1.0885530280296714 2.03804101756526
H -1.0448540260444912 1.4630852050489596 3.251090533983312
H -1.1982929473035298 0.0013835197852800814 2.0161629067026676
H -0.5576647629291585 1.4887261937201932 1.3648707574176133
H 0.41294316408068366 2.1232152084722267 3.6511433445046966
Rh 2.696091531241022 -1.36941336552165 -2.372577830747048
I 3.87549836164141 0.9488196233657016 -2.460956878177047
I 0.5297151944182477 -0.43341918815011776 -1.3233788441759873
O 1.3902372872567632 -4.050777087053639 -2.3026248894317103
C 1.897119583394245 -3.0164018352369104 -2.3307653235724795
O 5.160654114583461 -2.542463826008659 -3.581250830264715
C 4.209980736497975 -2.088830814735997 -3.1153780882737827
