19
## STRUCTURE-ID: 64567b2fad9c0f56c1248ae0 ; CHARGE = 0; SPIN = 1
H -1.9119860385485243 2.2693903988568813 -0.1026295169887046
I -3.3719381425026653 2.0807156054306515 -0.7396736832252601
C -3.9048453873566156 0.27588467097440605 0.33849362559140644
H -3.106977644971441 -0.44563413524679274 0.1694394075198942
H -3.9979855291814816 0.5531586324657429 1.3843898256719929
H -4.8507023814512005 -0.058841903536240595 -0.08051909427045473
O 2.871052833113595 -0.0950581224018669 -1.0409136285278602
C -0.1588882822871533 -0.8987273895534654 -1.8490607653175972
H 0.8515652890745408 -0.5534709018082313 -2.040785877964387
H -0.8715434548523162 -0.08664485846455414 -1.930331594307146
H -0.4158260864634805 -1.7302672111812232 -2.492348636785089
H 3.6167930143489277 0.4388480043229735 -1.3189161904670594
Rh 2.2373262319486553 0.07455307651340126 0.9674590168079946
I -0.1800328483895411 -1.6220305235090489 0.19587254144819757
I 0.695662956631561 2.1417429937227674 0.5507339908673868
O 2.0298808483563224 0.13462099764786137 3.9379103351853746
C 2.047002592325683 0.10853527652684102 2.7790142981993085
O 4.6856349395698045 -1.5868934178498721 0.4850962778069515
C 3.735807090635233 -0.9998811929102264 0.7867696687549834
