19
## STRUCTURE-ID: 64567ad8d445f4162475cc23 ; CHARGE = 0; SPIN = 1
H -2.136179796322321 0.4245258991693184 -1.6361219936374862
I -3.126607975514101 1.7007829666785481 -1.6521509664703584
C -3.3111315828923593 1.8500777854502477 0.4925027823092417
H -4.021251579751004 2.6676472111462117 0.7044992207397909
H -3.635800065899765 0.8842091647569706 0.8892583469061646
H -2.3166530807678267 2.302472731753903 0.9828659269459413
O 1.7104758053892608 -3.125236360912073 0.8021305418783837
C -1.2596038299201928 1.6092200959725935 1.0787027879026196
H -1.314314704426416 0.5634641878954599 0.8110876003621462
H -0.6060710183139163 2.1824414808645676 0.4282695408971038
H -1.0713243413437605 1.749845376271879 2.1415779406028816
H 2.306099532316613 -3.8422315562974356 1.0209305878984951
Rh 2.3497444995571577 -1.573794242925244 -0.49616660489703446
I 1.7280069299840297 0.35543295742378994 1.38657728910708
I -0.1727088389293707 -1.2840510193765715 -1.3989482876250734
O 3.583460656829636 0.3053294063100169 -2.437684498631323
C 3.0336532839149273 -0.37118580205677687 -1.6641432160576441
O 4.514539801302379 -3.6401894517898956 -0.7215447537022497
C 3.7456663047870764 -2.758760830335459 -0.731642244528578
