18
## STRUCTURE-ID: 645671dd15b3d26a98068a10 ; CHARGE = -1; SPIN = 1
I -5.141205685902454 0.773483701116123 -0.025806556875769732
C -2.3869782409135647 0.5053888711333544 0.2910231147196709
H -2.5258781057940802 1.4694479772783506 0.7467962664279808
H -2.4356106120046856 0.4492135975187626 -0.7829694606431066
H -2.7002858938067402 -0.35882183527897943 0.8517132755021819
O 0.050411705841474204 -0.3477828552658068 -1.4431385991080323
C 3.0608591898085806 -1.3782525076003596 -1.068606420672989
H 2.1321370538309417 -1.1845598390088865 -1.5980919019607933
H 3.033905840282332 -2.3393038341693795 -0.5692883740022867
H 3.9191640159554835 -1.2838748262455542 -1.720376980427031
H -0.39753427402135233 -1.1886071155022357 -1.585602101231919
Rh -0.04350733707936137 0.2716836943177393 0.4989956815269183
I 3.2158584570018167 0.1401732089957495 0.4512452535580241
I -0.1088128550959868 -2.225204304000291 1.323120094977549
O -0.07812458531598937 1.028205740729571 3.396642119372996
C -0.0653210212907105 0.7803609774277206 2.2781179970380405
O 0.3180074097502589 2.931690388773608 -0.8067995643309225
C 0.15291493875406698 1.956758959780583 -0.23697384387052634
