12
## STRUCTURE-ID: 645667b14a799c71932cdf88 ; CHARGE = 0; SPIN = 1
O -3.539387604646916 0.9540242343026211 -2.399780887243213
C 0.7847491179691194 -0.4090721269643884 1.1937454267107213
H 0.8821272241242128 -1.43640662928228 1.5724965025687334
H -0.27335505590657716 -0.11689271988896516 1.253490603288162
H -3.24576328786706 0.05194169425569805 -2.551663169217169
H -2.859190774251149 1.3855385419238402 -1.8760310499063673
O 1.575614232134077 0.4732999913473325 1.9698316374063929
C 1.2574683927491823 -0.34732314938937164 -0.2510983503034377
H 2.302741419679236 -0.6385327330116289 -0.30825500172236014
H 1.1638020909575382 0.6677868984271056 -0.6270680553324948
H 0.663949857895728 -1.0184484078149816 -0.864356856577008
H 1.2872443871625883 0.4340844060950103 2.888689200328068
