12
## STRUCTURE-ID: 6456678db3e8213d6b1d80c1 ; CHARGE = 0; SPIN = 1
O 0.5587251847515649 -0.3876098628875177 -3.1021984768418194
C -1.9709294046344883 0.25236515483764493 1.440381465112269
H -1.7912171597160975 -0.16122267798480314 2.4241738245449804
H -2.6694672677946873 -0.3792816323317947 0.907336439361993
H -2.3862145666767587 1.246898874497816 1.537691068029778
H -0.34706121080875557 -0.09675932640725585 -3.2334826065249977
O 1.2146174130956047 0.1011025432887898 -0.2647121387220763
C 2.2276628553861824 -0.14229203417679853 0.33070488850191565
H -1.0395741490462551 0.30209788923569797 0.8916954381616635
H 2.337606595554647 0.06800159608463359 1.403079712869447
H 3.102055685319165 -0.589286881171222 -0.1613357376401541
H 0.7637960245698794 -0.21401364298520079 -2.173333876852983
