12
## STRUCTURE-ID: 645667feb63db828556cdb4b ; CHARGE = 0; SPIN = 1
O -1.3932333391817207 -1.377816173366079 0.8417085057819512
C -0.42056497894317163 -0.5583902614855397 1.207023821931324
H -0.6881089775335213 0.46230193005725767 1.488061660737374
H 0.27144823344611974 -1.0517535724821652 1.8920192072634239
H -2.167803649057893 -0.9408219875697073 0.45059927609756745
H -2.6056806942839588 2.8397821066080264 -1.561341957634096
O 1.8730938436414577 0.8583404753553504 -0.5639912214059555
C 1.1372777772396947 -0.22100041769071757 -0.7744778822566752
H 1.7356913440913249 -1.1289729144446983 -0.6802936469229264
H 0.45066059404198555 -0.2165263653900404 -1.6233599000880763
H 0.33036332091377696 -0.353656075611427 0.20029208824531408
H 1.476856525625905 1.688513256019735 -0.876239951749229
