14
## STRUCTURE-ID: 64567b0b678b0925535b5c14 ; CHARGE = 0; SPIN = 1
H -2.4624463655635394 0.5020988434385811 1.9304154986015638
I -1.3169637225087056 -0.12424106391030475 0.9274860824783552
C -2.7323737735935607 0.42345598598585227 -0.64423283483256
H -2.857412950504217 1.5032577496464496 -0.6047002971528087
H -2.29428004493113 0.09391768195890896 -1.584074573021171
H -3.6497465340182207 -0.12437081972440242 -0.4340165989311196
O 3.12395228067891 -2.405232436263137 2.314567086339545
Rh 1.4876446781360086 -0.2767641510245338 -0.30316331289023674
I 0.06666558460725355 -1.7850549456560028 -1.8599238062594694
I 1.9322013794345065 -2.5420247370798914 0.8853081618365398
O 3.3839886666385794 0.7965458613424421 1.7419637645442487
C 2.631627149748011 0.4707634958986407 0.943452612124167
O 1.351040245681586 2.205399139816884 -1.9776275162409145
C 1.3361034061945243 1.2622493955705338 -1.3354542665961586
