13
## STRUCTURE-ID: 645689c29c0f0223302fdd7d ; CHARGE = -1; SPIN = 1
C -1.747881616237961 0.19381555915504145 -0.07945600781203807
H -1.9645525218866602 1.1620300748806265 0.36800439485443603
H -2.477278651673374 -0.020615806353901638 -0.8653986299680967
H -1.8745717089258112 -0.541779382475873 0.7234906117402571
O 2.083995067001026 -0.3110356453799975 1.5784834943022468
H 2.3553955644177695 -1.150297945756337 1.1567157575370013
Rh 0.2898969977566556 -0.4972785634950503 -0.5775613671547422
I 0.11313169286660704 -3.0180058063938255 0.21822039425895923
I 2.5215180845218828 -0.721282432599914 -1.99415842951616
O 0.6981163639082619 1.4066549892840625 1.4465633510608324
C 1.0893576166612637 0.35835313579261324 1.0038965270987334
O -0.704271395648064 2.049408422059514 -1.771298636728732
C -0.38285549276159353 1.0900334012830477 -1.2075014596726996
