12
## STRUCTURE-ID: 64566a6accd27c740c5c0b0b ; CHARGE = 0; SPIN = 1
O 0.06838082523938692 -2.3708016976335275 1.4639010629935725
C -1.0668462370422425 1.0707936093951647 -0.06931215622279138
H -2.0100464711475126 0.6554051644404995 0.2772423259747306
H -1.216063040298924 1.5708731617518696 -1.032469824242184
H -0.6961377455184555 1.8022067849076628 0.6575586889344596
H -0.2886059710119069 -3.0397496445503225 0.8745432567501573
O -0.168625828287931 -0.009624473772085512 -0.19772082825441398
C 1.1043361558883056 0.39232519953371503 -0.6561234235256455
H 1.0375783410299217 0.8219571156810049 -1.6614278313929574
H 1.727452921944508 -0.4986274534461667 -0.6779147806482946
H 1.5465711504805204 1.1320472710131981 0.01999655599231243
H -0.037994101275773184 -1.526805037320981 1.0017269536411544
