18
## STRUCTURE-ID: 645673cb14887e56604d91ee ; CHARGE = -1; SPIN = 1
I -0.04055371906471478 2.7595505045998143 -1.4101201320972698
C -3.1509469830486947 -2.306014369767253 -1.0647873299578665
H -3.245181602154304 -1.2271890025086654 -1.0390644583345834
H -2.9199286772773103 -2.6757395715799372 -0.07361535853728511
H -4.0813767204038784 -2.740541160954026 -1.4036549941764276
O 2.404364277437929 3.1198784583730985 -0.02582806473548992
C 0.0072534078149173 -0.4679874986120769 -0.06633152807437626
H -0.9743925055794981 -0.6445549402432325 0.36640185874815506
H -2.3540307713608843 -2.5834577938908208 -1.743026749022043
H -0.07495524647645352 -0.30496141166779545 -1.1405292189355927
H 3.370083380152242 3.011506406204448 0.06396267760205797
Rh 1.5003319474498786 0.4970216101203901 0.9087159936109219
I 1.1490238729654385 -2.3111647961137454 0.17821826489680148
I 3.83986842802258 0.8384863003998577 2.193483391941166
O -0.11424302125779193 1.1447504799946786 3.329495231253556
C 0.4764783238778206 0.8653932683012908 2.3798150715738515
O 2.4013315565664453 1.040377189121583 -1.0022509292184445
C 1.8068740523362996 1.9846463282224223 -0.45088372653714914
