8
## STRUCTURE-ID: 645663a8c5a8757a64233635 ; CHARGE = 0; SPIN = 1
H -1.4505768166084707 -0.24197935314795554 0.9451425433428254
I -3.0239376969092078 -0.31807485307325006 1.149800798166264
O 0.3412352008465583 -0.0573987505762639 0.6452093767847129
C 0.7493736761902365 0.008262352711080122 -0.708822238301126
H 0.5481231376839086 0.9943615018111632 -1.135430250182884
H 0.17145069636169133 -0.7391329234834472 -1.2493087722695895
H 1.8114353866078052 -0.22388983163025084 -0.8090220479643674
H 0.852896415827476 0.5778518573889273 1.1624305904241636
