12
## STRUCTURE-ID: 645667b825670d594c30457e ; CHARGE = 0; SPIN = 1
O -1.4858102192490916 0.45401616344595797 -0.874102016465472
C -2.1535888246884998 -0.41423143671606516 0.009939569735530247
H -1.8298372141115298 -0.25854668315753054 1.044595502195314
H -1.9914079749580123 -1.4629996432984909 -0.2592389162983049
H -3.217110898355612 -0.18915494232749522 -0.06448834122451441
H -0.5323982400151623 0.25240371960226954 -0.83190976928098
O 1.2870122078069517 -0.14296492117836332 -0.6548415374290106
C 1.9195634787190978 0.3168360498446502 0.5236250636595619
H 2.9525125393867295 -0.03485662228070191 0.5807512702813745
H 1.3588834409258663 -0.09312759054806465 1.3616806865007247
H 1.902986022541098 1.4085010819454562 0.5835495782061548
H 1.7891956819981747 0.16412482466838055 -1.4195610898803743
