12
## STRUCTURE-ID: 6456698ff985c1199437419b ; CHARGE = 0; SPIN = 1
O -0.545842053822139 0.7510494820546036 0.5642618004630859
C -1.0238956526228398 0.08044354347081281 -0.628532398335983
H -1.5673483568481 0.806662024603057 -1.2233276308209262
H -1.642657216450923 -0.7788689617243366 -0.3854097354707902
H -0.09687074838882612 -0.27184967719163783 -1.17426837194008
H -1.2936653708534809 0.9046039568336823 1.1851497382924476
O 1.514335965006967 -0.7752547313956848 -1.5251840371003655
C 0.490366326060932 -0.0007485022951348651 1.2363069929017987
H 1.2043148310821314 -0.3013089188972464 0.45595896442896205
H 0.09398664308070388 -0.8937290146085115 1.7150204339372732
H 0.9666077859992442 0.6584329109301726 1.9561950068451173
H 1.9006678477563341 -0.1794321117797571 -2.176170763200474
