18
## STRUCTURE-ID: 64566f30c3e79a165a5c0b1a ; CHARGE = -1; SPIN = 1
I -1.9478068308671284 1.7079801494354254 1.0807405194753603
C -2.0819153014485585 1.2399250670878073 -0.9095454571324061
H -3.5212335528681455 1.723249325152648 -1.2763172296985807
H -4.184066394801994 3.1237368030915382 0.504426143318187
H -4.546713365964752 0.6520146428663153 0.610952432598306
O 2.359701089443236 0.12977235718807661 -0.8178815168759547
C 1.8816045215363564 1.1955915808564388 1.5645924207001454
H 2.5098096401822216 2.017561536212697 1.1974427892489687
H 2.449042419667788 0.25482461642548143 1.6314160838890266
H 1.3204284626753198 1.4472370105389611 2.4596191654715147
H 2.965662401686213 0.749634374855311 -1.276227255680596
Rh 0.2191581507145793 -1.7029410587597575 -0.6186666891730208
I -2.3128038900945387 -0.8267597481399176 -1.0275865025239317
I 0.3715591453341976 0.8377146758505919 -0.031238531736422038
O 3.0410114044057037 -2.490910141660292 0.025152852522545073
C 1.9947509677594055 -2.189145458089784 -0.21862417786245592
O -0.3924241025571786 -4.4400518029528575 -1.6568936041288782
C -0.12576476480272852 -3.4294339299587113 -1.2413614424118327
