12
## STRUCTURE-ID: 6456688089f71b7ec27c7c4b ; CHARGE = 0; SPIN = 1
O -0.15345079812279813 -0.22715544011610378 -0.13915345471270738
C -1.284423771549469 0.24955712779919736 0.5578500021952918
H -1.1752695234222938 1.312067689930865 0.8012752318906049
H -1.3546455368670045 -0.32982990491857367 1.475416550351414
H -2.1943896844900452 0.1108656181907877 -0.03567826418603925
H 1.4137075202178848 -0.6104102146258251 0.9090213201716763
O 2.17919269327332 -0.9055945969663652 1.4245635868728208
C 0.057649111220055414 0.4420819942187598 -1.3636963973927783
H 0.9433603624512383 0.00011075188269922259 -1.8138624093321292
H 0.22281221934190026 1.512886470269241 -1.201749957731569
H -0.800078382344502 0.31051558096768644 -2.0319428368233177
H 2.1455357902917154 -1.865095076632365 1.4179566286967338
