12
## STRUCTURE-ID: 64566aee496df923436dc166 ; CHARGE = 0; SPIN = 1
O -0.7827612614528032 0.1798858857170558 -1.386837965060149
C -1.1855658210030915 -0.13894189062602758 0.6554798140100189
H -1.9637986624478958 -0.6930749416335922 0.15897029432408727
H -1.3728086880131172 0.9167228147473193 0.754584310059305
H -0.9320310543355959 -0.5986034878507495 1.609297245012758
H -1.227773176548528 1.0176795512870465 -1.5167840918945545
O 1.5175029307745636 0.6957841002303294 -0.7175481103402449
C 1.4265697017792158 -0.2827133258373105 0.22558411374177384
H 1.7243409919199002 -1.2768664265343215 -0.12990716877327876
H 0.26404062222790614 -0.37759975160260617 0.4236572756717494
H 1.9340966929905585 -0.008159828657144944 1.151691182906202
H 0.598187724108892 0.5658873007600018 -1.2281868996576677
