18
## STRUCTURE-ID: 645670f5155b8c39924609eb ; CHARGE = -1; SPIN = 1
I -3.4104627443744553 -1.08487899581741 -0.07741054807559185
C -1.9180880476954227 -0.19947403827760424 -1.309303473773079
H -2.130011592467892 0.8594147348722819 -1.3960976209619274
H -1.9422033686336435 -0.678442202863953 -2.2799270955625506
H -0.9190463745961598 -0.3709953096248216 -0.8396292435094919
O 3.2485855170693285 -0.8798555454141599 -1.4108854036863379
C -0.9744647882723397 2.0810367635402183 2.731884915748481
H -0.3560060570224601 2.7117945101742906 2.1011835037518245
H -0.8623780779344715 2.3335715967583828 3.7790753612713344
H -2.0131151352687406 2.1162161301242834 2.4245619197508876
H 3.668363044133664 -1.0685742058861678 -2.2730858568889944
Rh 0.9571006300079997 -0.42375971138193397 0.144464406189272
I 1.1971564023911074 2.0957303298432053 -0.4934317901459743
I -0.282260398851869 0.021547935556638302 2.482447725380322
O 1.3808594292502496 -1.064135971512832 -2.61520987474182
C 1.89167219479175 -0.8364909336901589 -1.5197727082392285
O 1.3346718815658232 -3.3792646323082596 0.24447681374759608
C 1.129627485907538 -2.233440454091984 0.306658969745253
