12
## STRUCTURE-ID: 645667961c423d03465b5c20 ; CHARGE = 0; SPIN = 1
O -1.67450976300328 -0.06022231383541693 -0.7853253208167282
C -0.8603066775029584 0.1655730010799037 1.0196997709712703
H -0.05793689386290013 0.87034221447467 1.156028322232374
H -0.7281477044049895 -0.7793059870419731 1.515625046153451
H -1.8295200641306548 0.6226667289981751 1.1671266022239886
H -2.2354945725872954 -0.8382548094107171 -0.6879947333137254
O 0.5427673494574184 -0.6885843036621622 -0.29929237523671165
C 1.6398522517615 0.10942633910138427 -0.49358471332283
H 1.3861939663941454 1.070443569938237 -0.9713164717042299
H 2.3582478022746836 -0.4072608357194702 -1.1473465880982034
H 2.15821765043976 0.3217194262729533 0.4562775141185227
H -0.6993633448354375 -0.38654303019559755 -0.9298970532071497
