12
## STRUCTURE-ID: 64566a1b6a479e1e22051b86 ; CHARGE = 0; SPIN = 1
O -1.4900259255908568 -0.3493438334017439 -0.9833037791949135
C -1.3891800063909958 0.47654578066110226 0.09523932868891367
H -1.4897117221214626 1.5420862797382733 -0.14532279883937838
H -0.2632862179046819 0.3577454220908751 0.4384086547279226
H -2.05274083945869 0.17394533017435848 0.9068841370605286
H -0.5005576270639525 -0.30844997544912117 -1.3590617107441247
O 0.9316803706909372 -0.13858889031864896 -1.2976920718705347
C 1.0936877117011818 -0.12979492109407484 0.8018584778099245
H 1.1180295350504932 -1.2058925538322258 0.7760231670089363
H 0.7795999039994672 0.24665104453553355 1.773953814447879
H 2.000952369884225 0.3524111209949189 0.4800295442964727
H 1.2615524472043362 -1.017314804099269 -1.4870167633916314
