13
## STRUCTURE-ID: 64568bf19b1d77120540f1f0 ; CHARGE = -1; SPIN = 1
I -1.4439988714933583 -1.1066820321999897 -0.7206159183224669
C -3.1112858224972544 -0.42921145690915974 0.5317703140371708
H -3.328321965158752 0.5968868317623658 0.2551386791489494
H -2.780237943352256 -0.48137257221608076 1.5632030683293852
H -3.9403385764919205 -1.0982651566458135 0.3290112381252418
O 3.817897669513986 2.116130065602538 -1.5777142845528676
Rh 0.7382959386287945 0.4002328537288264 -0.25319171952332975
I -0.45968461141492856 2.105446036053903 1.3057769833419173
I 2.332767466352989 2.453746911353573 -0.5004796944605592
O 2.739529652569195 -1.2210305587913304 -1.8217327870845474
C 1.9606343516470555 -0.6554067966175942 -1.1625980157261864
O 1.440671872532999 -1.7025148529906364 1.3799287756102663
C 2.034070839163486 -0.9779592721306172 0.6715033610770806
