12
## STRUCTURE-ID: 645668ab7ef18810bc4ed2b8 ; CHARGE = 0; SPIN = 1
O -0.6747276475178827 -0.26376093629904734 0.06380220056418599
C -1.6813194025640663 0.44605421781955845 0.8182014658206895
H -1.6901166696641468 1.4793229523145757 0.4712334087087833
H -1.4874016406326689 0.4082053142019953 1.8900377530139156
H -2.6287525982931848 -0.03636080998172764 0.5755741001862368
H -0.6201101355774356 -1.2104225033259914 0.3615011152262121
O 0.6619392353510336 0.281136219214498 0.37121416132735374
C 1.3237564403702158 0.7059634537006421 -0.7842748734293136
H 2.2618673939214387 1.0833152973895988 -0.37479625769820657
H 0.7903304397011112 1.5127519088054593 -1.2908725123641396
H 1.5372986479329547 -0.11834114995684519 -1.4677243100725423
H 2.207235936972628 -4.287863963882713 -0.6338962512831676
