18
## STRUCTURE-ID: 64566fb102ed5161c1112990 ; CHARGE = -1; SPIN = 1
I -3.2438825072202215 0.2912835891114611 0.23356771176047958
C -2.488555618163037 -1.04513204716683 2.2448304981752303
H -2.9727441631245335 -0.36758082524099056 2.931971406537896
H -1.500022157759647 -1.3439910683233185 2.613435698607254
H -3.090679456946091 -1.9090082804080768 1.9991990550684906
O 1.955528625746653 0.027488872565566237 -3.6981978985516437
C 1.714362059104729 1.4877613015155786 -1.4149995480908815
H 2.4228677142738935 1.613724229809215 -2.218803603167458
H 2.220487288492049 1.4257070822411393 -0.45694598607888187
H 0.9846588151943813 2.2894566783395214 -1.413798783318636
H 1.7895766903640602 -0.6652985474912215 -4.3363564954251705
Rh -0.6453298312667788 -0.4844739766151232 0.5800104406976614
I -1.0600921306955289 -2.8469371456988974 -0.5281197545365345
I 0.7254093928669534 -0.34618876370387663 -1.7709144243482504
O 0.07357276776362272 2.3148209982329537 1.2971115860145732
C -0.21846403414824517 1.2348837921457596 1.0120758830021193
O 2.2148728785769283 -0.6549460163078126 1.3941146917276592
C 1.11843366694083 -1.0215698730050582 1.5318195219261062
