12
## STRUCTURE-ID: 645669a0672c0d6fa062319b ; CHARGE = 0; SPIN = 1
O -0.00995753875491954 -0.23858460948811552 -0.13055694995147843
C -1.3554813824037024 0.1582565725701247 -0.28547227017369897
H -1.4349587765571774 1.247519844830021 -0.37090794784283304
H -1.8858747686977528 -0.1776759222611738 0.6025644212983706
H -1.7975252576403804 -0.3027730598611103 -1.1752670689703082
H 0.6703357984011644 -0.14398819659553128 1.6827947485356238
O 0.9583197080521443 -0.22052640602747572 2.6043178420922026
C 0.8006594719534927 0.14048143544767763 -1.2217844202818218
H 0.4420501096787224 -0.3164824404868027 -2.1504935517219086
H 1.8053480789136385 -0.21360612720848407 -1.0039162376188493
H 0.8116598171005516 1.2294113074416078 -1.3417445384553046
H 0.9954247399541815 -1.162032398360688 2.790465973090032
