13
## STRUCTURE-ID: 64568d413b536b1deb09291a ; CHARGE = -1; SPIN = 1
I -1.9342139831194538 3.5817730358890145 2.1689022726532525
C -0.9241394987553485 -0.843269816569345 -0.9979974820315357
H -0.7825467168957803 -1.8559445521249103 -1.3671199373619438
H -1.8464364135455795 -0.4098841336795782 -1.3816433366676104
H -1.0003872576115544 -0.9025716112352974 0.13343454249178743
O 0.04237185361372849 1.2260330536406676 -1.7737083230052677
Rh 0.46369071367865544 0.10179851609170704 0.8628832293491846
I 1.8538983343997681 1.284798316257502 2.697355208397195
I -0.8008360261055887 2.2045797967602856 0.02773983461084921
O 1.3786771062711083 -0.5364454917710675 -1.6216230828276987
C 0.2776454100553113 0.008588040658720875 -1.4255656849435165
O 1.9288251736981654 -2.414662872642165 1.4293930164772521
C 1.3434513043165526 -1.4447922812755383 1.2479497428580562
