12
## STRUCTURE-ID: 645668df1a2b5b245d662c60 ; CHARGE = 0; SPIN = 1
O -0.4990392842854455 0.7268824940739522 0.2816754645808805
C -1.6745207830041753 0.2748722946743715 -0.25868416717258175
H -2.5183724373083707 0.8179291737932679 0.19237669125286982
H -1.8372942959097769 -0.8011736998986165 -0.08073794791744277
H -1.7150649534506457 0.4555339174577724 -1.3457792705551397
H 0.238268728828285 -0.07538952987803664 1.2000225284914245
O 1.101377870274947 -0.6342166873367314 1.3458905173124491
C 1.196242352638148 -0.1698686119955772 -0.5899814529468207
H 2.031545892961602 -0.8506083502702527 -0.4952300616886973
H 1.4691654612749667 0.8600494740342957 -0.7347857073709939
H 0.4466092531090425 -0.5442670769872613 -1.2660063608951633
H 1.761082194871442 -0.05974339766723026 1.7512397669091686
