12
## STRUCTURE-ID: 64568ef760fea04d32399e40 ; CHARGE = 0; SPIN = 1
C -1.3665725623432383 0.4297607164046469 0.7587960077080236
H -1.3769314984755425 0.16206505305285754 1.8141136623250549
H -1.977603271903804 -0.29270843766024607 0.19039467852909153
H -1.7925850611996943 1.4224520264994873 0.6124672424665318
O 1.0590661982470357 -1.381125010911374 -1.617962289993593
Rh 0.4466743182570501 -0.03305791452660819 -0.34350677281379194
I -0.014043464045202398 1.6940884133925276 -2.202045357812123
I 1.3574687180523939 -1.5190565245959493 -3.563998921507479
O 1.4764951061909024 -2.4673725276574556 1.0780886286615659
C 1.0234449300437078 -1.4940908267320245 0.7246014671913311
O 0.664602805871332 2.171313181481 1.636605954657294
C 0.4999837813050546 1.3077318512531477 0.9124457005880976
