17
## STRUCTURE-ID: 64568ba09efa80106a233624 ; CHARGE = 0; SPIN = 1
C -2.493321830578598 1.320552248308515 -0.33989555423287615
H -2.6619444990106773 1.8357313133330733 -1.2772410572514739
H -2.589853256263922 0.24695789268135493 -0.45920889562942013
H -3.1437127042818 1.6974635127374256 0.43970021536442333
O -1.972304882321146 -2.3923843442596433 0.8436759780129807
C 3.473645085519149 1.4776595379120732 0.23144906698119863
H 3.34266242549662 1.4189707685383057 1.305520375668221
H 2.769992668321704 2.1765876830228224 -0.2084127696453642
H 4.4958578438181895 1.7223668878701037 -0.03019655799321555
H -2.3345397748011205 -2.710235676787314 1.696527609939194
Rh 0.41348035800566557 -0.9481380502481587 -0.2406042808806969
I 3.0421285698752754 -0.49384663839503407 -0.5922173032112249
I -0.45832621063704243 1.715279064803687 0.25842462725484117
O -0.5911911082503664 -2.030499031955517 -2.841769416533233
C -0.23751855325208185 -1.6756481634541907 -1.80153234657621
O -0.24047967259463712 -1.582492138390081 2.0420555318817897
C -0.8145744590452082 -1.7783248657174309 0.9737247768510713
