12
## STRUCTURE-ID: 64566a606659303c4e304570 ; CHARGE = 0; SPIN = 1
O -1.1339987833360674 0.2823238635052707 -1.716929531840614
C -0.47124099609426195 -0.5901739898265063 -0.9323027433749231
H -3.3715754325063987 1.5039767896989722 2.6949264364005985
H -0.9779053187269467 -0.8802654926039257 -0.006904286946784762
H -0.19696948389438212 -1.4618443581218723 -1.5358538464786633
H -1.6544227729284384 0.928684390875466 -1.2184217191575766
O 0.807625310012177 0.0442025705785155 -0.49449200009926436
C 1.3295350474457723 -0.08359511996549854 0.8447975036849197
H 2.19245736915814 0.5698503582299931 0.93527608917802
H 1.6223665076827145 -1.1187366665992997 1.0204188078301883
H 0.5700026939716941 0.21838466209959861 1.5665263821367201
H 1.2841258592160056 0.5871929921292861 -1.157041091332627
