12
## STRUCTURE-ID: 645668b59c8e9d748a41e588 ; CHARGE = 0; SPIN = 1
O -1.1642165252667291 0.3876390023667866 -0.6445466257136092
C -1.8832727384953247 -0.4005630745785309 0.2810418631334946
H -1.3264720171821327 -1.327886044115766 0.40422919097376464
H -2.8843980761504735 -0.6358628969251028 -0.08961786742831393
H -1.9638267724178553 0.0987412480144404 1.2509881977229322
H -1.6407437847263147 1.2134302148629557 -0.7914547264407175
O 1.5861622135441729 -0.42124125293235165 -0.9886105584145932
C 2.0525744449143004 0.19985702029202834 0.18690568630818555
H 2.0476252612906563 1.290475401883332 0.08953554227445641
H 3.0767726216898557 -0.13701547809992992 0.34193687526038574
H 1.4494860293438534 -0.08274746663157379 1.0548721693443812
H 0.6503093434559025 -0.18482667413638562 -1.0952797470202564
