12
## STRUCTURE-ID: 645667d8e95ee83646610ab8 ; CHARGE = 0; SPIN = 1
O -2.5798291272649467 -0.09776216671528203 -1.3894583500683297
C -1.9458931172774903 0.22267470481731494 -0.16748445503339654
H -0.8930070564495373 -0.07016451375276456 -0.1726392469671904
H -2.4503747396108158 -0.2575843291745497 0.6771061134797217
H -2.0187466631786686 1.3030889559672285 -0.05451991758568061
H -2.4840928675950646 -1.0448101389224953 -1.543324122551015
O 1.4099926395858524 -0.7343912143389144 -0.02981351899912005
C 2.1160216472969178 0.24926016158066946 0.6950256196556309
H 2.4276760936722876 1.073987607320086 0.04733692979992576
H 2.9941679426975734 -0.1728182166622468 1.1921974476225345
H 1.430839841866692 0.6309442926319438 1.4502289792506144
H 1.9932454062572031 -1.102425142750985 -0.7046554786036977
