13
## STRUCTURE-ID: 645673dcf786794b006cdb3d ; CHARGE = -1; SPIN = 1
I -1.7169419417375325 -1.4511447198294725 1.7374147116495795
C -1.7119136128672656 -0.011673147859097748 0.09210794627943296
H -0.8349292211119995 0.8476872481737175 -0.6375739531583052
H -2.4165760905274953 0.7431021283864985 0.42893839109064313
H -2.1428334375364506 -0.5701813329884337 -0.7369527145877456
O 0.568555839885715 -0.9616817161397206 -1.671979838595005
Rh 0.5218317365423386 0.3692853674476905 -0.0662919545610627
I 1.791702388665536 2.2389242161819625 -1.742793894344763
I -0.14478395771106178 -2.7867316417187915 -1.6182124833807983
O 2.8391443785329136 -1.5173522307164153 0.2562515414522423
C 1.994693646953127 -0.7604980969973787 0.4289718928866169
O 0.6723419188329561 2.3083161792007263 2.19371759965691
C 0.5797083520792176 1.551947746858764 1.3364027556122133
