18
## STRUCTURE-ID: 64566f89e026a429e76dc16b ; CHARGE = -1; SPIN = 1
I -3.9534155126841655 -1.063229639858717 -0.5831964569578262
C -3.232685852840282 0.06771393013838264 1.0734206950060667
H -3.9564976985975027 -0.0012125335079794072 1.8735259488646632
H -3.0979542335019854 1.0892590165962288 0.7457776398083333
H -2.2840157829684755 -0.3588604647496954 1.3722185240313165
O 2.5999131046291963 1.0579391844341786 0.11152343125745903
C 1.117078530947261 0.852986377610299 -2.6480768598080755
H 0.8452875640750452 1.7776243472577933 -3.139565919702958
H 1.399568734302314 0.09118177155581254 -3.362743604599229
H 1.9064502813056239 1.013229787902391 -1.9199306585034828
H 2.5950619240510586 1.9159168525493617 0.5471773487660097
Rh 1.3054930472537551 -0.2959199149288644 0.9723993681828622
I 0.21031018272351243 1.6140927637322389 2.40598726367298
I -0.585796505406445 0.14618406010051258 -1.5745405261093468
O 2.9694493212660027 -2.4561149492017056 -0.25652171218208153
C 2.313248828286441 -1.6194526893304502 0.19252878925340783
O -0.3955860865879146 -2.3030365584476566 2.3818701923966
C 0.24409015374656884 -1.5283013418521207 1.8081465366233003
