17
## STRUCTURE-ID: 64568f63aa755827737cab86 ; CHARGE = 0; SPIN = 1
C -1.1547198542705839 0.31888585556983967 -2.0889301821514152
H -1.1411091186581228 0.7752835116552584 -1.059084095259776
H -1.6271115717527218 -0.656915762540621 -2.046452568156701
H -1.7540959956364768 0.983029562353325 -2.7020796726740794
O -2.2613744320360123 0.07328306922075334 1.0242296985789807
C 1.3999598256004737 -2.242342764973763 -1.2920085961847685
H 2.4586502309534093 -2.071447631420894 -1.3758895535400222
H -0.1535885260433829 0.2483521800603198 -2.503292086246852
H 0.8106224043618366 -2.62570691541358 -2.106018004891023
H -2.4422641301327417 -0.3654928588537423 1.8570245048650678
Rh -0.3959568184920711 0.6874381803617435 0.5938964188450455
I 1.8208278621396778 1.8470278950256716 -0.2672958891866008
I 0.49783002295136636 -1.8668998840945064 0.47093883299721984
O -0.3820126044118554 0.9980138700696668 3.5204612439298257
C -0.12069415132192626 0.8909102489540665 2.403838993616985
O 2.435905727139569 1.9377856548870591 3.087253263312381
C 2.009131129609566 1.0687957891394122 2.4834076921457444
