12
## STRUCTURE-ID: 6456672d9cb0912a6d399e4b ; CHARGE = 0; SPIN = 1
O -0.0616410200112025 -0.29878241562833113 0.04861317966854559
C -1.4102467439162172 0.09306485486545643 0.1893215700893391
H -1.4834189111031493 1.1425629811350353 0.4949694421838408
H -1.9213867163753102 -0.5308412696752287 0.9302750786719107
H -1.8778071942555632 -0.03737712162716753 -0.7837678037522993
H 0.8346349178641305 0.2544826024698362 -1.5545731162049792
O 1.2829100026359483 0.436603590407973 -2.3942350753693633
C 0.6707871272243326 -0.1817996840436698 1.2493590384632116
H 0.6816201653793452 0.8553047711181234 1.6022777881948744
H 1.68615786309303 -0.5033495922938162 1.029813203712911
H 0.24268808790576968 -0.8199536305011357 2.0297724272935804
H 1.3557024215588953 -0.409915086227073 -2.8418257329515715
