12
## STRUCTURE-ID: 645669ba586a9c7ce55c71be ; CHARGE = 0; SPIN = 1
O -1.6154866802790913 -0.3586113322028836 -0.7921894045888198
C -2.0992144193032765 0.1336892248904443 0.43480163639349007
H -1.582754392628952 -0.32871102609483743 1.2830570144022697
H -3.157410068705352 -0.12057353535680916 0.4858432131288502
H -1.9897901058380807 1.2206945936311289 0.5016950942599737
H -0.6780172492504473 -0.10396567181095717 -0.8687740214456033
O 1.1277439481182678 0.4386888724774376 -0.7952365819030301
C 1.9475946194212186 -0.21948923868301026 0.14983634304253274
H 2.8810857239879573 0.32518300962944996 0.311733428857633
H 2.1720645935053153 -1.2428514609676056 -0.16316465961483465
H 1.3896623897796085 -0.24808380932284782 1.0839395117503927
H 1.6045216411928347 0.5040303738104969 -1.6315415742828614
