12
## STRUCTURE-ID: 64566a596099c63f1b324928 ; CHARGE = 0; SPIN = 1
O -0.900125324706835 0.7629562292378965 -2.4956027248367167
C -0.7740232877356219 -0.7544225133820707 0.9973826512198856
H -1.1949066812423959 0.0781034208380491 1.5717941978750345
H -1.5725967078044907 -1.282964134646321 0.48223541622037763
H -0.2618220420104086 -1.4380388102907724 1.6829850697287232
H -0.46720216154264094 0.20450269932144066 -3.145853585287727
O 0.11095856842666336 -0.28505058983245346 0.00342453375116083
C 1.2039140154152348 0.4304113173888199 0.5382078347821738
H 0.8609325788195511 1.3089771801573358 1.0953912621873585
H 1.8140630286739707 0.7481472861415387 -0.303884148153947
H 1.7973330994642582 -0.2052424844079899 1.2041004999765093
H -0.6165250857572824 0.43262039947452474 -1.6301810074628353
