12
## STRUCTURE-ID: 6456685e03b3ee0abf671011 ; CHARGE = 0; SPIN = 1
O -1.0637205139935026 -0.7198648274065204 0.6163074843087601
C -1.1280729715137272 -0.38457716410984594 1.7725279598630188
H 1.2840107629662636 0.9633786843138747 1.8391638054904704
H -1.058235055859965 -1.1048819513341939 2.598309082404297
H -1.3796431304587466 0.6413988930338174 2.072639893321366
H -0.3178963874844781 -0.14315196472535188 -1.7093907141246558
O 1.0305105794079885 0.15081326384885857 2.289725137028707
C 0.14354957904970683 0.2004630044490514 -2.626432607869426
H 1.070682849075343 -0.3337183989397759 -2.788567668480828
H 0.3455409975593623 1.2615123748692059 -2.55707392680843
H -0.5264102071510431 0.015630137990866044 -3.4559166452320524
H 1.5996834984027954 -0.5470020519899803 1.948708200098789
