18
## STRUCTURE-ID: 64567377c6211852e3230d81 ; CHARGE = -1; SPIN = 1
I -1.9165221141120508 -1.3616483824323238 -0.569345572567226
C -1.9102358697410502 2.960147518240518 -1.1728404851890604
H -2.2732498910502934 1.9428851439291068 -1.2523946105946147
H -1.683912669376284 3.341781744611855 -2.1582667130571447
H -2.669833190489708 3.57556508512023 -0.710221741282914
O 1.0760880044549606 -2.6847199488347586 -0.4580708741329146
C 1.1042248556210912 0.9368866853831619 -1.6306573680009364
H 0.17538604561931087 0.9064381667273944 -2.170863887585298
H 2.059149155517581 0.9192334896376972 -2.121811198997983
H -1.0127797497402977 2.9705153487098386 -0.5660583483247066
H 1.9157659762448727 -2.8755085224399877 -0.889086094600529
Rh 1.0808640658053037 -1.8096618110154825 1.3561693560643022
I 1.044701391672227 0.7005713869479877 0.3756463491102471
I 3.729232694365853 -1.9853271891994317 1.5321216058990896
O 0.706932755014879 -1.1475142775814975 4.242126435428079
C 0.8851589437257431 -1.3131865829989158 3.1122585974011105
O -1.4728294493892586 -2.921184984511106 1.8688051886244592
C -0.8381409541428679 -2.155272870294292 1.2124893618060237
