9
## STRUCTURE-ID: 64568b16b9e2a706846c2b34 ; CHARGE = -1; SPIN = 2
I -2.828640698123849 -1.5710360890940078 1.252992644291136
O 1.6978244682919907 0.8267765397792932 -0.32217793451965643
H 2.6356908453494348 0.8648471669603788 -0.034393630403559965
Rh -0.8490564784905765 -0.5238724018400223 -0.13439134992087579
I -0.15709637683405442 -2.2132755339199752 -1.9913401773911747
O 1.4727116508012743 -0.8524223330743735 1.1489305145146236
C 1.013353914621846 -0.12438651754999053 0.28744704188578524
O -1.6776793297194812 2.3418517290286354 -0.14769026498804952
C -1.3071079958965917 1.251517439710061 -0.05937684346823344
