12
## STRUCTURE-ID: 6456676e6be3017757530d60 ; CHARGE = 0; SPIN = 1
O -1.118891973470312 -0.22671410873848558 0.0719117737178133
C -1.0594866102015525 0.4019148930830636 1.341074957012407
H -1.8992377056450596 0.08342468296584861 1.9623119233276398
H -1.0621861582346377 1.4895644185545132 1.2510429203521967
H -0.12917032034872672 0.08515638748839735 1.808083098103907
H -1.8709733659378025 0.13140278926119772 -0.41830074597235917
O 1.474042850145424 -0.6791098604377759 -0.0157755568744014
C 0.8566139580909712 -0.10752701893763598 -0.9656512401117215
H 0.3015917216900646 -0.6400367621862834 -1.7201423608250415
H 2.2345626450458558 0.15227461246864987 -2.3464011220878596
H 0.7650945516161439 0.9649952380915184 -0.9007526110071999
H 1.5080404072496272 -1.6553452716130066 -0.06740103563536973
