4
## STRUCTURE-ID: 645663458f564e1c2f230d70 ; CHARGE = 0; SPIN = 1
H -0.4410512003280926 0.40470368697331727 -0.930466082241923
I -1.7316762385142 0.01675157493592317 1.0829064969368054
H 0.42994766970236087 0.23526232190495072 -0.9915489544297764
I 1.7427797691399316 -0.6567175838141918 0.8391085397348943
