15
## STRUCTURE-ID: 6456b7d7e020f151f956edda ; CHARGE = 0; SPIN = 1
C -3.06638788106056 -0.849434159259511 -0.49003189518209095
O -4.1006206942936725 -1.3957531585577119 -0.7021219942628829
I 1.3944931521663935 -0.4804353598919956 1.483066318198767
C 3.3466955936403013 0.1035727720952393 0.664662300616272
H 3.489181275707253 -0.43086415734100547 -0.2701255452327444
H 4.090326671084841 -0.18676624424172938 1.3996149758625371
H 3.3385608664277036 1.178655263010935 0.5155117970031512
H 0.5823779203910743 1.8606852515432206 -3.282370535890977
Rh -0.41823934670646873 0.36561111258126683 -0.23895523637304217
I 1.2944715023109639 0.9559307374245735 -2.194308663385344
I -2.644759713056187 1.1263578728284669 -1.4897425644118338
O -2.0613397733443466 0.7596467409967262 2.173785661769322
C -1.6897237527834301 0.2032182406094253 1.1920589156747738
O -1.5509070073301725 -2.166926881044576 0.7727411288007633
C -2.0041288131537036 -1.0434980307533332 0.46621533681334165
