18
## STRUCTURE-ID: 6456891452d4450f51662c60 ; CHARGE = -1; SPIN = 1
I -1.974229358715571 -3.6150899572752833 0.9058836339898407
C -2.0749058696972784 -0.2101824684951432 0.7160133106567688
H -2.6083183653483006 -0.559249405863675 -0.17429931283305036
H -1.9020497994668013 0.8648290088668705 0.5987082638594404
H -2.771514756729736 -0.32399879015024696 1.5712924256470655
O 2.051617539027849 3.139432745734355 -0.8379833536677743
C 1.0298160067617657 1.0904843982718857 -2.3429954265144084
H 0.0062189231371980605 0.9838086866355047 -2.6796862309472074
H 1.5968900989746235 0.19601207176895466 -2.5671234029773635
H 1.4987014806182732 1.9766765724036506 -2.7441752102017203
H 2.282076539215401 3.6869394870074976 -0.08475571350018442
Rh -0.5541522967078841 -1.455248590099461 1.5404151832666597
I 0.26588236681545285 0.5859365923687588 3.0480900503386317
I 1.003089919341217 1.3422754953992673 -0.235217807622016
O -0.1493968209167184 -1.2167295095159423 -1.2027463173593054
C -0.09272759058815964 -0.6069434492954827 -0.17606846525795047
O 1.6335652939705911 -3.294858899884406 2.448190889694901
C 0.7594366903080744 -2.5840939878771074 2.216457483427692
