21
## STRUCTURE-ID: 645677e00508736157242a24 ; CHARGE = -1; SPIN = 1
H -3.8088331786822334 1.077065276436705 0.8608440517999346
I -2.7321244433945657 -0.16614037954412017 0.352270848701138
O -0.2739572567620708 2.151671390278529 -0.6226103655578434
C -5.057647420837319 -0.6766396981205709 -0.053906404279760574
H -5.428048540845175 0.09781754594097944 -0.7296567799602421
H -5.526393196678291 -0.7010161090822308 0.9328579096175724
H -5.039922154919591 -1.657812601499867 -0.5224215055357281
H -0.7704943369287447 2.9661475640927795 -0.8663502133570866
O 4.25307479649899 -0.3193998484826931 0.5120307869352759
C 1.706775696667866 -2.099106714947933 0.6599530249561095
H 2.376975441567959 -1.6409286896953008 1.3853698082706565
H 2.209978147086071 -2.167623659125879 -0.30807105576259913
H 1.471266238239604 -3.108533321476901 1.0005994365781485
H 4.890625548199974 -0.3418377569257411 -0.2074025325239884
Rh 2.244328536643242 0.8867835694788557 0.01625532594459912
I 1.9141650191773845 1.4065090768359723 2.5503821534219346
I 0.009078373248325482 -0.9826782630815238 0.4733959590588295
O 2.6097339979308947 -0.6455612558502534 -2.5004056221708044
C 2.3743246381222987 0.11845683438348115 -1.6208594013191426
O 1.519839760207577 3.460984055961697 -0.7842792331180076
C 1.057254335457809 2.341842984424004 -0.5279961916990251
