15
## STRUCTURE-ID: 64566e17fceb474ff728a804 ; CHARGE = -1; SPIN = 1
Rh -1.432997436358527 -0.09560791769339992 0.08720206167354476
I -2.099674090253056 1.0297928452663367 -2.2692205819235602
I -2.8606617999218082 1.5768822607830328 1.5632137245195692
O -1.7264915543290267 -1.8987338336480746 2.268509938483082
C -1.0249257234194566 -1.0225561977589703 1.7674578553009395
O -0.2717879769881902 -2.6492003026777153 -0.8854262429190188
C -0.663624856507341 -1.590142037998525 -0.602192758833098
H 2.185085842517763 2.4444572443149792 0.03456090679066696
I 0.8237803429127883 1.4365570552117888 0.18886927986657606
O 0.1339643801107136 -0.6729067844883454 2.3759103314274124
C 1.5876968141687382 0.7293483692743502 -1.719093562524471
H 1.322277688707216 1.4658286259404834 -2.4708369517185322
H 1.0973788220275544 -0.21388003346027304 -1.9355065423356155
H 2.6606656619847384 0.606467857401852 -1.6234585379422801
H 0.26931388534788075 -1.1463071504675277 3.2200110801347193
