13
## STRUCTURE-ID: 64568c9531fb8906fe4d302d ; CHARGE = -1; SPIN = 1
I -1.738921461007888 1.1946380208443328 -1.5773119329635716
C -1.3043938442994205 -0.7509269021217395 1.133724537216527
H -0.8605893048253264 -1.0167238194658423 2.0951636937577174
H -1.7469079563273773 -1.6471271922551636 0.6626290965843971
H -2.0769744183757792 0.0031351345821664673 1.2984289277837218
O 0.5391216200491555 1.2627002112418524 1.3361705049259012
Rh 0.08516402070056478 -0.2296634726545863 -0.30064650869655196
I 1.7665506339269519 -2.0436344389602272 0.6481562412930113
I -0.5442141435413678 2.5850261102340313 2.2246702475204785
O 2.3092568882360927 1.5001257450050924 -1.2717671924501366
C 1.501532283541634 0.6509328650275428 -1.2328821893522173
O 1.1747191737554528 -0.9789213743007771 -3.042906820756818
C 0.8956565081673004 -0.529560887176694 -1.973428604862457
