18
## STRUCTURE-ID: 645670c90bb08663375fdac8 ; CHARGE = -1; SPIN = 1
I -3.991076091414689 0.5920747708811094 1.3434878495108638
C -2.0393338602673023 0.5160864713202306 0.4820413566382017
H -2.010049238013389 1.2153688153715605 -0.3447302637644083
H -1.8708252151582092 -0.5053520712929287 0.1463168110767834
H -1.3272585862244863 0.7979257812971453 1.2552517046777818
O 0.5727407953804992 0.7976091253451921 2.827577771917688
C 0.22518276786113967 -0.2290328942372334 -3.6545280475229993
H 0.7005325278693811 0.7046630976643165 -3.3715303875083347
H -0.8391978398427071 -0.09649274607843139 -3.8059539542244405
H 0.6967931601582309 -0.6691213238380265 -4.524159310290889
H 0.9097095080946722 1.1655032001458694 3.667526533098736
Rh 1.0282350991729277 -0.4646046971239399 0.3550186064558073
I 1.3559741932924276 1.9114587119485569 -0.6443097047184145
I 0.4882716441780692 -1.63196046143347 -1.9926152672595796
O 2.7280753397865714 0.31965479074502445 2.523595660878573
C 1.586539542349355 0.2816095554491437 2.0699605183767513
O 0.8895991866589497 -2.765704248784044 2.2454675034649014
C 0.8960870661186293 -1.9396858773799868 1.4215826191930163
