17
## STRUCTURE-ID: 6456b6a67883f861fa230d78 ; CHARGE = -1; SPIN = 1
C -2.9994140097439854 0.088171752394149 0.5427287515968594
O -3.5490548836897444 -0.7839551981055695 0.05725108889002623
Rh 0.4762361099956861 -1.3206192434884465 0.24729883548691678
I -1.0600210781175265 -3.036202979379732 -1.0635263269400779
I -1.0570492216068372 -1.2807654028166844 2.4779291262577297
O 2.947485766038635 -0.07728592087886522 1.3272940053010576
C 1.916432432064266 -0.4733564364626372 0.9660488351214666
O 2.5647401814652877 -2.297799643563752 -1.4167636834821766
C 1.676902286386412 -1.4569113095200086 -1.298062604587971
H -1.6629805039113579 2.271769275011519 -1.113799666731013
I -0.7188804328949121 0.9211518370643698 -0.7243368603749045
O 1.494772485537447 -0.5372581835979638 -2.2714142525255987
C -0.5485977394989445 2.042777558455568 1.1149009281676134
H 0.2716362286568443 1.6257125714819785 1.6889770098329746
H -1.4890242114166679 1.90805850441383 1.642713586436647
H -0.35885244727791626 3.07824099198558 0.8533408900947759
H 2.095669038013329 -0.6717281729933339 -3.0305796625443326
