21
## STRUCTURE-ID: 6456757fd44afe2a68530d6c ; CHARGE = -1; SPIN = 1
H -2.5825184433628188 1.623167055862673 2.7016934842726754
I -2.248213293988947 1.6937018435847933 1.1487509480558191
O -1.4963625083328786 -0.3708217396809463 2.3281565272720646
C -0.7941365427207254 0.30398246527885076 -0.7303597064806657
H -0.3531826586975788 1.2622385477463434 -0.9593374484362202
H -1.7522995031126494 0.06598956440253878 -1.1607631545693295
H -0.4705256902949936 -0.2290408278408248 0.14899528824485866
H -1.6987263412038562 -1.176747542674884 1.8558972132244607
O 0.8111221948818956 -2.4802629277245996 -0.7105085151206894
C 1.3429099341648594 1.1685690890325715 2.4797000626748544
H 2.1230447375329926 0.7218266152923156 3.0810547219223996
H 1.6980409187299375 1.3572537759493406 1.4750014770169315
H 0.4569630415263845 0.542714090504025 2.4737080821936503
H 1.5960210361463365 -2.3779311514535704 -0.16309965948175312
Rh 0.6295200152688731 -1.0589838291836378 -2.132313911307587
I 2.853059641785025 0.06661174062062815 -1.3484816716454466
I 0.8197268215490084 3.0360924290986953 3.3556227370961573
O -1.4926178867641737 -2.935070754123785 -3.0782681889337047
C -0.7117252435456208 -2.159230371815927 -2.765476341096368
O 0.672738578232719 0.8258188004053237 -4.451480656871714
C 0.597161192206226 0.12012312672010719 -3.5484912880303803
