12
## STRUCTURE-ID: 64566709a114a05f6e3dae5b ; CHARGE = 0; SPIN = 1
O -0.17794730486614577 0.10077498764906072 -0.47837379106705136
C -1.281918751717681 -0.0765467625765834 0.35596249406488817
H -1.102351585910326 0.28962812676168836 1.368917751960528
H -1.6324451536215268 -1.1103033530593052 0.3594484928392343
H -2.036320554691348 0.5476714771451842 -0.12744563984454166
H -4.78558106007469 1.3984833301042823 -3.3509572504896776
O 0.9674492629405419 -0.7410114241147079 -0.045125101047409584
C 2.00038617229076 0.04745075773709432 0.580325785365871
H 2.3726429476122677 0.83227716961325 -0.07763746019623453
H 2.7914363562366624 -0.6598117534186341 0.8346639906554381
H 1.5940426355917636 0.4840428459303354 1.4923210395521562
H 1.2906070362097404 -1.112655401771639 -0.9121003117932326
