13
## STRUCTURE-ID: 64566e15596c7f38996c2b3a ; CHARGE = 0; SPIN = 1
Rh -1.5589670724111684 -0.5914558183316942 -0.020665661558697153
I -0.24555644402065693 -1.8288358058403105 -1.9477973342633053
I -0.27850177364555967 -1.7603070875179723 1.9622919961585765
O -3.182186467250227 0.6546815171777594 2.1575517270212665
C -2.548549553670093 0.21287892303912542 1.309593713441217
O -3.294669312910539 0.49788376216636077 -2.196263538040532
C -2.6097831934780737 0.11701192461541558 -1.3575075336684403
H 1.8918120995477172 2.456297925026528 -0.04472199853866145
I 0.8964102597735377 1.2048087515319472 -0.40295030320406316
C 2.5529862180918683 -0.09221351801665549 0.085716824677977
H 2.301806427741191 -1.0805893394741932 -0.2891903429367236
H 3.4236102736017133 0.31157585191731846 -0.4244224144482579
H 2.6515885386302926 -0.10173708629364268 1.1683648653596446
