18
## STRUCTURE-ID: 645673716aa8041c652b66b8 ; CHARGE = -1; SPIN = 1
I -4.231239912617141 -0.7747467672962758 -0.9661363505144844
C -2.4572535206047967 0.2823708765183083 -0.4334911728070655
H -2.426264854005683 1.19821061815615 -1.0084129367937908
H -1.6077196846573438 -0.35153927560086795 -0.6616232489646755
H -2.499130937330721 0.4955381980343111 0.627221025742333
O 0.40261618002211813 -1.366271309655312 -0.8374741685500053
C 1.013526866925882 1.7272991186280104 -1.6071962713022394
H 0.75019152040481 0.6878042524365175 -1.7792634250260102
H 2.0708918725144554 1.88972594193149 -1.7769834257005994
H 0.4023167500892309 2.3976394549060567 -2.196717591580351
H 1.0341406744389827 -1.8013912083793366 -1.418691361264199
Rh 1.1577185714704985 -0.9887550631156243 1.0508721693767091
I 0.6186658988075701 2.1170955304186307 0.4746622279780748
I 3.589415386180353 -0.7914928250043112 0.06975505738241994
O 2.275760654368017 -0.6242352446270706 3.7948153575588544
C 1.8331715161075766 -0.7308130818219049 2.732152717882701
O -1.458900371549075 -1.870530661055136 2.1975088187215714
C -0.46790661056483873 -1.4959085544736088 1.7390025778609015
