13
## STRUCTURE-ID: 64568ae37d068720fd28a80d ; CHARGE = -1; SPIN = 1
I 3.3014642641517904 -0.303456887818725 0.5319232497593553
C -1.3919301538995494 0.5069516591458819 0.9030719761448676
H -1.8462792575098732 -0.4743537455215042 0.7165739617065435
H -1.8834520070189362 1.2005849248830023 0.2228364198290799
H -1.6022447325973523 0.7929262542582776 1.93620528500715
O 0.8747240121424813 -1.4884727742271233 -1.7879574139066539
H 0.7727473505242912 -1.6182391786189596 -2.7539548060795256
Rh 0.6584119586561495 -0.2691644291624207 0.5931547737090234
I 0.3126436990281624 -2.7123419982864534 1.5420997064159219
O -0.11175022538489125 0.5080095231096179 -2.0480468226379167
C 0.40803382339907185 -0.3293564164294499 -1.34842448772715
O 0.23009954722520493 2.6675640851685642 0.8277605617486984
C 0.2775317212833767 1.5193489834988556 0.6647575960306531
