18
## STRUCTURE-ID: 64568c031b93d6590e4609e3 ; CHARGE = -1; SPIN = 1
I -2.818582989183783 -1.4575600525429044 0.5083554221129798
C -1.0205480618213962 1.8340755695141113 0.9130213330598341
H -0.762030624710348 2.0049207220551435 -0.1262180662740749
H -2.0814184348924685 1.6447052466986334 1.0419371237721977
H -0.6744539689195607 2.6307095198337693 1.5632427743497417
O 0.8731494118266518 0.5116304878614171 -0.9586310515490455
C 1.8187248569532202 1.1449761996237333 2.0457135331329286
H 2.169867535452293 1.6240924769234317 1.137768997485258
H 2.53827846830299 0.41565808024357354 2.405827546162201
H 1.5574570244842285 1.856981301825157 2.823033113067864
H 1.7761213591642981 0.295796480705734 -1.1969028018798624
Rh -0.4716490765211277 -1.5758352621846885 -0.730381117291869
I 0.0292719890646999 0.08111273902803894 1.5137233454251142
I 1.6553834130855534 -3.1143219616035456 -0.16747802120623295
O -1.2131688734192059 -3.7354436284831958 -2.67811205768132
C -1.0328427594835368 -2.605037103213166 -2.274249872618461
O -1.2415332820479095 -0.302842752254323 -3.275938515478056
C -1.102025987334605 -1.2536180640309091 -2.5447116845891866
