18
## STRUCTURE-ID: 64566e7c27f29c54e0493a6a ; CHARGE = -1; SPIN = 1
I -1.2222536100867523 -2.3904983716725083 -1.879921925405277
C -2.0184184317521088 -0.7060609158632823 0.9224777380705458
H -2.6648617241152404 -1.5835609234985317 0.9764442848915887
H -2.438228989282082 -0.01622389612371033 0.18790021357585535
H -2.020733869696591 -0.21452941688485325 1.8979179832473525
O 0.21619942379704132 2.5659546293913054 -2.841885254478157
C 1.3286202578446105 2.053029225784566 -0.4165243103712305
H 1.6312032050376135 2.8187873772435403 -1.1151541588228915
H 2.1842401352602474 1.4865154410029353 -0.06438813353686873
H 0.7756402508371324 2.482513754827058 0.41044048377808784
H -0.26693903671125085 2.427056925410117 -3.655951957829246
Rh -0.07171350712691 -1.3163330451707027 0.2884519791704899
I 2.545149884564634 -1.9382213583099939 -0.45607119299527255
I 0.05306711404829747 0.7469243321680622 -1.4918902546721795
O 1.0441370391264626 0.5013800623044872 2.370490593362292
C 0.6056402964113199 -0.1820375141740405 1.5571983884024814
O 0.3548333175623571 -3.7805818816333887 1.9972148034768662
C -0.035581755718775684 -2.9541144248010713 1.3132507201355794
