15
## STRUCTURE-ID: 6456b83e89a8e72a111a562e ; CHARGE = -1; SPIN = 1
C -1.9040769331136402 0.7255584557231692 0.42527967815135237
O -2.9606593645624573 1.0751299396744987 0.6913815494251373
I -1.3275651955869594 -1.054131120764207 -2.0982644401604222
C 0.9573536867541877 -2.223382921978012 1.108722382770299
H 1.8384963518538597 -1.6679140190528599 1.4332925954440565
H 1.159844798964142 -2.6266666164101795 0.11513547107958719
H 0.7629268571505508 -3.04048284844746 1.8030827953341033
O -0.4490358424365951 2.502296924711777 -1.5480521007174195
Rh -0.1985027013943392 0.28550494516196706 -0.09568517111437383
I 0.6407471539678447 1.8001565184254067 1.9248369981248794
I 2.2190335219491564 0.15318464603702628 -1.186735762998592
O 0.6575511277864668 3.8034677611071466 -3.069594710158692
C 0.11241863559349388 3.1516708171774543 -2.3120112377198634
O -1.252962756226039 -1.5405603592573547 1.7207171980350895
C -0.2555693406996599 -1.3438321221083749 1.0878947545048652
