12
## STRUCTURE-ID: 645664b8ea1a7e6ac16aac60 ; CHARGE = 0; SPIN = 1
O -0.8904134769097322 -0.4847821112198211 0.13872241290336734
C -1.235302620268635 0.2782768996703817 1.2838146836365985
H -1.056307945206843 1.3266584695893655 1.0525174771672705
H -0.6515695237635953 -0.009009674823598261 2.1571791056500245
H -2.300009370150636 0.11593467261294821 1.4693692714794833
H -0.9254468881238724 -1.4428536638994205 0.3456297655254095
O 0.8209656828049783 -0.36845926956922614 -0.15278373124979222
C 0.9083916949076625 0.18897359389160412 -1.4208157603165354
H -0.052998718847147526 0.6592646399751396 -1.6520531716915159
H 1.1428197162997167 -0.5631067714696101 -2.1789948126144503
H 1.655511119500852 0.9848344280448605 -1.423883234690748
H 2.5843603297572475 -0.6857312128026294 0.3812979942008917
