12
## STRUCTURE-ID: 64566dae8c06bc536956edd4 ; CHARGE = -1; SPIN = 1
Rh -1.420526345395712 -0.03360549340545157 0.0818316524826637
I -0.9017392188056029 1.510469203949237 -2.013059515457021
I -0.6992829428802839 1.7860907154996148 1.872598661984135
O -2.599667031466955 -1.529807917888692 2.3803165506836885
C -2.110829716112082 -0.9768178882256859 1.4939909164421266
O -2.656258115106798 -1.9237903924028081 -1.8700625471616492
C -2.160327590815322 -1.2077941691717045 -1.1141367335734853
I 1.5573185569931822 -1.1899514951524495 0.04409901517906752
C 2.628401764622647 0.6779819893104535 -0.19149477091368683
H 1.901264137272147 1.4559450664838418 -0.3941927299384103
H 3.3084327622205913 0.5587577817932657 -1.0252713906405089
H 3.153213739474149 0.8725225992103622 0.7353808909130735
