18
## STRUCTURE-ID: 645689c5fe0ddb007d5c0afd ; CHARGE = -1; SPIN = 1
I -2.813753301953801 0.7841226114635718 -0.08946850521911308
C -1.4003959069044611 -2.4644048127104172 1.4144068439832924
H -1.0652272058524108 -2.474962187538617 2.449899273219526
H -1.3068561571189452 -3.459916532291922 0.986864548231766
H -2.457510995062399 -2.1841797204867133 1.3846854422813488
O 1.7711571139704025 2.3607862895442624 -3.0353716608155117
C 1.0989496546455637 2.4918661984578154 -0.3923388659976327
H 1.5677095615199683 3.2602459493489566 -0.9890208061680011
H 1.7705139271487342 2.129852723243751 0.3782609510734695
H 0.1676759754553111 2.846142040313252 0.03693728323852235
H 1.7844433145817937 2.0474372790093587 -3.939379976811495
Rh -0.5815066031352546 -0.7354963009227998 0.1365445169592877
I -0.9814143792936905 -2.1139442155090813 -2.1261196655571717
I 0.6565789204050528 0.8867627310054528 -1.714709416402449
O -0.043384760156695464 1.1022742089076638 2.427564387818158
C -0.21124094533254692 0.39500880548042683 1.5387932231900354
O 1.4057694403658405 -2.836434115430075 0.918308016033903
C 0.6384923467175424 -2.035160951884888 0.6141444109420768
