18
## STRUCTURE-ID: 645689d28ba1761f9c7c7c40 ; CHARGE = -1; SPIN = 1
I -2.640662427364216 -0.004194791346682704 0.4787347985172591
C -1.8021701649201958 -1.515423160177537 -0.8710504726537058
H -0.6995674439816318 0.6181227690724013 -2.293527875414704
H -2.6631791271594296 -1.7041672869069866 -1.507497901860488
H -1.6241440313488482 -2.38264635842643 -0.23564174509675265
O 1.0317469320811539 3.3856934163353314 1.9767568990097522
C 0.4899802720041211 0.7710169662375176 2.17355453172485
H -0.248708960076145 1.3464660685387064 2.714735823288544
H 1.4350117867805723 0.7990896401325968 2.7004525451784676
H 0.15960905688140903 -0.24775864990725815 2.004288360284076
H 1.2796985078305987 4.2245147001721595 1.5898994084288274
Rh 0.158814903368919 -0.32304726525462074 -1.404316914032795
I 2.2783822749716327 0.4304607015364936 -2.83927717349212
I 0.7927489601651995 1.7456477975358573 0.29436603727277016
O 2.1894208488842626 -1.4382905910663577 0.5401902235231658
C 1.3621060277800392 -1.12969827166425 -0.20095897169751098
O -0.8777144218113851 -2.782224996763561 -2.8459113359588755
C -0.621372994086029 -1.793560688047368 -2.274796237020698
