8
## STRUCTURE-ID: 6456644a4393fb036f2eaab0 ; CHARGE = 0; SPIN = 1
H -0.32745491931995174 -0.7093300259397445 -1.5113220600561774
I -2.4247100596719027 0.34725934274331294 0.05035618895159377
O 0.48246823808083006 -0.28728505239126556 -1.1926703693433336
C 0.3631347453386645 0.009236050801264757 0.9203855149380675
H -0.1446745461440603 -0.7799515154159935 1.437980226971686
H 0.14400591441679836 1.0175699692566629 1.2108778366697535
H 1.385329871457684 -0.19696500953482068 0.6583819816251373
H 0.5219007558419332 0.599466240480583 -1.573989319756731
