13
## STRUCTURE-ID: 64568a0a42ce8f7cff374187 ; CHARGE = -1; SPIN = 3
I -2.405484785652731 2.504383149458047 0.4052820234335324
O -1.2667749612344879 -1.5819932369735827 0.4472799204276083
C 1.343441160036648 -0.8168950046295401 0.4844576486160745
H 1.1892669362745474 -1.8724350370349823 0.6877487855511724
H 2.3771146142139994 -0.6012403647398864 0.21901852566059993
H -2.1794604852506634 -1.9225396029220474 0.4092757061743845
Rh -0.0597827569873547 1.7098345106934996 -0.34111805363093783
I 1.4743916758820976 3.808891179399053 -0.2724880858529471
I 0.9194567058791285 0.24786498850588295 2.3150970319582935
O -1.7024269364715114 -0.7423926068530419 -1.59755710035536
C -0.9484871244906957 -0.8623204626807074 -0.6392801375445634
O 0.8504894696972078 0.41880291145519283 -1.5487579186405707
C 0.4082564881038164 -0.2899604236778818 -0.5689583457972885
