12
## STRUCTURE-ID: 6456672c48bc9622ac2a157b ; CHARGE = 0; SPIN = 1
O -1.1763341719622706 -0.2570348158120288 -0.24870283227488502
C -0.9118871494519234 0.6813460258119457 0.8259674018882299
H -0.32754430732087425 1.5069100240862001 0.4230058812221962
H -0.36872268062426106 0.21497697147726877 1.6466758584172083
H -1.8748277882142903 1.054972346224149 1.1681660538892604
H -1.6654507730896257 -1.0306328160149623 0.12630178208421172
O 0.7773580696167801 -1.5563851973596479 -0.14083759013582198
C 0.03249998473441822 -0.7739717117263575 -0.9585651720786468
H 3.8693434370844555 2.5094064947881094 -0.03018824465696098
H 0.539383233056703 0.11109987001753475 -1.3515937119774142
H -0.3811008729860709 -1.3825029241521496 -1.7686039667622289
H 1.4872830191569524 -1.0781842673400845 0.3083745403848762
