18
## STRUCTURE-ID: 6456b87a33c5c02b0e5a8523 ; CHARGE = 0; SPIN = 1
C -2.7421159411410136 0.23703520011924473 -0.6573271028617587
O -3.05832322646589 1.2335548426971634 -1.1526838360584704
H -1.4066533591796786 -2.0649289847148955 1.1757280176837788
I -1.1013198176144365 -0.5231379369100277 1.5209893133964119
O 1.658300887506615 -0.9929442085051379 -1.049075055021928
C 0.5317639790886852 -1.145620371795785 2.79145303473145
H 1.28379693501253 -1.6053269817905322 2.1564389220834053
H 0.1259981872025375 -1.8409728206776552 3.5206763246246657
H 0.9234441239415961 -0.2575106091092564 3.2823884341202945
H 2.5831655939354166 -1.1734933823848157 -1.3070927308975986
H 1.0419696025729324 4.087319676345063 -0.9851246526981317
Rh -0.3401067881573622 1.072001791097582 -0.3006892708914843
I 0.5933443569290178 2.93946562776142 -1.9945141026540352
I -0.2108938787397892 2.5238320742972027 1.9893488112530051
O 1.268014886798785 -0.7114208663467503 -3.2482612064118137
C 0.8757152445813948 -0.7212421968952044 -2.0991955549226824
O -1.551554351248561 -0.770721037900679 -1.999105092488173
C -0.47454643502273935 -0.2858898152868401 -1.6439542529868856
