12
## STRUCTURE-ID: 64566acc8d00fb53b03ae5e0 ; CHARGE = 0; SPIN = 1
O -2.288590755228639 0.04130945064152234 0.5852201662540735
C -0.07985828538248375 -0.2524816678319156 -1.0669044295900185
H -0.3147475279303875 0.211460647478155 -2.0134713729441027
H 0.11137047721750268 -1.3221312380448837 -1.027032561344614
H -1.4863403420523746 -0.06813753495154913 -0.051724397235190164
H -3.006239757721185 0.3624873211501804 0.037904308090811197
O 1.0420413139416518 0.6033692097991986 -0.3444007171547526
C 1.171524380778432 0.2055353845567392 1.0102052324596393
H 1.8972417507941672 0.8784355910767402 1.4645290832312865
H 1.520190342759631 -0.8257604117301653 1.0939283775999276
H 0.2030517292530228 0.29303422336577134 1.5072345175733461
H 1.2303566735706681 -0.12712097550980306 -1.1954882069404122
