13
## STRUCTURE-ID: 64568c77652dc85e037cab74 ; CHARGE = -1; SPIN = 1
I 0.1397180723754727 0.7916343083340518 -2.766214550451948
C -1.354799563572419 0.4183558351828673 -0.031639129981226165
H -1.0126002500671283 -0.5161414942771296 0.5857645350935851
H -2.0233096051268324 0.06821298992222871 -0.8140123837905379
H -1.8649526870874735 1.0617624758938369 0.6883681014670311
O 1.0943329533705246 0.2691338191012359 2.055992079664001
Rh 0.6912935403081577 -0.7245397195702515 0.3210643003344772
I 3.2122381051455444 -1.359877916209368 0.3800738897758834
I -0.003964592728132416 1.560763589007451 3.042726006452995
O 0.4184677185668598 2.0942308036163 -0.12724661589914682
C -0.13218278638000333 1.1035076413584033 -0.5402569933939821
O 0.3749452668035554 -2.8188147790556046 -1.7687529859719022
C 0.4608138283918767 -1.9482275533040165 -1.0258662532992295
