21
## STRUCTURE-ID: 64567c07e74f4f70491dbeae ; CHARGE = -2; SPIN = 1
O 2.5894178872525493 1.2288554144995052 -2.270380201619519
C -1.3442684753901166 2.160601794519142 -0.07602484331998285
H -0.4688830604575092 2.6322401370949065 -0.5070672857231185
H -1.2805768302351264 2.2138044703775472 1.0067938791042204
H -2.2532712852822354 2.634276832886969 -0.42699565944480844
H 1.2285227084575296 -0.6589697898401209 -3.544492265811024
Rh -1.1747614081008513 -1.8629211172980273 1.1479156362743883
I -2.1544904139880363 -3.0240703651374874 -0.9958830707636102
I -1.3633969883643353 0.10955689463037378 -0.6210876581690241
O -0.9506457468772431 0.15446659543699018 3.353083651033398
C -1.0319889072456108 -0.6697084750193522 2.5476892333680863
O -1.495323131201633 -4.2859968042378735 2.874603107457448
C -1.3874870032079936 -3.3525865271579978 2.2264816569013752
O 0.7702463984112182 -0.9574759404340517 -2.7529210317519173
H 0.7153500297618183 -1.921914694799363 -2.8098462260519885
Rh 1.5496355769142747 0.2572333847255022 -0.375886528278178
I 1.7291758269923871 -2.3914568754350567 0.32263050067299515
O 1.7782620064396488 3.0794573491599984 -1.2289977419447942
C 1.997407261222264 1.8673470759725677 -1.3718901213500867
O 1.2301157622659233 1.6923384368109533 2.2608686578546355
C 1.316959792633066 1.0949222032447585 1.241406311561602
