12
## STRUCTURE-ID: 645665e059b56c2b852eaabb ; CHARGE = 0; SPIN = 1
O -0.9466680729303556 -0.1820682027175156 0.7762317469183235
C -0.5687150318826949 -0.7098652364249939 -0.37787492596196315
H -1.0193997307489582 -0.32781450362261333 -1.293579846625191
H -0.5115749848797055 -1.7974721821058355 -0.3214795538704098
H -1.2983326308133214 0.7210394297751775 0.7141681831445265
H -4.840607147893495 1.639893650873522 -1.5704313953596194
O 1.2582432297128712 0.6532896627087182 1.1881570669615782
C 1.695841848652468 0.14524630480687664 0.05297338794315166
H 1.9606854149832336 0.9217709595905668 -0.6648306207033866
H 0.665713997759944 -0.3883951750178498 -0.5265547450892555
H 2.384468776118011 -0.6998539493538658 0.09260478092731633
H 1.2203443319220169 0.024229241487833893 1.9306159217149157
