13
## STRUCTURE-ID: 64568bfb94dfd84050071020 ; CHARGE = -1; SPIN = 1
I -0.8008302911213259 -1.4940852141215317 -2.444927194465514
C -1.4989835173235888 0.8032921895509281 0.03261967295317116
H -1.8891829777075657 -0.04293388470224152 0.6156534258539509
H -2.201732004800747 0.9778793172429576 -0.7815952219292897
H -1.4449270643233312 1.6732003392013082 0.6853788683411915
O 1.064367843261956 -2.5418847696451903 2.4816883769147924
Rh 0.41614232039243654 -0.28950212026454897 -0.4247951094749206
I 2.93043156878324 -0.7751962525454298 -1.3881306375334181
I 0.24087757001319005 -2.6924214062108196 0.8039547946336452
O 1.927223260968055 0.37702233327653856 2.065927260719612
C 1.3094065012086618 0.20494108681539103 1.125298031491148
O -0.06867876324145414 2.4128077402766728 -1.6382177658432726
C 0.01588555389046499 1.3868806411259673 -1.1328545016610962
