19
## STRUCTURE-ID: 64567afedfbe165fea33a737 ; CHARGE = 0; SPIN = 1
H -2.0411728088995638 -0.11763178359040086 -0.3263843762352811
I -1.4350933583176482 1.1882675840944474 -0.975007458650807
C -2.8209691640301497 2.218802290903112 0.605416871257372
H -2.6417810563278645 0.9370229151981224 2.3824448244871537
H -2.7997290433054256 3.2778405190656317 0.3481739873944313
H -3.81855282887709 1.8134142063746268 0.43925571390795726
O 1.386205521493889 -3.6019262697626035 -1.1894461326800936
C -2.2652570392954154 1.931663155547305 2.019043527318186
H -1.3132122037770078 1.2967686688679116 1.9649433430241399
H -1.4468925779709267 2.674068219293591 2.243647411568671
H -2.914300196967777 2.449865016022102 2.7660560788765753
H 1.867980354999998 -4.429399039020621 -1.210708167845228
Rh 2.456994411034029 -1.7447876349176097 -1.2120550598092559
I 1.1026828294203257 -0.8331340017395746 0.9348122415139778
I 0.4629111643795277 -0.69661500384554 -2.702423351218576
O 4.2632318386318 0.5955922368334351 -1.485131590099734
C 3.4958806110420646 -0.2730273596867815 -1.3371365485240698
O 4.594202944815036 -3.791912450422187 -1.7342487232266228
C 3.866870601952249 -2.8948712692150007 -1.5312525910587973
