20
## STRUCTURE-ID: 645679adfeb257297d1aaa0a ; CHARGE = 0; SPIN = 1
H -3.636733527965143 -1.2364091522438765 1.842985036418876
I -0.3198275768470559 0.0556152074588383 -0.2009488668722158
O -2.704562184527796 -1.03689070164128 1.5728052774727401
C -2.6669044755251448 -0.39640457997429024 0.2834617624218567
H -3.0388770159206295 -1.0859237567786655 -0.46942012695433555
H -3.1582271709377556 0.573223152727003 0.27285281057156147
H -2.241122397798356 -0.4775356729698251 2.2395071990262556
O 1.1334267877893023 2.5458774328020013 0.7738199626311811
C -0.3892464184901781 -2.11525337626185 -0.22479395063751584
H -0.8236252042070584 -2.4169933000301085 -1.1715712116698025
H 0.6330390178681384 -2.466755175083839 -0.15597628101836392
H -0.9604652603565488 -2.450099450860618 0.6345520534018655
H 1.2309574356572048 3.3722508461833867 1.2864323635148855
Rh 2.2402757047998474 0.4826336857738541 -0.8495714545199947
I 2.5325853459913805 -1.6500043870641021 -2.4945988028912436
I 2.8032454687555424 -0.7604795151092268 1.3994191582944193
O 3.306430019422863 2.8017461203572753 0.30699764661723183
C 2.2783029126707715 2.1335313487662626 0.19778681760121927
O 1.852676785555383 2.487398958129897 -3.0169142584636743
C 1.9286517540652088 1.6404723158191536 -2.226825134944951
