12
## STRUCTURE-ID: 6456688259794848c01d80bb ; CHARGE = 0; SPIN = 1
O -0.36216120141292607 0.37530576457055426 -0.12680217729777343
C -1.0073305650962068 -0.3240884527942626 -1.222535058308022
H -2.075019539613566 -0.13008365137907868 -1.1518864648096494
H -0.8187279588673548 -1.3870554938384136 -1.0792327337233834
H -0.6154261343535193 0.0017590389474450238 -2.185443765171219
H -0.7389228167582608 2.1199699864138597 4.061938586546387
O 1.084900788333163 -1.2968020116497 0.5546592222674415
C 1.0746090032471058 -0.040592765330137205 0.07079764920971889
H -0.44881289114707806 1.3462127117463363 -0.2405423924846135
H 1.5611493296940262 -0.04618547893958064 -0.9102815484540977
H 1.4974767705911938 0.71785117077439 0.7362849019417013
H 0.8482652153834453 -1.3362908185214277 1.4930437802835108
