12
## STRUCTURE-ID: 64566abc255a477623304581 ; CHARGE = 0; SPIN = 1
O -0.014575392804949556 0.04129401431495156 -1.2777873357797036
C -0.6508807761147808 -1.1294445680733922 -0.7047257972795291
H -0.6272581329017117 0.7444591431237815 -1.5772984572605095
H -0.15488870775219019 -2.0415200949567986 -1.0260734545765087
H -1.7319541939320469 -1.1601928996935265 -0.7632430545352281
H -4.759678855070856 1.7068408800543988 -1.8878319487103605
O 1.1964355230577648 -0.4258928882316893 0.7680049395748162
C 0.010138361706328232 -0.253751861574551 0.26483770920165184
H 2.653109115721757 1.3023977901388053 2.3147247510180207
H 2.9647741841319237 1.9161880606089108 2.6775859009016485
H -0.5755177922857575 0.4893020069210382 0.798250541859502
H 1.6902966662445174 -1.189679582631936 0.41355620558620426
