18
## STRUCTURE-ID: 64568b991f3eab4b2373b9e8 ; CHARGE = -1; SPIN = 1
I -3.2453409959551567 0.7215279200252972 -1.7695894137359245
C -0.45632834187477656 1.842591888165887 1.916925771969388
H -1.4870025105904283 1.6693282710147122 1.6162154631047685
H -0.22515488898146344 1.3230958826626662 2.8407290631450177
H -0.3253632334260786 2.9139276598557102 2.0605392246689163
O 1.6000810017424645 0.8674887542688553 1.3050607884928973
C 0.4165631630826117 -2.9171547591578317 0.775062595891816
H 0.9022439456585035 -2.3500192025555124 1.5606275774443115
H 1.0992962938360227 -3.099579112789683 -0.04874569386354771
H 0.005221942212946435 -3.843176725434298 1.157176790555817
H 2.2261225038389454 0.6104907694428101 0.603580708055316
Rh -0.7164628946256821 -0.11976427442397752 -2.0196609482043906
I -1.2398587008699957 -1.7282357227840317 0.012798289468982342
I 1.663815399802901 -1.1970898371873102 -2.5015991746609174
O -0.42657982187396476 1.508372713010503 -4.478071146491964
C -0.5339846063169154 0.8803363594892052 -3.5030835369318836
O 0.2660063921630289 1.518264224518604 -0.3613262647876602
C 0.4767253521770276 1.3995951918783773 0.833359905879099
