18
## STRUCTURE-ID: 6456724d20ce7a79f92eaaaa ; CHARGE = -1; SPIN = 1
I -0.6870180503872881 2.6526240933991816 1.7354661185292832
C -2.2628883848849974 0.8317613022430526 -0.9709754845832715
H -2.445692645145129 1.2753409278026697 -1.9593818584324314
H -2.9460209691512333 1.335442432674913 -0.276354032029511
H -2.588507380115651 -0.21327288330826882 -1.0483048567987931
O 2.1884431316788184 -0.0955273286713009 1.2362547732081328
C 0.3568810547920519 -2.9790748667648783 0.9882388724609155
H 1.406909367972095 -2.7115022959331627 0.9456556026805553
H 0.0031765705007026175 -3.3144834148676163 0.01877935635653989
H 0.1580201265177391 -3.7079754525828843 1.7659238090265377
H 3.1278536795072935 0.0030797976752522075 1.4945965616767307
Rh -0.17685370735502742 0.8795245663849915 -0.2296764970265328
I -0.7455868079007908 -1.1748797308878063 1.5103763897722329
I 0.6622803659236683 -0.7971065403786508 -2.1250702658606593
O -0.22645172696095833 3.109228421915988 -2.1760123499999544
C -0.176751744407162 2.2433178799970808 -1.4186533371591084
O 2.5769270825554793 1.7629722136639359 0.084618826873298
C 1.7752800368603792 0.9005308776375084 0.424518371306034
