12
## STRUCTURE-ID: 64566b49f34c922b0d2b66b8 ; CHARGE = 0; SPIN = 1
O -0.7836638712121033 -0.3653613550093958 -0.42574649998683195
C -1.0571385339592387 0.09111706182067301 0.9233962840838862
H -0.15056667355979264 0.19557756993695022 1.5176643473595879
H -1.7112242867107958 -0.6439884584334038 1.3876519998048833
H -1.5797520275010382 1.0431005677719043 0.8469478696589826
H -0.3318547230010321 -1.240843579454642 -0.3929178630204691
O 1.3769941566878745 0.38036793024050786 -1.0277705878903338
C 0.055375676095757574 0.5520771580057311 -1.2609788281559917
H -0.1577302538961849 0.23846581309191006 -2.2874713206626143
H -0.3327189155177211 1.555672510215515 -1.0622635810379601
H 1.705486278678616 0.8692206373307545 -0.2600112052811466
H 2.9667931738956606 -2.675405855516495 2.0414993851279934
