12
## STRUCTURE-ID: 645667462fe3e43ba64b6601 ; CHARGE = 0; SPIN = 1
O -0.49509070328069865 -0.25244964940419606 -3.0615670920754203
C -1.4237234446398548 0.2593709605444471 1.9329130247389463
H -2.2634847853410585 -0.3252468807792791 1.5803757721981615
H -1.7531678491615876 1.2655003316429148 2.1572814571783843
H -1.0191911117192813 -0.19544897729542002 2.8277056033070744
H -1.3110992992648007 0.23425019823704524 -2.921335658451047
O 1.1077154003889766 0.05165377127224695 -0.5945391767429387
C 2.236685033173531 -0.2796640268662297 -0.35855281308949283
H 2.8402083379408585 -0.8517377176064403 -1.0760723478857765
H -0.6609722326138303 0.2919897957065763 1.1661198377774997
H 2.7313656457413713 -0.02886065268935482 0.589537692866845
H 0.010755008776387489 -0.16935715276231408 -2.2418662998222554
