12
## STRUCTURE-ID: 645664db67734140262abddb ; CHARGE = 0; SPIN = 1
O -2.354221813023422 0.9114863844659066 -1.2949000581558414
C 0.3295268213512198 -1.3417417105294323 -0.18611897128629482
H 0.5347492839237995 -1.963202252363167 0.6922486056389971
H -0.5156973523430817 -1.7513095711549935 -0.7346774165595452
H 1.2160350352007196 -1.3303135455826174 -0.8300266207076342
H -2.2629348446701067 1.865142599099928 -1.361041984004112
O -0.031427377683031166 -0.03272054007697027 0.1971957807982002
C 0.9813412282908507 0.6245761157382789 0.9275295286997772
H 1.8913291410728201 0.7302186685011999 0.32628933389761106
H 1.2216178756609168 0.07455201220188877 1.8439515489609937
H 0.5952980499041065 1.6082254676494396 1.1843435735200942
H -1.6056160476846197 0.6050863720509648 -0.7647933208026345
