12
## STRUCTURE-ID: 6456678ce1c3df777c248af1 ; CHARGE = 0; SPIN = 1
O 0.47287948615232933 0.2723755891128841 -3.186075282127096
C -1.857851984551895 -0.05318685018470247 1.5640037844574906
H -1.4719441226218537 0.39527295285232694 2.47024838973426
H -2.410106088638927 -0.9499139493415355 1.812418779930938
H -2.514791497551366 0.6483521931504481 1.0667193862199353
H -0.4324459892200616 -0.02525044514759324 -3.3057001147234493
O 1.150544668488141 -0.2919031087131855 -0.3722849272753172
C 2.1466756702534084 -0.016422138286582472 0.2375363908171
H -1.036989671734618 -0.30564525324399955 0.9055108241864989
H 2.9332464825076445 0.6233256899771764 -0.1851754074736558
H 2.327551693661434 -0.38847531764151283 1.254916405466774
H 0.6932313532557635 0.09147063746626805 -2.2621182292134914
