12
## STRUCTURE-ID: 6456691f64fcf620184609ee ; CHARGE = 0; SPIN = 1
O -0.6772570197495846 -0.09370618985679954 -2.2585888632095132
C -1.3790409849117025 -0.07217302607806453 1.3192680873719627
H -1.0388405661694764 0.823950260461311 1.821666102202931
H -0.6948197410589501 -0.8853379090592703 1.526019710257527
H -2.365526951453059 -0.3331867989164121 1.6792008489468726
H -0.7837766245961809 -0.7562384812560414 -2.945527341350936
O 1.774745021539941 -0.43399239945870033 -0.7224537354283648
C 2.0480473526543155 0.37884781182998406 0.11705443527309299
H 1.4506250935289935 1.2883399376019342 0.265751366502377
H 2.9121318624634953 0.25892285637290013 0.7846336120562162
H -1.421896440255983 0.10159665787681703 0.2515708872563105
H 0.17560899800818958 -0.2770227195176553 -1.8385951098784858
