12
## STRUCTURE-ID: 64566a5e8e49d76fab351d78 ; CHARGE = 0; SPIN = 1
O -1.1605148583630074 -0.47109372519440995 -0.88403550101181
C -1.7969278224543168 -0.3326952125211408 0.3708983530966443
H -2.6739818300965195 -0.9803527403721756 0.44442853258115633
H -2.0936450786671124 0.7040720171661377 0.5535189308177865
H -1.0725523810734006 -0.6337351943219992 1.1256558552080158
H -1.7902198672270115 -0.2490705439218398 -1.5805938311104997
O 1.4338884429726193 0.728088492633527 -0.9572796585162973
C 2.0219120224437903 0.30662520951175837 0.25045441166836774
H 2.121074128690657 -0.7830481169965032 0.2890727615333168
H 1.442276632729389 0.6436770234878241 1.1167057481749543
H 3.0143774448307914 0.7538624761669093 0.2956303893936511
H 0.5543131662141346 0.3136703143619065 -1.0244559918352885
