12
## STRUCTURE-ID: 645668a6a158e136ae6dc174 ; CHARGE = 0; SPIN = 1
O -1.4007420475677452 -0.27715347039997573 0.0783208038105723
C -1.2576205265706641 1.0334236984190044 -0.23368189558584396
H -2.1553979230527407 1.588847124753221 -8.652585197246251e-05
H -2.966878898936924 -1.4475555637895325 1.7505975889411622
H -3.3768414463799887 -1.7544040174248547 2.3371055752354266
H -0.5874366880986427 -0.7534316275590479 -0.14397484530134774
O 3.436595797927159 -1.102622028873719 -0.45248669327296337
C -0.1791927428210531 1.5918065636567649 -0.7550859154581528
H 0.7066770662015224 1.0202286309618624 -0.9773162168177625
H -0.15207620819479636 2.6420784255026732 -0.9717588893992739
H 3.834123601759156 -1.0886534543448938 0.4221740857318478
H 4.09879001573456 -1.4525642809025698 -1.0538070720301642
