12
## STRUCTURE-ID: 6456684f2162b01198462281 ; CHARGE = 0; SPIN = 1
O -1.4738447823368974 -0.3394710369515346 0.5565415213469516
C -0.2540449508166243 -0.4575640052947831 0.12201280871781275
H -1.5624906715628086 2.3899912495898725 2.61789240373191
H 0.4911050276981404 -0.3540657680098948 0.9054659192844662
H -1.7963834490538335 1.6736435402931256 2.424694585174731
H -2.1683357454477368 -0.5736538188287398 -0.08857715432386641
O 0.10328297548242836 0.4701941358227273 -1.0921932738763276
C 0.15175875375616588 -0.9763698117215406 -1.18544555619872
H 1.1348917111380092 -1.4125394468782397 -1.3120458592883653
H -0.6037127228132287 -1.3506982637617666 -1.8713434170530745
H 0.9731235217780453 0.9195735453102274 -1.0570557942505672
H 5.004650332178343 0.01095968043054409 -0.019946183264959987
