13
## STRUCTURE-ID: 64568c25bf5f6131a14f733a ; CHARGE = -1; SPIN = 3
I 1.2770535139757555 1.4889094466244877 -2.159117159530069
C -1.6080683834994025 1.4554521798270361 0.14258110219796144
H -1.9879449585190858 0.6593080712182454 -0.49936259356343154
H -1.5193417267751996 2.3686348518805906 -0.4518627316159726
H -2.2926255609981268 1.6423110294239749 0.9703483591219171
O 0.47695027404420043 -3.709338753684199 -1.2387464244958288
Rh 0.8978167099783968 -0.2285613820591205 -0.2269601946929975
I 3.5185926183435394 -0.6103729713232049 0.46497832102758696
I 0.7551462500318776 -2.116036811360103 -2.1444491657321234
O 0.2569073537665258 1.7007685139188902 1.6447808889227906
C -0.24904386413292667 1.1625932666728431 0.70000032827671
O 0.1255652473912453 -2.3453069115559853 1.7506824496785924
C 0.34899252639318507 -1.4683605295834783 1.047126820404859
