12
## STRUCTURE-ID: 64566db2a481ed30747cab77 ; CHARGE = -1; SPIN = 1
Rh -0.3861131718167605 0.44566374183819313 0.12374451744543791
I -0.27044176998330915 2.080929571600553 -2.0134505956131057
I -2.945356143886298 1.3479413091532642 0.9497634133965954
O -0.49038263419789174 -1.2354625497441791 2.5890022200875964
C -0.4414679460752571 -0.6247781743740881 1.628015646647599
O -1.9511305490471769 -1.2301878514967324 -1.7878843174473815
C -1.3278779150442475 -0.6220457428418142 -1.0526975998841064
I 0.9586055336821713 2.072180026112735 1.8005192107783843
C 1.4617033018395884 -0.450175707064275 -0.47777514865419346
H 2.1747365923470565 0.34860017732435006 -0.6898140448428078
H 1.3415376837549613 -1.051980838482589 -1.3811288539538862
H 1.8761870184271632 -1.0806839620254172 0.3117055520398687
