17
## STRUCTURE-ID: 64568bcd68df5054b532dfcd ; CHARGE = 0; SPIN = 1
C -1.7997183634281844 0.11431653743798745 -1.0236289606295939
H -1.894104778374195 1.1989909456830166 -1.0229567047547314
H -2.2507582051273083 -0.29063600587817606 -1.9272450314392553
H -2.383799346560766 -0.26958154379758975 -0.16409439268985143
O 0.45604074254055865 1.4262589236227958 -1.761552342463961
C 1.3161417407124352 0.9110025193400748 3.2129554419708977
H 2.330135772952084 0.6332276336738609 2.94673916778785
H 0.7983811448457973 0.08096380488308652 3.6799659658488197
H 1.2939851210226168 1.7970597994079889 3.8372250344062007
H 0.8411984845531513 1.8185994775360628 -2.570381351476197
Rh -0.023180191168299807 -0.7638422648750984 -0.19128014961471407
I 0.26805078089989137 1.3997497315096175 1.3797992689459946
I 1.8229514240651328 -2.1089756154515102 1.1096750452913071
O -0.5144799601383547 -3.3729617139914834 -1.531285541808441
C -0.3371483706713727 -2.361059762622661 -1.0372262304876474
O 0.06635636195521122 -0.4006612087564466 -2.995152737127748
C 0.00994764192161021 0.18754874227847565 -1.9415564817589162
