21
## STRUCTURE-ID: 6456761b6a67df2720224140 ; CHARGE = -1; SPIN = 1
H -1.284855552253154 1.4169999199732113 -0.4878609628228585
I -1.5785717201849092 1.5570430510686712 1.0985650399287352
O -1.683389896594765 -0.5556442385466278 0.28029104573071534
C -1.787498808124457 0.42219796828217465 2.9665321168908663
H -1.786952830109846 1.192214393325533 3.7309884437681395
H -0.9237518117536027 -0.22687542957016663 3.0525743294059287
H -2.719594343095025 -0.1271054917766431 2.9505277573787803
H -2.0679525410814388 -1.2291518712614706 0.843642570781395
O 2.6160179905397776 -0.9038274860778339 -1.8600528782054633
C 2.121783897376326 1.7319541546679422 0.0067257326959496875
H 2.387207027799882 1.3999828171275528 -0.9911445267114894
H 2.9665384533507377 2.1909834024070145 0.5045215106289064
H 1.2625741904871959 2.3943866633164825 -0.009897726333002836
H 3.1466000399203358 -1.704087437717206 -1.8971779012102583
Rh 0.572538188272448 -1.2937377744867462 -1.5590640752578842
I 1.5905119735398625 -0.025069950265408 1.1052870514003543
I 1.0421462765290301 -3.7855790859754133 -0.7939537782050444
O -2.305760846991009 -1.9995295753317557 -1.7674255953596085
C -1.250272338690276 -1.6244372722866935 -1.4465341158851828
O -0.4035126493521831 1.000677131864541 -3.1902464847548604
C 0.08619530041506895 0.16860611126279082 -2.5362975538641517
