17
## STRUCTURE-ID: 64568cf7e218ce66306cdb3a ; CHARGE = 0; SPIN = 1
C -1.976912805406392 -1.6020896033218623 2.38756279858356
H -2.9026286639190593 -1.081617070242086 2.633126030926781
H -2.2054743240064036 -2.578800970470452 1.9579009106356768
H -1.3778564854643485 -1.7737747000897228 3.279250086644374
O 2.45622934392793 2.48357692083631 -1.0647987550479616
C -0.03966376633096675 1.9998832703966638 -2.196746431268214
H 0.28940833202123334 3.0044513957169174 -1.962947153373039
H -0.9463448242346291 1.7376301506380487 -1.6600296150022225
H -0.16016089432434488 1.8500398462313432 -3.264669587668232
H 3.377187991622304 2.354399579005382 -0.838372745388632
Rh 0.41627278568084597 -0.6692396805977937 0.36797732338242695
I -0.11784278626599698 -1.4544887496512704 -2.464420818583322
I 1.5468391817727294 0.7382151823839297 -1.5172817273453743
O -1.550208495697674 0.11745321111086951 0.7200387697774112
C -1.201077967938959 -0.8505086509374419 1.3856578610235752
O 2.653012777328881 -2.4567039056697086 1.268165657515409
C 1.7392206012348779 -1.8184262253391403 0.9695873951877589
