12
## STRUCTURE-ID: 6456684272072c6282399e4b ; CHARGE = 0; SPIN = 1
O -2.33636282434642 -0.43100696406726896 0.8596019520480268
C -2.5614939129994614 0.30056614495131706 2.3016781508967092
H -3.1817771918156303 -0.27072165209652166 0.4001232823201009
H -2.519217793461456 1.369819100548535 1.9931554845750206
H -1.5681967154373126 0.12332685975833711 2.773296275359823
H -2.298982746831381 -1.3744386425647703 1.1034363184595837
O 3.076328440704833 0.8525627674640868 -1.858698639871228
C 2.337616139102288 -0.24106642843892656 -1.3593262943744018
H 2.167036386902339 -0.9947812695379976 -2.1339964513537746
H 1.3764660815668301 0.0802579581543829 -0.9463900106965993
H 2.9340035724762465 -0.681760065931258 -0.562143281113276
H 2.5745805641233073 1.2672421917623793 -2.570736786231232
