17
## STRUCTURE-ID: 64567139cc16386f421aaa10 ; CHARGE = 0; SPIN = 1
I -0.7837787007861319 -1.6173421234128005 -0.3698664102083783
C -2.575797560196685 -1.931629589880298 -1.5592519416480686
H -3.108311230365168 -2.7728699310872145 -1.1273280959059149
H -2.302262358137628 -2.153400007732145 -2.5849731457223113
H -3.1897806269039735 -1.0390780428487636 -1.489435020451668
O 1.2471969688025464 -0.9141210165350694 0.5790572514573273
C -0.29652305515880606 0.06298949822390058 -1.5703875264137748
H -0.9230976802487622 0.019126656449897132 -2.4559755749226766
H 0.7636524897410643 0.01011132634456171 -1.7905625441514728
H 1.5953697969984584 -1.6650522695157979 1.0709653430132737
Rh 1.2902841468878528 0.9599781998077073 1.6532694131729901
I -0.694990564044404 0.14332003827831757 3.1447651408321238
I -0.6686954475771499 1.9553851525646568 -0.5853041838490773
O 3.855346968948117 1.670868300967603 0.286340844513939
C 2.8606978003091617 1.3889231794742487 0.7863211072361301
O 1.5111073506398924 3.4047531626092926 3.3416176822923584
C 1.4195817010916096 2.478037466291888 2.6707476607552025
