21
## STRUCTURE-ID: 645678d10c38b764f44975c1 ; CHARGE = -1; SPIN = 1
H -2.27086359847908 1.8616528689899245 -1.8750948310302136
I -1.4036434400621196 0.5880388010159308 -1.279416859412925
O -1.6458529521208343 -0.7903916921148487 1.5964300068020658
C 0.33175561059653497 1.6229879958827027 -2.120945275891232
H 1.1789410478140934 1.144967382831721 -1.6378611244482753
H 0.3197902381567641 1.3890644336223983 -3.1827011647447288
H -2.5795509997629886 -4.814694428313464 -0.008149698565023782
H -2.540248489384357 -0.9161385900366366 1.9827843661795972
O 0.2080212521389072 -1.1131010689500325 -0.5996873541784905
C 0.2686929940329287 3.103286638643316 -1.8410487421339727
H 1.1825430892504525 3.550861720172114 -2.2254324970726485
H -0.5804851912537278 3.564311306697628 -2.3356920751597987
H 0.2222683848864473 3.296475489504075 -0.7714084126315716
H 0.16873423912923063 -1.8684307059781484 -1.1950496027912771
Rh 1.0603650155676227 -1.3366108304389226 1.2690554089220807
I 0.9820555771431744 1.2226836228352975 1.6163391659306654
I 2.159487647339762 -3.6554275199831108 0.5815860513846094
O 2.512292273197277 -1.6499863266461143 3.852274931399419
C 1.941453115744414 -1.5149152371407757 2.8725560617574053
O -0.8174742654289249 -2.2042270076221224 3.1291825120504475
C -0.6982815485055881 -1.4804068529709271 2.1722791336338765
