18
## STRUCTURE-ID: 6456899c3cfcbf05961dbe94 ; CHARGE = -1; SPIN = 1
I -0.9247830338251848 -1.3097113463155658 -2.850176778935698
C -2.2213747095071046 0.9363857788898969 -0.6645163760734194
H -2.8215464604499263 1.0208654551362688 -1.5723502257700241
H -2.4020747957402873 1.8221513740411939 -0.05198012036493053
H -2.563441270545361 0.05759690422211276 -0.11083650889493582
O 0.2119182277927845 -2.9918832137857994 2.273178920601211
C 1.8999384161244757 -0.9602140473164252 1.6363344460826095
H 1.882332492934225 -1.4281057868340243 2.610287331693791
H 2.0991901207389776 0.10224619027543043 1.704024502430396
H 2.6188179536093603 -1.4484078959463151 0.989331155042547
H -0.45520375366223853 -3.664948928856303 2.138399653539613
Rh -0.16753146170005137 0.6544999370503001 -1.1517967952406003
I 2.5315764773433393 0.39745223709262534 -1.7165354753803155
I -0.03806586911013472 -1.2638872689165648 0.8183087185029727
O 0.49431889863743145 2.020766104987035 1.4361610280017145
C 0.2221151515757763 1.4749755681711982 0.4552105578399439
O -0.12610432452665143 2.676644088192669 -3.388779018523831
C -0.24008205969074276 1.9035748499139762 -2.554265014550309
