17
## STRUCTURE-ID: 64568e9f178ba556197c7c43 ; CHARGE = 0; SPIN = 1
C -1.5562438968557737 1.0243790971264304 -0.3140208806490134
H -1.3023952853659009 1.6166741149769508 0.5652366137885213
H -2.160373971259401 0.16447156866715015 -0.0028796060555073633
H -2.162584004943547 1.6390193492535052 -0.9838961316938984
O 1.7215179611459033 -2.7281170303329754 0.8513901707792864
C -0.19226896133995403 -1.1723128282002397 2.4752511638935526
H -0.5624474786432961 -2.1001590217212356 2.901742354965435
H -0.9499357807088913 -0.39452352982968597 2.4895468937392082
H 0.7308226530093442 -0.8374646177884484 2.9399506142052334
H 1.4805764457568231 -3.6618036230862727 0.7418576810256712
Rh 0.14846132184217453 0.36209937963213196 -1.3563890548343045
I 1.2963500842940916 -1.4121937383818488 -2.953120926093128
I 0.2641451330689501 -1.539082145931333 0.40858029768374465
O 2.1277309550542007 2.3504113849527353 -0.7302903229722296
C 1.1897332224926156 2.0019337671510904 -1.3929003778555042
O -0.2771458733850415 2.6789116934785717 -3.2630292784492902
C 0.2040574758377259 2.0077561800332417 -2.377029211477842
