8
## STRUCTURE-ID: 6456642b2d81d740802cdf88 ; CHARGE = 0; SPIN = 1
H -2.9925227479246845 -2.6602968410044587 3.8541027842071434
I -3.625478784403951 -4.098008849960113 3.8093570502283214
O 1.3952567718284525 2.0653941902816437 -0.8225505303415587
C 0.9118092654810779 0.9444734518117059 -1.529867485250019
H 0.26380394988109723 1.327557398973754 -2.316032253963634
H 0.3298480452851405 0.2824650174119099 -0.8813278940741249
H 1.727241705688832 0.37665307374831236 -1.9873986871270708
H 1.9900417941640285 1.7617625587372552 -0.12628298367906082
