13
## STRUCTURE-ID: 64568be57525943c6c610aa4 ; CHARGE = -1; SPIN = 1
I -0.8376014533775303 1.8812299059901316 3.8013180946394654
C -0.9878543559275383 0.22966600256047462 -1.3014076232168978
H -1.0731318222265214 -0.8400103883504697 -1.474841652856899
H -0.6151086797143437 0.7077885658339104 -2.207232478702886
H -1.9657780164996588 0.6501488870881674 -1.0589977620736977
O 1.4446395340509588 -1.1104686968431308 -1.1069127893677657
H 2.2754101204419173 -1.6115203476962103 -0.9965916526108063
Rh -0.5343153607292609 0.36396013947942507 1.7635910041674325
I -1.0266496944574626 -2.15073812624613 1.6897463705276041
O 2.0850888024045644 -0.06886270787132921 0.7674513195489608
C 1.256474394688432 -0.23897966656489666 -0.12191269806664515
O -0.0001588849191279014 1.6743670225061074 0.4196269128920961
C -0.02101458373444031 0.5134194101139296 -0.17383704487995988
