12
## STRUCTURE-ID: 64566b55383d8d0fb767f9c6 ; CHARGE = 0; SPIN = 1
O -0.850491974903704 -0.4313131654410541 -0.6572324728537978
C -1.5869618945918185 -0.249239822910893 0.512514323315673
H -2.608984775308248 -0.5533817820457189 0.27072243688011477
H -1.6062780875614984 0.7936688121707925 0.8417441769749544
H -1.20839395289808 -0.8728201423702326 1.3295319182477918
H -0.2411807323350323 0.9207440628498681 -1.1996405691577876
O 1.7220301287068065 0.9814294423862742 -0.46602200171012276
C 1.6121940702374078 -0.20964300567063435 0.0469956775592079
H 2.1815656224987023 -1.001219782134464 -0.4472789132666059
H 0.4272364074385347 -0.5165538567820153 -0.26618908264073315
H 1.5838656577276435 -0.2599747617212587 1.1397601683569074
H 0.5753995309892915 1.3983040016693327 -1.1049056617056034
