19
## STRUCTURE-ID: 64567a010a731c7d9122414e ; CHARGE = 0; SPIN = 1
H -2.991477866679175 0.5843582343198398 2.64851298236107
I -4.473029968559476 0.15682872397150188 3.03666367081808
C -4.364165782295904 -1.7162694232932802 1.9707242663025206
H -3.824648969324609 -2.4018793032109103 2.61606007268698
H -5.385370434015007 -2.031966650149744 1.7766772705990426
H -3.799789557473535 -1.46771433656181 1.073126653681515
O 0.9790434067968447 3.4050675832022494 -2.5845751638764014
C 2.831954887943815 1.4749515509013778 -2.343266654185485
H 2.678408246015346 2.175647024627514 -3.149530911093795
H 3.0728754346615226 0.49095088140184007 -2.736560167144424
H 3.6292088610514437 1.8304537753393126 -1.6960779623852411
H 0.19372980813971521 3.9346576716448745 -2.4470438882159997
Rh 1.332791909534111 -0.6924735525312513 0.21607550672162482
I -0.9895207161308882 0.14489891146183764 0.7269672832001555
I 1.058502918671832 1.397309016930066 -1.2637645059703326
O 4.149246279304093 -0.999560440755838 -0.7355500548438421
C 3.059679903208602 -0.9253959901826688 -0.36512660824132764
O 1.4740638704489089 -3.157400712493547 1.934808784586324
C 1.3684977687025317 -2.20246296462129 1.3218794249995354
