18
## STRUCTURE-ID: 645670614c7e5a4e9e5c71c4 ; CHARGE = -1; SPIN = 1
I -3.4805909002586977 -0.6165103621316741 1.2441012248786447
C -1.4176697191519856 -0.5756609616193099 1.796842688242023
H -1.073114507413681 0.46588662938271747 1.8090973126614052
H -0.8656886499379315 -1.144127789800187 1.0570361661359613
H -1.3267501614790398 -1.0261854606765537 2.775918531761207
O 0.6624939394499889 -2.208788854989301 -0.32291151985313965
C 0.10948635326231972 2.2094954808699887 1.5835024825362494
H 0.4646305345662319 2.663778919332098 2.532431343952854
H 1.4726071236620113 -2.4970287911376126 0.11593868381806337
H -0.0438587016675778 3.086673367371504 0.9093690431560415
H 0.39221090664262587 -2.9369317032561852 -0.894301452197355
Rh 1.0902065097401232 0.22474743114621787 -1.5058287301061066
I 3.4800922440321767 -0.6494399165278382 -2.0784028705668156
I 1.9170341473920633 1.2840008465652453 0.7631736589592176
O -1.6105152714653164 1.4203592768773698 -1.0806123794921214
C -0.5734982215953638 0.9454777945258871 -1.2087240577114582
O 0.2363666386158005 -0.42925654306733846 -4.288511810002644
C 0.5665577356062662 -0.2164893628650127 -3.208118316172039
