14
## STRUCTURE-ID: 64567b0c678b0925535b5c20 ; CHARGE = 0; SPIN = 1
H -2.8680826177325907 0.9411016304748135 1.8025475090198826
I -1.239713545827776 1.0132651027811233 1.649481878517514
C -1.884625985423961 -0.14655106326274045 -0.5428928761732729
H -1.5177682990510732 0.15429189829428822 -1.5250091797694325
H -1.8534336477947173 -1.2173285762868253 -0.36313844788018956
H -2.880583182751157 0.2587979599210706 -0.4197799033146168
O 2.3119572992184394 -2.9031452868769403 1.1924102333688664
Rh 0.6336596561963939 0.21035924206580778 -0.052498276107722466
I 1.1224229899975962 -1.3963976843539005 -2.2891677847222627
I 0.7859350636553817 -1.9342974628451775 1.5394457801846309
O 3.373802185206104 0.29673903626255876 1.2211529899796265
C 2.3174056400227636 0.43264422297171096 0.8138131435828196
O 0.9408776537406928 2.578136095677638 -1.8680636755343714
C 0.7581467905438954 1.7123848851765666 -1.1583013911514746
