18
## STRUCTURE-ID: 645673cc14887e56604d91f1 ; CHARGE = -1; SPIN = 1
I 4.02541034518078 5.297484884434596 -1.6826393442130718
C -2.6604485575701857 -2.6811336654601177 -0.47232959337435637
H -3.5207808991404015 -3.099574603367258 -1.0490956435674592
H -3.3553126245279663 -2.4159838607030055 0.3715834897278351
H -1.9950608812849377 -2.867298123990199 0.43502688801607164
O 1.9908661218552932 3.4764634956326255 0.11803934307038327
C -2.1873748808876248 -1.3863092230683414 -1.1441556734677096
H -2.9286386810845113 -0.5970306917499189 -1.1445671175273349
H -2.0167848787426497 -3.5354568263677937 -0.8236039229568203
H -1.7698135596608315 -1.5284217139232714 -2.13295008473484
H 2.5257413863800995 4.024268017835211 -0.5556962782233872
Rh 1.9540825699265891 0.5965636239303798 1.0426811115789572
I -0.33503340046979113 -0.422189919511033 0.14585304544451877
I 2.8196065149026044 -1.808850795308916 1.6071340884743115
O 1.0961331536924686 1.791407387575993 3.6405346682828315
C 1.4079724275957572 1.3353082831269645 2.6098219441826815
O 2.781702542091216 1.6393614406165813 -0.9545874861527356
C 2.1677333017441174 2.1813922902975706 -0.011049434559854654
