12
## STRUCTURE-ID: 6456650d59803e70742726b6 ; CHARGE = 0; SPIN = 1
O -2.214970831626352 -0.2820669153367421 1.1750385861531494
C 0.14840532474986654 0.22346112546308916 -1.2081639872931804
H 0.5170418176187083 1.0151788756520257 -1.8541921499139151
H 0.04114136509504361 -0.7223523782337495 -1.7409103952025717
H -0.8532661489230384 0.4822690777869644 -0.8696041035532032
H -2.55265798993907 -0.6489760463458066 1.993267055486928
O 0.4333153010496117 -0.6036288178204645 1.1542020886821232
C 0.96056179693817 0.16843802137238462 0.278450252954798
H 2.1908280075485407 -0.12274916807991589 0.1357331298734007
H 1.0854657229766393 1.241736961077473 0.49287950532104474
H 1.4807963050742738 -0.3122839079721596 -0.7634925653514699
H -1.2366606705623902 -0.4390268275630871 1.2067925828428678
