12
## STRUCTURE-ID: 64566a7d9ab9ec5149224143 ; CHARGE = 0; SPIN = 1
O -0.569280009531866 -0.904310298491176 0.5480657027543631
C -1.1118404657974996 0.005162937361154016 1.5001491505424642
H -0.7549867278656451 1.0209431173703103 1.3325536906553308
H -0.8160618535274089 -0.3189463642668337 2.497996317114817
H -2.1965840910724856 -0.029948210566015127 1.4101268259869055
H -0.674870282733725 -0.4124805651380788 -0.7639690998893313
O 1.6416695887818125 -0.013345186532399227 -0.21171567761105398
C 1.2560965985752608 0.2934910351827459 -1.3937651255190828
H 1.273703225030743 1.362121594429305 -1.6724051597675837
H -0.08459632291963605 0.05459355344198692 -1.4865129586828199
H 1.6006926299414288 -0.3451772807956782 -2.2264757205121057
H 0.43605771111902286 -0.7121043319953116 0.46595205492810327
