21
## STRUCTURE-ID: 6456760bb9fb5846176aac74 ; CHARGE = -1; SPIN = 1
H -4.266983581642759 -0.6430768813754225 2.456240489010539
I -0.015694919358736185 -0.9219686987723436 -0.10109434427567036
O -5.195806683226329 -0.6966918734189717 2.2178416812341255
C -2.016995468083673 2.738601489452327 -0.5305094992590618
H -2.3764445482485868 3.2258082145396436 0.36540157660537326
H -2.1756244745842825 1.6681286549521228 -0.531265807804479
H -2.3289635409148257 3.225234278601931 -1.4445510003191735
H -5.22690455857797 -0.7045500930912896 1.2573956075883486
O 1.532921965124454 -4.275732657039828 -0.7772732801976829
C 0.4758999228213625 2.89474595347043 -0.4626429449403202
H -0.8213990506011754 2.856724692292475 -0.499142984311644
H 0.710911676769047 2.4356424642815937 0.4860570348928892
H 0.7703151142296809 2.3238987376458806 -1.330541190768509
H 1.2671391631659858 -5.153002500957493 -0.4375783869522155
Rh 2.45888032336323 -1.6326372113489298 -0.1890594772760492
I 1.0707258350618702 4.882300087583531 -0.5687573335382157
I 3.3812824411131057 0.8251973706928711 -0.2669256997101261
O 4.926057752985075 -3.208569322725869 -0.7449393566798042
C 4.014935534400425 -2.509229695464251 -0.5248149407454267
O 1.9066535993811666 -3.8823837316671055 1.390437855244955
C 1.9090934968229587 -3.448439277651322 0.2357220022021561
