18
## STRUCTURE-ID: 6456897923a2d5799133a734 ; CHARGE = -1; SPIN = 1
I -2.2961934416020813 -0.28981840566881223 -1.2039285584873891
C -0.04934310391837434 0.47290075170876283 1.688492494121077
H -1.105494004675907 0.6348570070876394 1.8690768566234428
H 0.1187633937660204 -0.5190724018249682 1.2850568018264772
H 0.5511599929117732 0.648301950051003 2.5722197255009553
O 1.0755691134275003 -0.03163249671331993 -1.0676645761406456
C 0.07553403135233638 3.4737488981193736 1.6166670643323167
H 0.34827228149273987 4.415788952393064 1.1555274176685197
H 0.6393173945436122 3.327382252735024 2.5305257577425433
H -0.9914218339979868 3.45075241748155 1.8074773203793804
H 2.019454331534312 -0.03360125660446782 -1.2578058907632204
Rh -0.10271492242762179 -1.6690967279584377 -1.833586919903286
I 1.9787349424693395 -2.468939736287325 -3.3465194774966633
I 0.5585287603118327 1.8616446839127125 0.2128994190277036
O -0.11876854218295678 -3.899116152250136 -0.06656469169701124
C 0.2184513219989665 -2.779027220525213 -0.1105602197477936
O -1.7899908812369643 -3.6862603174704724 -3.205653051164356
C -1.1298588337665167 -2.908812198186003 -2.6456594718220163
