13
## STRUCTURE-ID: 64568c5a19274110d64efcb0 ; CHARGE = -1; SPIN = 1
I -2.5425300830749853 2.077047032432699 2.8474225507566473
C -0.8585889973622196 0.4042642179530141 -0.9158984962033705
H -1.288511718820164 1.3791825071388684 -0.6807429929587893
H -0.7835448571302446 0.2989540700579689 -1.9960992183207926
H -1.6006229020404468 -0.3580233031722013 -0.5657681885395444
O 1.58607514242035 0.8121618557116494 -1.6044063687692476
Rh 0.3720532212416851 -0.812272387256074 0.4930925037401089
I 1.605498007768886 -2.086937365150539 2.450988831363884
I -0.5909834604771194 0.13753975165681248 2.7188097874582597
O 0.991706022887334 1.750106632873964 0.34750303046629993
C 0.9055119522665142 0.9888475405681055 -0.6111950661384139
O 1.276860514575774 -2.6534384023982605 -1.6557693533978237
C 0.9270771577446353 -1.937432150416016 -0.8279370194572183
