12
## STRUCTURE-ID: 645667901ad4cb307a4609f1 ; CHARGE = 0; SPIN = 1
O 0.49207829527533303 0.051365789122729676 -3.1267584381418003
C -1.9684521354549411 -0.001693446785750678 1.4928551497404403
H -1.7803442084583125 -0.5347312919387499 2.415726811742454
H -2.635063539167422 -0.5844820003090115 0.8706749894907693
H -2.4260120375660943 0.9534550500997314 1.7151843156746516
H -0.4260673005095841 0.32671105402683537 -3.186298734511574
O 1.2247718771004568 0.14452679409439959 -0.26328381563365605
C 2.2715194917322457 -0.11549762107339373 0.262734703996809
H 3.142522704569623 -0.46374011178435776 -0.3088515074278099
H -1.0350114110809892 0.1576922210377436 0.9691028549717511
H 2.418084569645056 -0.01987623364018007 1.3471316885618565
H 0.7219736939146341 0.08626979715000996 -2.188218018463891
