12
## STRUCTURE-ID: 645669497925ba4d10230d7b ; CHARGE = 0; SPIN = 1
O -0.717083889524071 -0.20598055069094326 -0.8290929239317163
C -1.3373539895294675 -0.18384340935891264 0.4743193880460262
H -2.201413177713062 -0.8431591131421788 0.44323480230080725
H -1.6196750893847849 0.8262823962004402 0.7679392250162317
H -0.5983508552225999 -0.5659427970815732 1.179693971222011
H -1.3164965863718177 0.22833273193804163 -1.4784508856628449
O 1.7766498882029507 -0.6742085945261943 1.424252165601111
C 0.5754808782239257 0.44853703089865943 -0.838677106890913
H 1.0653210341146793 0.2014256264785087 -1.7741556398147122
H 0.4808306238674687 1.5236719650406145 -0.71160054552317
H 1.1652302961145111 0.013758504911010497 0.03980357909316952
H 2.7268608672223054 -0.768873790667516 1.3027339705440888
