13
## STRUCTURE-ID: 645688a64ea0ba2df12a1573 ; CHARGE = 0; SPIN = 1
I -1.0952236078828448 2.3876188705589545 0.2854390275436952
C -1.8983271444588772 -0.027775912550046442 -0.10489071263396206
H -2.643777135256079 0.3364465777639703 -0.800597876477932
H -2.2881642873513277 -0.1510674838669909 0.8978627182232404
H -1.4488863475606486 -0.9627555329999875 -0.48831527067117325
H 1.9369935629106276 -2.0980724913718354 -2.3752870459012083
Rh 0.4328447942693043 0.3372239245791311 -0.308782807216001
I 1.9604557965156075 -1.987281558184897 -0.7910205794860127
I 0.34295057353771724 0.8652706351071568 -2.9240049341157377
O 2.589891405037125 1.3722647440195892 1.2276921756575656
C 1.6073345332252904 0.7188864331922727 1.3103314956172447
O -0.04146339073975275 -0.7057426080280326 2.4568468784295923
C 0.5453712477538315 -0.08501559821929333 1.6147269310306651
