21
## STRUCTURE-ID: 6456790baba94073d139082e ; CHARGE = -1; SPIN = 1
H -4.951819992680904 -0.9159159540844086 -0.6397803247005457
I -3.85845112761232 0.11926745520635844 0.10820309469920687
O -2.178022093941373 1.2919239271670915 0.9599275769416828
C -2.285449198115169 -1.0552926848939175 -0.6616616840656955
H -2.691730939696442 -1.9917512169656675 -1.0183049447213368
H -1.5811784105105624 -1.2127374874303785 0.15869976874577144
H -1.8044092941488163 -0.49380213474808754 -1.4572008771561895
H -2.5374479263255667 2.0555375344739315 1.4157307207335201
O 2.06009845804288 1.3148786371794785 -1.4757636087552415
C 2.3893332094886444 1.052267454310349 2.162387461474055
H 2.924480109811918 0.5153274244094571 1.3754403875199324
H 2.4770479890322075 0.5181248930187071 3.1013633047858655
H 2.7816769457512125 2.057003653233915 2.2511671266294426
H 2.019637764377678 1.984634036348815 -2.1860991602317568
Rh 0.9351835067505699 -0.8325952742555514 -0.07823666978348813
I 0.3118646422265127 1.1482788492299913 1.5956382150262787
I 0.8734627982905911 -2.635418693909238 1.864500479579727
O 2.313776518533562 -2.330043928416433 -2.2499642167075353
C 1.7467753994010295 -1.8236870979591924 -1.3633664773740257
O 0.10501734064623781 0.7235052238904509 -2.3660299151283235
C 0.9501543006780898 0.5104953841943415 -1.4966502575113267
