12
## STRUCTURE-ID: 645665da48f2f3746a462273 ; CHARGE = 0; SPIN = 1
O -1.5554534439768515 -0.556013130934474 0.06756032719871116
C -1.2730603575384176 -0.5067038078742939 1.3158375123091408
H 0.37241464668135144 0.7437877978159826 0.7216424848428117
H -0.9688430994850517 -1.4489382051215824 1.8051675792274329
H -1.9366602181352093 0.0892100911912539 1.9674011074065767
H -0.5769689851213451 0.4179937156547272 -0.6307715035471531
O 0.3010903683249304 0.9498123391533683 -0.6674241456423622
C 1.2567222119934858 0.16450662722163314 -1.3729524446278258
H 1.2538406720538169 -0.8707875898539751 -1.0331870406028687
H 2.2369766156205957 0.6094702016379276 -1.2083509931903234
H 1.0143496187963097 0.19409361588006485 -2.435340001553803
H -0.12440802921361575 0.2135683452293716 1.470417118179682
