12
## STRUCTURE-ID: 645667961c423d03465b5c2b ; CHARGE = 0; SPIN = 1
O -2.0345346918368983 -0.7042426343191289 -1.693101404114628
C -0.17474351250121692 0.3452466381157894 1.3773495254388335
H 0.6174616888467475 0.16666027267510733 2.112329179526546
H -1.101247637176313 -0.10934283729405157 1.7202751295925491
H -0.316085206662014 1.4252557019039296 1.259447095247308
H -2.103185987480407 -1.6619792297457934 -1.7007312725983716
O 0.1420463616780757 -0.25969458620051067 0.1419997405699626
C 1.3398377482228505 0.23372752862832114 -0.41865501631894236
H 1.2688896362156046 1.3103149586333498 -0.608676086219576
H 1.4868812281169541 -0.29401874717202825 -1.3580455997077145
H 2.188190123140562 0.043756177119050256 0.24755409054465494
H -1.313509750563734 -0.4956832423439486 -1.0797453819606915
