36
## STRUCTURE-ID: 6456ec25073a74600d1d80a4 ; CHARGE = -3; SPIN = 1
Rh -2.6802745771370295 -0.18391730280590426 -1.1453398287539265
I -4.102221356380689 -1.2496022406028515 0.7506438390318602
I -0.7361108367823477 -2.256097990156738 -1.3282671978600291
O -0.8207294059095935 1.0350157643154159 -3.1389271420766045
C -1.6383776738662827 0.6267795953061223 -2.417336893318011
O -3.518765616281296 2.444516209204476 -0.5017443984006673
C -3.827149207766353 1.4053260414482855 -1.0698457915777047
H -5.685666337787783 -1.2364953210315985 -2.0223930610252485
I -4.361589956828094 -1.427448416425358 -2.900594673734716
O -5.00952660292349 1.307008377943728 -1.7035114839310739
C -5.988473733953544 -2.462920086567168 -4.238118467825798
H -6.3998884679530335 -3.266582155556701 -3.63938475542216
H -5.47339334198075 -2.8396880181532054 -5.112674827680234
H -6.717684379615607 -1.7029200658908734 -4.491412381258205
H -5.564114892734702 2.111532943140985 -1.6188159494650218
O 4.393933262437657 0.48737110692742924 4.189146750656875
C 4.721684585522925 2.683862207167357 1.3448032784420827
H 5.525399258501511 3.006177094621629 1.9929613227056047
H 4.731583015752271 3.1964317424655717 0.39095077601875744
H 4.746246728997678 1.6097915784068548 1.1952450814083813
H 4.083820366271252 1.4081900167483492 4.195822100420774
Rh 1.177551043495501 -0.44244410509029297 -0.7754968914793794
I 2.212804528606124 1.9639255100421484 -1.5406879723416407
I 2.858358532761972 3.1635555715760035 2.3081557328487063
O 3.9498391776819646 -0.5170517545679248 0.8079031472398795
C 2.806933678482399 -0.676512816959521 1.29426126468215
O 3.1583546758020637 -1.7886129912812239 -2.515586723011226
C 2.3375736212592444 -1.2402936795451003 -1.880859781394811
O 2.3386715870807473 -2.023522113707549 1.214869860752024
H 3.068018329806952 -2.6098023043416836 0.9431509504243756
Rh 1.809341291059688 0.3121807517557982 2.765829041539369
I -0.3123130190701904 0.5542896841237104 1.204215687871603
O 3.739085262301986 -1.5740910210703472 3.8037816656526315
C 3.422448244029708 -0.39117230717870755 3.6773625401434016
O 0.6867412511867831 0.13902411906315149 5.513413688655897
C 1.0678909659324334 0.43419637667572675 4.448481492061952
