16
## STRUCTURE-ID: 64567415cc400527cb5c71ad ; CHARGE = 0; SPIN = 1
H -1.4905954981964162 3.3363643994498444 0.47757829429243187
I -1.2059211704481196 1.7243341040299596 -0.08205876473135786
O -2.819339794679978 1.4397579696232263 1.1251956847558855
C -1.5854701976304375 -0.44083036036761825 -0.1229455344291605
H -1.6752204971809008 -0.7922338365164432 0.9007639560536501
H -0.7586661394500717 -0.952070640192597 -0.6839570673017454
H -2.509713628926607 -0.6363934931582623 -0.6567363978098834
H -3.1866587551259373 2.2738768072605473 1.423300386634892
H 2.621449796072974 2.3445104710150972 -0.19928881021789113
Rh 0.9816815788828693 -1.086167113971003 -0.6362672103815252
I 2.5794316640362904 1.2934610157986772 0.9751628025468237
I 0.8929771732377719 0.20146611747761242 -2.8780555116596283
O 3.6849433904362727 -2.116785169714444 -1.3476576461663192
C 2.658770244360901 -1.723731327360254 -1.0495882059777826
O 0.8856017029549286 -2.750213831858319 1.85226651466202
C 0.9267301316564511 -2.115345111515989 0.9022875097295879
