39
## STRUCTURE-ID: 6456fb212ca1d36d8a62318a ; CHARGE = -3; SPIN = 1
I -5.050079767760653 -0.4006625753154512 -0.8572337098919368
C -3.7527743990947244 -2.5385810856431794 1.8197675305388168
H -3.4915193459317195 -3.212878189236293 1.0125915330578186
H -3.584606546595296 -3.0271773596885665 2.7730544579349465
H -4.776181402766226 -2.2013062245471584 1.6998997767944934
O -3.4773838173047626 -0.32992958182036947 3.4314932945470864
C -1.4167190330121064 0.9948176694916337 2.7649862877694718
H -1.447650700244791 0.9120439728437247 3.84393852292842
H -1.9465819887612352 1.8943529306758913 2.4461062752601537
H -0.37753104973591084 1.0698065460977397 2.444404565136438
H -4.184580735720653 -0.9721720809158357 3.560843974192632
Rh -2.510766301924131 0.20234450344375773 -0.5806921584721216
I -1.5572260691805933 -2.3991529100770457 -1.0395815981699623
I -2.300114720634865 -0.7555812341610789 1.8079968140352147
O -0.700760809188502 2.3225012259544773 0.026018510666523376
C -0.8672915303039241 1.091721889232033 -0.07744663510506376
O -2.19400240210827 2.3383591970608855 -2.6349021883692623
C -2.431159159341166 1.4529731352040753 -1.9007781930360401
O 0.45768193995104617 0.8507869583064802 -2.3715850523867528
C 2.1244895336137213 -4.0017284730065175 0.03316343977870951
H 2.635742283960345 -4.844820410212501 -0.4213888426624646
H 1.0580575690936151 -4.183426653011114 0.14241623352706642
H 2.596327675564073 -3.6909248783165634 0.9611576632556713
H 0.15306508639771826 0.056190446016873556 -1.8918640907861062
Rh 3.147336661628988 0.03810309782139603 -0.5260832750897001
I 4.0898216742870614 -0.8545777822677371 1.7707882665524346
I 2.3192273183080223 -2.3375472596191447 -1.403252639064586
O 0.29168266583884317 0.2652209224597076 0.16572420422876655
C 1.4369860076707885 1.0243951719621756 -0.14102302166139166
O 4.140751567620606 2.848738854343647 -0.22185400085081516
C 3.7196732958151566 1.796471382361265 -0.5378082935374483
O 1.6492295155913765 2.0284153616100804 0.8366697213398446
H 0.8468163451624374 2.5955529110794426 0.7636797168857471
Rh 3.042991550420504 1.6703179918647901 -2.5239706398732653
I 5.059377670857685 0.1363763667655562 -2.9148294999703968
O 1.4066554437336904 2.8244820464653633 -1.7706303966173809
C 1.2426605613774369 1.6103621638639205 -1.487963531806744
O 1.9493937949287443 3.126507951504844 -4.848995395246365
C 2.6989616177872975 2.5996240014084453 -4.152817625832286
