13
## STRUCTURE-ID: 64568c3fc69c81268632491a ; CHARGE = -1; SPIN = 1
I -1.2962464751662275 -2.0486659890397005 -1.6868599356196288
C -1.6140259819871945 -0.13376168029716143 1.2832434598379054
H -1.5128840469783473 -1.1865467277574822 1.5533741571351656
H -2.4079015445749117 -0.06158293061330177 0.5348858026283965
H -1.894144940735828 0.45379728457022633 2.1585008330274404
O 1.341412890088815 2.260582410368762 -2.74495346055995
Rh 0.654290853464442 -0.6866393976355432 -0.610938008137454
I 1.4116582219594993 -2.5165632208210256 1.1195277040677802
I 0.17748552807807935 0.8165950181489288 -2.681759704685946
O 0.1062053080867942 1.5210438187840525 0.9849866704855972
C -0.3571081291866535 0.4512424208011084 0.7358133883367569
O 3.1850981534629317 0.8599084536404265 -0.3062253667731338
C 2.206160163488593 0.27059053985071196 -0.33959553974293505
