12
## STRUCTURE-ID: 64568ebfc76ac33dfc09291a ; CHARGE = 0; SPIN = 1
C -1.0939224518251993 0.181501198848749 0.8629036793901056
H -1.0812390598362982 -0.6717615927647659 1.5917615683496549
H -1.854572328183613 0.924034079733025 1.114071594294023
H -1.3644912973897807 -0.2992043102301729 -0.1379333357425802
O -0.2156743956372032 -2.3326366588245766 1.82925833773085
Rh 0.48449716150724914 -0.2156469890823319 -0.8913471217447737
I 2.62035304667592 -0.6452442421442954 -2.280627232070682
I 1.026855319531655 -2.408371926919113 0.430592078378005
O 1.0327463937062524 1.3695424022917038 1.424988035965667
C 0.23952550341069972 0.74584198478992 0.8425130474603603
O 0.05302188906861153 2.099860512404762 -2.7646564064159915
C 0.15290021897170822 1.252085541897095 -2.0215242455946307
