12
## STRUCTURE-ID: 645667e6be94f855f75ede00 ; CHARGE = 0; SPIN = 1
O -1.5149186834613257 -0.016582347133385814 -1.4289187426978032
C -1.2185077217754063 0.058323036014481945 -0.19560018157646658
H -1.0812329676877768 -0.8029664189041957 0.4364514448464855
H -2.951586353710091 0.2498239769627373 0.699282269742201
H -0.9730145840875088 1.0363990526893443 0.18498864029582196
H -1.7108714309597473 -0.9165260395131206 -1.7570435066246348
O 0.9498400935364029 -0.2173901076221627 -0.497850235903341
C 1.6744896386864159 0.018188027511998592 0.695961103918798
H 1.3066072936870647 -0.6873374291424036 1.437708252802749
H 1.5201820858807087 1.0340885932682686 1.0656132679572126
H 2.7402756183938664 -0.1552972559746771 0.5371264009895406
H 1.258737011497407 0.3992769118431008 -1.177718713750543
