14
## STRUCTURE-ID: 64568e484b7111718d462264 ; CHARGE = 1; SPIN = 1
H -2.111126068569578 1.975036367449552 -0.20306368759738558
I -1.2261904761086506 1.0700286819782394 0.8055232522927094
C -2.5000083335023255 -0.6141945826209627 0.3457574027672505
H -2.167917551842369 -1.4398061595605398 0.9750022897615319
H -3.511955452126416 -0.3044680684845787 0.6075602623674257
H -2.3870183688277713 -0.8340962630051327 -0.7162174864930725
H 0.3152957652136237 -2.7845562339306547 -1.1386334019241693
Rh 1.2974137828495773 0.5517795290956671 0.2893405090746385
I 0.4861761660549453 -1.4740385364713728 -2.0030426140915125
I 0.8028292573007416 -1.1820006010599613 2.2340387604654888
O 1.9819633477491108 2.7376628340303704 -1.6408141529872287
C 1.6881533962795128 1.9135977701877434 -0.9131451359070798
O 4.216145499321006 0.09574668948100198 0.7849009740673331
C 3.1162390362085772 0.2893085729106162 0.5727930282040637
