23
## STRUCTURE-ID: 6456b9231f845e397c56edda ; CHARGE = -1; SPIN = 1
C -2.011908240165685 0.39836519400452797 -0.8986346334432911
O -2.9326080050431593 0.749896349595339 -1.531766013636155
H -1.1102122137134278 1.5243056236768164 2.039601884551101
I -0.7210305712865767 -0.023967367167761197 2.1979689042825865
O 1.9780798999221492 -1.2600485304918572 1.7934949057834537
C -1.1707711436815094 0.5306381431587558 4.399198712455461
H -0.4801051234571782 1.3118476087038358 4.685383138521848
H -1.01222384785296 -0.3636954379611467 4.9852831109526665
H -2.199770979054554 0.8570973314400598 4.455092799633597
H 2.773551096616767 -1.0143611625072941 2.3015688542454806
O 1.6199654332969822 -2.1516165268452854 -1.6661324656957317
C -0.8074880178744617 1.6765976808716034 -4.083196102327099
H -0.16290278395749844 2.3526923311484267 -3.532147768804995
H -1.8292798772192866 1.7540745261280597 -3.7304271466265138
H -0.7443837874515666 1.852537553614336 -5.148657990009162
H 1.217646341591335 -3.0163028850236704 -1.8264521727927867
Rh -0.32542734519827704 -0.2568677702521545 -0.5002618144824317
I 1.1093620954209151 2.0109737568384958 -0.4663092963068182
I -0.12355399854288626 -0.3418663967952949 -3.7029251264823904
O 0.055839412995163304 -2.248343220308792 0.04073141106599843
C 1.1511025556045698 -1.6939563355149838 -0.38812684271690595
O 3.4424569040270954 -1.2539904367174313 0.09610997139805691
C 2.28366219502407 -1.3940100295945879 0.48060368043403917
