12
## STRUCTURE-ID: 6456655b7c8b5768ce071031 ; CHARGE = 0; SPIN = 1
O -2.6675110996616374 0.12333925433649268 -0.8268562714540935
C -1.8345262831552376 0.6048871718931145 -0.10827098656561829
H -1.5543416412179238 1.6673029627270428 -0.1749239762403296
H 0.3512910867977877 -1.6714210876394102 2.411004850792516
H -1.299407144873066 0.02302949933328431 0.6540557693415232
H 0.283313827233151 0.09464159356651529 -1.8285163280599435
O 0.19757778040869087 -0.7414913004180113 2.2247344814645924
C 1.2951396841430904 0.052246154019784254 -1.4448294685094805
H 1.8097960282820258 0.9747396539778244 -1.6789064872899482
H 1.8155228531831709 -0.778929874110681 -1.9018054077375988
H 1.2640961303635505 -0.08445606264705556 -0.3722442459370078
H 0.3390487784964134 -0.2638879650389079 3.046558070195368
