8
## STRUCTURE-ID: 645663ba2699221dab233638 ; CHARGE = 0; SPIN = 1
H -1.7798805238952593 0.07293093236345226 0.540345843887063
I -3.34826871250723 -0.06289799274096675 0.6972897797647384
O 0.06307263117844011 0.24551953647663463 0.4904563289235495
C 0.9613044005523104 -0.13368346922493746 -0.5340332596992562
H 0.36143253778526757 -0.5323986759807675 -1.3498723440475036
H 1.6502014071984719 -0.907367395005532 -0.18664934903228705
H 1.5293424941471319 0.7261440726170643 -0.8977502381109896
H 0.5627957655408482 0.5917529914950109 1.2402132383147058
