12
## STRUCTURE-ID: 645668e43a487045fa6cd4bb ; CHARGE = 0; SPIN = 1
O -0.04386723097952573 -0.3383167759429111 0.021788128902163258
C -1.3785601437250874 0.013350255448488939 0.3177388206584942
H -1.4346478974084789 1.0285677223399206 0.7254378526567179
H -1.81527688223886 -0.6856647320336474 1.0389925914076663
H -1.9305336960594686 -0.03520484881144341 -0.6179777631196163
H 0.6546503884847411 0.48025865518788163 -1.5794142182976325
O 0.9965095006037323 0.8091493203410379 -2.4243619395342235
C 0.7916164290434752 -0.3260777633103552 1.1595367503754614
H 0.8390413953025283 0.6755099456618564 1.6009829683163423
H 1.7818739668473165 -0.6247002597115082 0.8237535931287916
H 0.43111280407121105 -1.0320775840879315 1.9152873126423686
H 1.108081366058425 0.03520606491861283 -2.9817640971365327
