18
## STRUCTURE-ID: 64568ca250ef101b9c7ffa80 ; CHARGE = -1; SPIN = 1
I 0.26541388197059446 -2.427356760290922 2.0177774387589125
C -2.3985807227838256 2.534475222814056 0.08792410374933025
H -3.4317493667161414 2.34866525411895 0.3535680153891498
H -2.13017297217529 3.5724469948236672 0.23682198339083743
H -2.194912320791877 2.213431826456364 -0.9269952081581397
O 0.7012596279536208 -2.453381996407843 -2.0499500822301875
C 2.839812580059817 0.6253844943663464 1.970075262686088
H 2.7970735230426014 -0.3271908275055495 2.486009710259493
H 2.03582527840915 1.273932203018069 2.301692903673022
H 3.8080315588845033 1.0966544704594026 2.077450697890823
H 0.7498046325410687 -3.37525470689291 -2.370204563773175
Rh -0.27046825764604326 -0.7508966940270642 -0.003194124110572844
I 2.5331627971624946 0.23155090990969465 -0.14636912831216733
I -1.1527330781460312 1.3306412390593625 1.3968410306190238
O -1.36778233880826 -0.19568764704144123 -2.759031239507941
C -0.8976596332790363 -0.4915091247134551 -1.7040115585843543
O -1.3918808745919569 -3.022874715355886 -1.4958081085350794
C -0.49444431508538683 -2.1830301427908263 -1.472597133205088
