21
## STRUCTURE-ID: 64567c05e74f4f70491dbe94 ; CHARGE = -2; SPIN = 1
O -1.307231948346184 0.9174256423574056 -3.400185131435212
C -0.8994751767290595 1.738705959631486 -0.9407063275826092
H -0.03519367538946659 2.06329889367048 -1.5071290551624883
H -0.7600909282570159 1.9194028417261946 0.12106799817043404
H -1.776260744479058 2.2583942434979334 -1.3076866943479981
H -1.4938577648480047 0.32406269376107477 -4.128916143593492
Rh -1.1079768960152907 -1.6320948451535724 0.9282280332285839
I -2.0856452762822255 -3.3954271616564435 -0.7268672532011212
I -1.1661903331130536 -0.2980749485840515 -1.3492604899362668
O -1.1038675084198 1.0216301402536874 2.3172675748991485
C -1.0366723618284368 -0.019749524100309453 1.7983976648754423
O -1.1977297472828612 -3.2444109039354574 3.464352859616393
C -1.1773519835409407 -2.6818755164845696 2.4675177507092725
O 1.922202144286847 -0.005272079888705799 -1.814484625795987
H 2.113383101495725 -0.8531039872201676 -2.2289012569305626
Rh 1.7660761960772031 -0.0559394347280636 0.20641942744765213
I 1.8487075918111278 -2.673682385211882 0.24777700088790314
O 2.100461851973769 2.910738847298339 0.38367788793447083
C 1.9756108504155316 1.7689987146047004 0.24878071371575558
O 1.7139613360654025 -0.007844990236177256 3.189007765187997
C 1.7071412724057695 -0.055182199601855074 2.0316423013125524
