12
## STRUCTURE-ID: 6456649b3b558141844609e0 ; CHARGE = 0; SPIN = 1
O -0.8232834395818625 -0.20357850736525124 -0.3904290146022527
C -1.4714853469233022 0.12533726169438184 0.7914473096741105
H -1.0190678439168162 1.044266700781951 1.1793147271958924
H -1.3899439779882088 -0.6717808688188367 1.5354179207607865
H -2.5187652665153784 0.35577980972403 0.5861229014848
H -1.9267797886170748 -1.461611445220095 -1.2382922610892475
O 0.6352831301250618 0.7395356535705926 -0.35728930762002725
C 1.7683685729132443 -0.10650908072143352 -0.24145183026007164
H 2.6541637109465106 0.5261517878437525 -0.33832761173388154
H 1.7765017389096254 -0.8836059836795943 -1.0048819127831694
H 1.744472842813348 -0.5612928351592157 0.7470253427783743
H 0.5705356678348749 1.097307507349734 -1.2686562638053243
