18
## STRUCTURE-ID: 64567019cc09d9262f6aac6b ; CHARGE = -1; SPIN = 1
I -2.1231289311431634 0.6980991181280675 -2.0428566670815083
C -1.6172065542136014 0.5082982801286744 2.1767714844093518
H -0.8708948535094468 0.5992418096020361 2.9552879501149367
H -1.1816930750249215 -0.008466393290214948 1.3190455655121454
H -2.456456697918026 -0.06970824093280012 2.5404185474578407
O 3.0472258287501304 -0.024072800663381088 -0.8810679563073291
C 0.9018892880817305 2.415010301001801 0.2011312158465534
H 1.2924057403863607 3.399881863914839 0.03675270109147596
H 0.5205716318470527 2.1250993587706546 1.1605709203922647
H -1.9594076395674282 1.4863716772599542 1.8660185229416213
H 3.7994955040765537 0.4443574405272919 -1.2504679154846363
Rh -0.2885146471499403 -1.0529782650779569 -1.2027182580620044
I 1.0011475928044473 -1.4076568060679495 -3.7980796067989435
I 1.2406786911150212 1.0533509721446062 -1.188492807958598
O 1.7315146255876606 -2.6204621081928074 0.3476910274071673
C 0.9266427479693191 -2.0214533119315132 -0.21565614585386067
O -2.3863122595136748 -3.171546602504342 -0.993683374314762
C -1.5779569925780543 -2.353366292816951 -1.0306652033117174
