13
## STRUCTURE-ID: 64566c2ecbc14f11de399e48 ; CHARGE = -1; SPIN = 1
O -0.9862405122506718 -0.7104381444202927 -0.35706135518427695
C -2.256881331289625 -0.203111698552807 0.029184968212776344
H -2.2162103545816474 0.8806216753748063 -0.0698083408159847
H -2.4814508046048567 -0.4533020515600633 1.0697558612470368
H -3.037290677253218 -0.5960148044676852 -0.6269818295193541
H -1.0188657693924426 -1.6721756599640167 -0.26206839804814097
Rh 1.4078822253915337 0.38857168931221775 0.39428256049581023
I 0.24050853173054684 2.450305978359631 1.5347057391715888
I 1.2994733150412616 -1.1183112891218627 2.5384885689430887
O 3.213305665537784 -1.6575515255892994 -0.8104434480930096
C 2.4816597787536954 -0.8884381789554215 -0.3555635703046665
O 1.7493705649579456 2.131117592667819 -2.001859544580714
C 1.604739367959703 1.4487264169169622 -1.0826312115241312
