12
## STRUCTURE-ID: 64566a1bf63baa29366aac63 ; CHARGE = 0; SPIN = 1
O -1.9660341280279787 0.18527121534946567 -0.5399246016600807
C -1.2869979394750481 0.9039936049395859 0.3140314669216161
H -1.233866127555209 1.9783994744882323 0.08529774026857911
H -0.1338491966948058 0.5348169052385701 0.19735607035514569
H -1.513130481998008 0.7141972012461293 1.3730342736413397
H -1.031791298849181 -0.693599093933012 -1.188575610423927
O 1.3606019551735358 -1.11625062494158 0.9265702416424703
C 1.257422010004021 -0.15424864632606933 -0.0307498830462611
H 1.7473523157292024 -0.36789157362556063 -0.976406106437683
H 1.6284481603148153 0.7875493743949038 0.37066494722446086
H -0.11734989493826574 -0.7644434191421969 -1.0871487370242012
H 1.2891946263171894 -2.007794417688307 0.5558501985383538
