18
## STRUCTURE-ID: 64566ee260a54e5bb6408611 ; CHARGE = -1; SPIN = 1
I -2.4351050114347785 0.49268776378324475 -0.36328455331033943
C -2.354226643580059 1.606743835910176 1.5190447704838324
H -2.9074959320847995 2.5270875436661058 1.3620122832192743
H -1.2914365483458115 1.787628051748701 1.690695542382256
H -2.8026768193532052 0.9874352995731331 2.2880701505247614
O 2.6451698063939597 0.8498953760129224 -1.8818797830050245
C 0.8728893036904309 1.6151826978932446 1.0688081368329052
H 1.042368713663717 2.6753531924927882 1.1754390344514258
H 3.066395469502211 -2.3860681010563174 -0.7835624343306345
H 1.3034270455765282 0.9731089189717338 1.822616892856876
H 2.7286088868563967 1.6507714468452954 -2.4077444974851514
Rh -0.15334191315799128 -1.4167121940058796 -0.9505711826935211
I -0.3598427121195513 -0.928258749804826 -3.5054233497356724
I 0.9133395501493257 0.9318874933243156 -0.8166680212977218
O 0.832094728351066 -2.0981258324158594 1.7850373714963548
C 0.3974732014708703 -1.8413694481935612 0.7563585295600864
O -0.8456872292841656 -4.265969106128605 -1.4974742366869718
C -0.6519538962941469 -3.1612781886166057 -1.2614746532627357
