18
## STRUCTURE-ID: 6456707e05a92365c12eaab6 ; CHARGE = -1; SPIN = 1
I -4.464508459432909 0.6604963702434521 -0.48115788113753005
C -1.7871430406549444 0.7260926295882362 -0.34103225987445474
H -1.921786564834176 1.7828107211793847 -0.18248839440558745
H -1.8357446756148994 0.342705895013824 -1.3453243997188267
H -1.9301079508638765 0.058588176019123195 0.495710641464918
O 2.0952206622090057 -0.18780641435048637 -2.259402329102341
C 0.7864551073244664 -2.134977806191626 2.7277633465908417
H -0.14711561538068027 -1.736317514777808 3.109359418527141
H 1.627159163866085 -1.5691788346579925 3.1140584002208733
H 0.8834374004203369 -3.1947737973798294 2.932600398223159
H 2.2625986653976073 -0.5012753494098979 -3.1706494605691304
Rh 0.5511217123456308 0.6470791098084483 -0.1583874429010416
I 0.6964648463837275 1.557993464800254 2.329570108504746
I 0.7696717871884832 -1.8992318264118233 0.5507923621544476
O -0.03850961506504754 -0.16478487954769386 -2.910224750713137
C 0.7778973445065018 0.028497158851133804 -2.026186538001896
O 0.9235564871061046 3.296998911817273 -1.4585448511783745
C 0.7513327450985806 2.287083985406026 -0.9264563680837894
