10
## STRUCTURE-ID: 64568b03defdb125af2abdd0 ; CHARGE = -1; SPIN = 1
I -3.171802609650309 0.8271377993068536 0.4902286831515587
O 1.6743564712176826 -1.2525214987853095 -0.6384663239259077
H 0.6845919421282551 0.54349661325111 1.4213865478586465
H 2.428627835151803 -0.7451896212186102 -1.001493230547094
Rh -0.5378880889017946 0.7691258505593954 0.5382148385289118
I -0.2530306401161664 3.299345558495957 1.2252904188005553
O 0.4230096870589012 0.44233519327444704 -1.4544855200838587
C 0.516321610384 -0.6228407802063464 -0.8033251430751636
O -1.138985495647289 -2.1598586059031 0.2146886634603789
C -0.6252007116251035 -1.101030508774383 0.007961065831863075
