12
## STRUCTURE-ID: 64566b586bc31c76904ed2b3 ; CHARGE = 0; SPIN = 1
O -2.4582495284541515 -0.2845689184145772 0.07591888955687896
C -1.5395641103029882 0.20591113943838205 0.8978481576862538
H -0.2635626162539733 0.06605692578311727 0.33893551641896
H -1.3944956219267712 -0.42610355996597826 1.769043458742536
H -1.5260013806205834 1.2768203556195523 1.0823959146306283
H -2.75725691319897 0.3482617174348632 -0.5981840917289671
O 3.225138563818793 -0.13479048711333672 -0.38542061432684493
C 0.6571810788242828 -0.023946283305131908 -0.3847059574377277
H 0.5125345030734693 -0.9279684547503837 -0.9657701222308712
H 0.6493121924108187 0.8429913595653704 -1.0348006849911324
H 1.5905950269497398 -0.060381529082590174 0.1837327376431061
H 3.3043688056803364 -0.8822822652092829 -0.9789932039628307
