21
## STRUCTURE-ID: 645675fbf6087773304dd533 ; CHARGE = -1; SPIN = 1
H -0.4057966950862758 1.7646990842959955 0.5265203468282302
I -1.4260778960636697 1.675722538932206 -0.811743966843623
O -1.4130665959264934 -0.09198060915220922 0.5450579534433679
C -2.5860150545534655 0.22593432257374732 -2.0272229384852767
H -1.937496818727616 -0.6123016459165045 -2.2497403136727905
H -2.8411119040590904 0.777965522691568 -2.924674222897313
H -3.46838405378848 -0.07817603146329055 -1.479844702917894
H -2.0935548326156437 -0.7689625269763768 0.5232240562529255
O 2.43711727553456 2.0572786111163324 0.23450548783648276
C 0.7966646813454892 -2.3796766863265555 -1.624592202813608
H 0.7379460698080453 -2.361879925719085 -2.706536654905684
H -0.17745318912912755 -2.5197334345373537 -1.169225595417573
H 1.474874608714398 -3.150266171553826 -1.275372937933699
H 2.826725325934111 2.9538948778240295 0.22548384628180115
Rh 0.9288926156562444 0.019014389638337157 1.581962714374528
I 0.6690542282500953 -2.6152155165637394 2.133808509056141
I 1.5734642360273143 -0.4430026573395617 -0.9583284261366114
O 1.70508824903468 2.790658965879884 2.1947771521881556
C 1.7181791648907736 1.836976243323619 1.405837597912126
O 0.6903397112736476 0.5564318207891649 4.501252736548478
C 0.790610873480504 0.36261882848365645 3.3548515613018406
