12
## STRUCTURE-ID: 64566a215ab66f1789068a13 ; CHARGE = 0; SPIN = 1
O -0.5227318790304925 -0.41784351043311074 -0.795382671922051
C -0.6048222659101011 0.15304676985916238 0.4566361575529419
H -1.483856061595588 -0.2953069410358005 0.9269092734232266
H -0.8606946781053348 1.2180815174856754 0.3412954019611723
H -0.10888681712485772 0.898744299975522 -2.421045955173447
H -1.505725819127771 -2.046638498570742 -0.8221284438899435
O 0.49625116113924195 0.6950488502231325 -1.6799322344137908
C 0.6273854413018348 -0.035971459661615024 1.3325720037228814
H 0.4229473138221387 0.34030470659617157 2.3296462779171723
H 1.4685219750630432 0.5085883999913843 0.9137921154065949
H 0.885059435937505 -1.0895998164081258 1.3994735237024194
H 1.1865521936303902 0.07154568197834842 -1.981835448287183
