18
## STRUCTURE-ID: 6456725760ef81738323363b ; CHARGE = -1; SPIN = 1
I -3.729100993322708 -0.805990359480248 -0.9974888764692557
C -2.438686875789805 -0.7005880454566236 0.6918420205981882
H -2.416279800133803 0.32631446077933474 1.0334745536720256
H -1.4520015447800967 -1.0268576359003907 0.38335617637889446
H -2.828240031343337 -1.3551266850014678 1.4602841356372787
O 0.6120789644852679 -1.4471117747702338 -0.27412237769385217
C -0.22895884659028767 0.964613197088398 -2.3205448034233287
H -0.12030044172870782 -0.06325655059776394 -1.98816056329679
H 0.5804481387489924 1.2409032272441378 -2.985051231431754
H -1.1986664978497061 1.1365490055411478 -2.769378605048275
H 1.1291372717892088 -1.9505466665826883 -0.910784617915678
Rh 1.739236469713626 -0.07519914077823166 0.7965321597474716
I -0.07516031085535249 2.195675118576485 -0.55936906102772
I 3.47959444663668 0.07636339189710471 -1.1632819364877605
O 3.482615986431316 1.7004504104517908 2.4456905132498847
C 2.7827849733874372 1.04946033985496 1.7955155146232424
O 0.01064899294149834 -0.7854544304050073 3.1290251041425243
C 0.6708500982597684 -0.4801978624607042 2.2324618947449038
