12
## STRUCTURE-ID: 64566aeadce4792123630f1e ; CHARGE = 0; SPIN = 1
O -1.100531112536806 0.8484669512830104 -0.09062352011214735
C -0.8270258811169168 -0.1586186362848345 -0.7838867476483916
H -4.636614208561961 -1.9348197011549366 1.374337381962896
H 2.5364915806152997 0.7839133697828935 1.999031267443126
H -1.5968400772430653 -0.6540271673304195 -1.3804058711834393
H -2.022544470956327 1.1820964369862876 -0.07490658277538138
O 2.2633168338554075 1.1187919611856914 1.1421794002481533
C 0.5109188238547105 -0.6803761048904655 -0.8202385961124292
H 1.2033883788049498 -0.0789598243500676 -0.2285484783514124
H 0.48531756250026264 -1.7127621841571008 -0.45279509613412877
H 0.8420731942601298 -0.7886223908020301 -1.8570036954803995
H 2.342049376524312 2.0749172897319674 1.1728605381435597
