12
## STRUCTURE-ID: 645668dc86c8650e89763458 ; CHARGE = 0; SPIN = 1
O -1.5982495701417188 0.38567106515061106 -0.8978677839409575
C -2.0362015384913237 -0.1355920007847435 0.3344406167357348
H -1.511285142572682 0.33115391524701265 1.1749956682031586
H -1.8959565596012977 -1.2202403502325647 0.3837169132170033
H -3.099390298820678 0.08781865297643086 0.4160832873441053
H -0.6532343416024097 0.16934998635542017 -0.9976223254986754
O 1.1972145140762662 -0.22280468716974317 -0.9242600115299059
C 1.8486808648319513 0.07404400741072605 0.295046403911228
H 1.2343802714042496 -0.34556930551990284 1.089608926467647
H 1.938339876651578 1.1535487756887048 0.4448425667694517
H 2.840596071238102 -0.38248426025793747 0.336072018248398
H 1.7351058530279677 0.10510420113598988 -1.6550562799271915
