19
## STRUCTURE-ID: 64567affdfbe165fea33a740 ; CHARGE = 0; SPIN = 1
H -1.6454805773895813 1.568242913221548 -1.5285026610062795
I -2.468640476269679 2.870665891688791 -1.0467418337996102
C -3.148372482619066 2.017693203253082 0.8151104756446128
H -2.2620657263985993 1.9741413355435988 1.6188854698072301
H -3.8094590822494827 2.759698293885742 1.294768001083399
H -3.6476618023077982 1.0667565418176468 0.6092165624880419
O 1.1646977018566576 -3.3991456927747676 -0.6460625389892476
C -1.3311343937891575 1.1179851553129612 1.5231633300258922
H -1.4028074304702733 0.6872047284901065 2.5201151906709542
H -1.4103783144903619 0.3681551905832934 0.7489350300910469
H -0.48814413417789054 1.7876071682458707 1.3826085031502044
H 1.62125087192633 -4.238023530790683 -0.7142389553736146
Rh 2.248621139558126 -1.584694367934213 -0.8327107015679812
I 1.353925573279097 -0.713602592005602 1.635304431287116
I 0.07163587781983287 -0.38560420788930205 -1.8721498805779182
O 4.09641241411953 0.6938576453930583 -1.2976291108915894
C 3.310678059169018 -0.1400289266779882 -1.083780314473794
O 4.202809846570624 -3.6819753229273644 -1.7218323666798507
C 3.5441129358625925 -2.768933426435767 -1.4044586308886409
