13
## STRUCTURE-ID: 64566e399c7ad3622a2c50c0 ; CHARGE = 0; SPIN = 1
I -1.603692840611513 1.7787188443668365 0.2933453900146487
C -2.109470164769745 -0.7235777032432954 -0.1256674976425538
H -2.6961673531069503 -0.4885065629317308 -1.0023046294321616
H -2.7022287808104033 -0.7627245540689651 0.7786176585953292
H -1.5300965476123571 -1.6456064430430266 -0.25676022482903293
H 2.2801365002358565 2.6977387438716396 2.002040922551271
Rh 0.2742354987430986 -0.026105625704549787 0.006911014790729014
I 2.7217422119667574 2.3168039005883236 0.5384447453691249
I 0.33830689945631015 -0.6652048082427955 2.5844505367894803
O 2.3770896394664396 -2.1695559932761093 -0.062290994359608796
C 1.5744399425425288 -1.36136483326463 -0.07805635611205168
O 0.6218098840124703 0.6682633120301 -2.8842514017712766
C 0.45389511048753645 0.3811217229182189 -1.7944791639638964
