12
## STRUCTURE-ID: 645668bb86548f6ae67ccc1b ; CHARGE = 0; SPIN = 1
O -1.1178159257555293 -0.6811365641103361 -0.18367180965818933
C -2.0004499209655617 0.2632996180998111 0.454580048280463
H -2.241308296925446 1.1052441673266749 -0.19372179655339902
H -1.5221389820358273 0.6210725369980362 1.3661166635315272
H -2.895412585078479 -0.30613468430749935 0.7106113667897321
H -1.491023406180681 -0.9655732865431846 -1.06383811135982
O 0.1666477346508296 -0.04819608150035496 -0.5817541328015602
C 1.2076133212293427 -0.45198168378027387 0.25430580638249517
H 1.3843022026274063 -1.5277001365798424 0.1978200149536599
H 1.0658258778512117 -0.12363192010602643 1.285915319698359
H 2.0646150716049765 0.07437378906230188 -0.17144986699130052
H 5.379144908977761 2.0403642454406894 -2.0749135022719734
