12
## STRUCTURE-ID: 64566850343d035041662c71 ; CHARGE = 0; SPIN = 1
O -1.2102389240885303 0.15532780447113814 -0.29577609637181884
C -2.221159521413048 0.030050360391164276 0.3384834256831205
H -3.017866712524709 0.785963426067988 0.32396021980921336
H 0.9767296308799729 -0.8896364833088484 0.461972310740992
H -2.407188601511357 -0.848849253881582 0.9703718856453273
H -0.6306926787059592 1.5909920775647173 -1.5464830012999577
O -0.35939729187942016 2.2752093862957703 -2.1733930599719953
C 1.8736156897584972 -1.1940436588240622 0.9852291310748705
H 2.597427035046078 -0.3901765890108558 0.9554743268815264
H 2.2901885588554403 -2.071837856370199 0.5088759737772488
H 1.6327431915883552 -1.42258849152569 2.015242758217886
H 0.4758396239946953 1.9795892781304563 -2.5439578741864217
