18
## STRUCTURE-ID: 64568bd4c1ac4035db1fea7b ; CHARGE = -1; SPIN = 1
I -0.4479403667112053 3.292698715902776 2.504586376367
C -1.5147804571231787 -0.9490973839536695 0.16570526433368749
H -2.156808683902473 -0.3232713820621193 0.787204091497115
H -1.62251453398946 -1.9899167892536789 0.46622496936832475
H -1.8166084838669472 -0.8483661260000503 -0.8841904528180999
O 0.9209485540267957 -2.335770038951253 -0.0968928752266853
C -0.23162893921808814 1.3941944424681572 -2.5163687364752443
H -0.1842250804502237 0.3042201422939271 -2.518775457453046
H 0.6625425333377328 1.7992830667718165 -2.975807750823139
H -1.118196912636149 1.7331093158518442 -3.0370890633721355
H 1.8614419984438042 -2.516476263431305 -0.19547279369435355
Rh 0.5049732534838686 -0.3957356398856847 0.19001138435033513
I -0.3172871408116182 2.0893741094938636 -0.4594862337648528
I 2.9300972043541167 0.21043866739817335 -0.792089186910466
O 1.4399418721979085 1.2114853692399896 2.484526576597305
C 1.0008864283158458 0.18181515358947153 2.073804961640516
O -0.1675098065901739 -1.8923593860336978 2.7129705876552324
C 0.25666856113943687 -0.9656259734385598 2.0911383387284994
