12
## STRUCTURE-ID: 645669bc1cbf1a26111aaa1b ; CHARGE = 0; SPIN = 1
O -0.4646140019738592 0.9199951351098402 1.01778685377947
C -1.121229268039111 0.03644969383313208 0.07701696635715545
H -1.6214853961345501 0.6540007250041773 -0.6659905798913791
H -1.838651509432403 -0.6148936537391088 0.5767186186891081
H -0.3600696065755515 -0.557116677679842 -0.42472150173770945
H -1.127023193395076 1.5229672533981826 1.4221721044138715
O 1.6054669063597056 0.025794782977841522 1.6080652565348768
C 0.3612676160335699 0.21626312698811087 2.0810260257839226
H -0.18226413105667347 -0.6962386414648746 2.353724006263257
H 0.42102647100413004 0.923565026107689 2.911147362933346
H 1.6877508036392126 -0.7478024453960344 1.0308004579146381
H 2.639825309570614 -1.6829843251391197 -11.987745571040548
