18
## STRUCTURE-ID: 64568b2093ead75611092920 ; CHARGE = -1; SPIN = 1
I -1.3487716424413076 -2.5148255069151517 -1.3550314198227622
C -2.5139865011221643 -0.5482105263763095 1.315616061258021
H -3.0185471906147083 -1.5123462209967218 1.3742445027168038
H -3.061843204083004 0.0723925677272932 0.5849837181676747
H -2.568508801844604 -0.049953740891808776 2.2834870065253114
O -1.23281534606324 1.5045183479158348 -2.701857066079191
C 3.446266004105577 0.5518242506315316 -0.07674061648731755
H 3.404421790250676 1.0623857733750508 0.8773507722340513
H 2.77051739158862 1.0160743029648225 -0.7843512728478779
H 4.455239867218137 0.5152916378858075 -0.46509378531403767
H -0.560246024181254 1.6978548942615581 -3.3917866295814565
Rh -0.7389505146639567 -0.26851915373795154 -0.013363790471845315
I 0.03935719916595737 1.8733986759536665 1.3933834355400698
I 2.774142679591541 -1.4719421006250946 0.2215605159639252
O 0.4112851245634623 0.40341160407441207 -1.6598459095763203
C -0.7840492995210628 0.7851828910801743 -1.704913276740207
O -0.6992794341492105 -1.8757067521456572 2.542749513854815
C -0.7742320977994568 -1.2408309441815086 1.5596082406603324
