18
## STRUCTURE-ID: 645671358c6e240cdd4dd536 ; CHARGE = -1; SPIN = 1
I -4.210263932541176 -1.4351280153436554 1.3591972386693534
C -2.2097974986116764 -1.6021118160801107 2.2219373521964885
H -2.21375393079592 -0.8148965992887388 2.980185913000817
H -1.819088989427244 -1.8424519493963036 0.979273927533023
H -2.0884500967385673 -2.5915607580070996 2.677020911611827
O 0.4656834183418437 -0.798296043952066 -1.5034509353413605
C -0.8848461595878478 -1.1285615372179423 1.2921008583347715
H 3.9933106588814598 1.4263741095025138 -3.3808913903684124
H -0.4167200487638181 -1.5924145390620787 0.38994398435780603
H -0.08533498704509253 -1.1747661894052248 2.044487872176504
H 0.6852444526959076 -1.1432918652552482 -2.371298992586156
Rh 1.2611024996783966 1.0524065886450635 -0.9994193621392088
I 2.5264563446628125 -0.09130294879529127 0.9621601147823897
I -1.1753713916055213 0.9630035438547144 0.6654312339671021
O 0.6182636429827914 2.59490023664488 -3.476202864205933
C 0.7790690528323784 1.8959508145735382 -2.5666887020167004
O 2.6733998388041074 3.6445810772675173 -0.6045249507832589
C 2.1010971262371023 2.6375658913155022 -0.6692622091890814
