12
## STRUCTURE-ID: 64568823b84fd44159051b7d ; CHARGE = -1; SPIN = 1
Rh -0.6279181727855976 0.344614516383448 0.2977247965073093
I -3.343762400442091 0.24906389785274236 0.6757311990594285
I -0.4639051000498148 3.073482357783852 0.027958096615592388
O 0.03210475188257142 -2.5711114848596432 0.3775167763521631
C -0.1214000454659494 -1.43218074802519 0.32180061522501613
O -1.3901903728438965 0.6685421743066118 -2.5748818373420184
C -1.0570597643302502 0.5190373586594225 -1.4936243880002464
I -0.09227473494557072 0.3154065854483843 2.93427291327268
C 1.4827487203479022 -0.30714979740112763 -0.09124054719442617
H 1.8517206573056848 0.7273321411399017 -0.12100672612809378
H 1.6917363501345712 -0.7747726040406788 -1.052760253632361
H 2.03820011119246 -0.8122643972477217 0.6985093552649531
