16
## STRUCTURE-ID: 64568cf163f83c1a2a7cab74 ; CHARGE = 0; SPIN = 1
H -1.0858259691044645 -0.862039497198693 -1.5076174540796006
I -1.1057404086656935 -0.2833727941997293 -0.018404727937981077
O 0.43402231129349844 2.230725901327633 0.9772120908392021
C -3.3100607076560546 -0.7407458349750454 -0.2140517290490002
H -3.6903947612322185 -0.14821830967681043 -1.0375829390250597
H -3.774832894264724 -0.45194595209372246 0.7204276356144976
H -3.409461774165204 -1.8053979690923918 -0.3883239104430038
H 0.44949856303844804 3.144852487034252 1.320875047027145
H 1.8360799886686436 -2.551488078376675 -2.592526366466278
Rh 1.7001628953572288 -0.059514053928217764 -0.040915837828012135
I 2.012723189058038 -2.6531885589142172 -1.0139859349254219
I 1.5658494529415323 1.0134037716636752 -2.4214090501508094
O 2.6593347613675187 2.4241723608668067 0.9096852004910622
C 1.6593935362325902 1.7559491495422068 0.6933723728640521
O 2.133733870822231 -0.542589019079856 2.873428919825417
C 1.925517946308639 -0.4706036028992163 1.7398166832438027
