18
## STRUCTURE-ID: 6456730b30b6be2ad4248ada ; CHARGE = -1; SPIN = 1
I -1.0993571157502815 1.6434222024762648 -1.265648130377811
C -1.6276087920347342 -2.1933806563866556 -1.7406489961262823
H -0.8099525114688085 -2.7765250579684495 -2.146863646160584
H -2.5729201102469252 -2.7122329396473432 -1.8413159916081878
H -1.6736324764147499 -1.205260164401176 -2.1880021881420113
O 0.9678714862029361 2.8435850377062213 1.7545660307896398
C 2.0073133532955025 -1.0057630545608365 -1.6184034299371797
H 1.1672184406161634 -0.5155718112975746 -2.099058081448541
H 1.7920631168329362 -2.045362581443188 -1.4017515625946584
H 2.906707013433708 -0.901351133208517 -2.211460470945658
H 1.057321855587513 3.7657773396404415 2.062630538146309
Rh -0.5912016034561064 0.6073697574216288 1.1066436095805527
I 2.3558756547315234 0.002769644265413883 0.2872595073762581
I -1.2594456803933554 -1.9236191622231984 0.4100955465395433
O -0.5398055475783652 0.37957434351243513 4.081317162573426
C -0.5515664275108234 0.3459020125649952 2.9114360839311746
O -1.185800962496521 3.247338562431838 2.1502715664028424
C -0.3430796933496 2.443327661117719 1.7489324520011542
