21
## STRUCTURE-ID: 645678ff840d4549cb67f9c3 ; CHARGE = -1; SPIN = 1
H -2.6573238540652904 1.1705588307613786 -2.4436481537539607
I -2.510427682829031 0.7241367170697024 -0.8265048292387092
O -2.288240515200635 -0.21054303286502538 1.157259180965688
C -2.099787842896887 -1.239966700093585 -1.4868455027245675
H -1.919526512922272 -1.204209542269064 -2.5517455380509886
H -2.9343270952148948 -1.8767829951297241 -1.2246688939082067
H -1.1872444680924483 -1.5591849532447408 -0.9493076884394351
H -3.0867619329152625 -0.24956731482790642 1.6840439791789832
O 2.132789890984158 1.2020078037147817 -0.8208113622106252
C 1.904515201623582 1.7246673536781554 2.6075510511373414
H 2.499183445561721 1.7914026304077637 1.7031642121271897
H 2.4001858280250223 1.0918038079229349 3.33410540425481
H 1.7183719269795326 2.7078603360669966 3.0204115714251136
H 2.205415645862022 1.9267257193409844 -1.4746002581223923
Rh 0.6115796833633417 -0.9774906835385393 0.20492734779813446
I 0.008575675721279284 0.8216466191390656 2.0707769141716588
I 0.034720275855848054 -3.097977836804364 1.7347275249984706
O 2.3551283154015756 -2.2906720914972745 -1.824440434252833
C 1.6257598300387455 -1.8585250182765558 -1.0209342162090473
O 0.21760013759904862 0.8870297122718886 -1.8995668979104228
C 0.9698140471208697 0.5170806381730229 -0.9938934112362333
