12
## STRUCTURE-ID: 6456689c42ff5a5f7a3288b0 ; CHARGE = 0; SPIN = 1
O -0.9159479809472398 -0.22262492158709127 -0.17999433648122776
C -1.2289409821424193 0.3830793338589804 1.0291222597162464
H -2.2430466670349607 0.1063329950262483 1.3213284562199077
H -1.1292221783231213 1.4709762209167896 0.9794581271925129
H -0.5657986786492444 -0.029666178162005164 1.7969138101413065
H -2.4244235919900756 -0.02317847303822252 -1.2637357875667192
O 0.7170042570303045 -0.7737208841352086 0.038231828493542716
C 1.6186520143055856 0.03237955284294469 -0.7041780860549373
H 2.602385136557188 -0.4387139257842149 -0.6375514900993878
H 1.6473080647490523 1.0153450490122784 -0.23764980127522312
H 1.3172063776543397 0.1261843096900285 -1.7469810048455083
H 0.6048242287907726 -1.6463930786403682 -0.3949639754405647
