18
## STRUCTURE-ID: 645673ccd13d8750a6610ab9 ; CHARGE = -1; SPIN = 1
I -4.930270354861042 -0.4769966813481175 -0.6406973542969095
C -2.4550401493632568 -0.4545584849273092 -0.05893275585780612
H -2.3043831394082823 0.4676768504778132 -0.5796308566462239
H -2.313555678720591 -1.3836858873587639 -0.5694777795759802
H -2.67325920687028 -0.4356400949562622 0.9868194905756598
O -0.5411696537469077 -0.45695726076166154 0.41931655706351095
C 1.3369408089428279 1.6591062150578646 2.1923272451873306
H 0.36956851158372256 1.3216525317225933 1.8367710127040688
H 1.5363042223828638 2.6689183655205557 1.855577449879064
H 1.4235923565109834 1.5667633935578025 3.2670371737411856
H -0.49331408601346877 -1.2474036999719231 0.9642783720558212
Rh 0.9222075237200276 -0.29584672689552965 -1.1303562302607675
I 2.8190887927912773 0.3694343816215768 1.2978890394633276
I 0.3336035162430416 2.2423739997629437 -1.4326733959186468
O 2.7995003565164147 -0.004073355180156878 -3.4253369166898233
C 2.0877027465840654 -0.12832532109805372 -2.529728912121349
O 1.0489718452106784 -3.2807727754814753 -1.2671369507612416
C 1.0335115884979138 -2.1316654497419156 -1.186045188541225
