13
## STRUCTURE-ID: 64566c25732dcc438f3d7d80 ; CHARGE = -1; SPIN = 1
O -0.7915407099262796 -0.37068139212631457 -0.6779417068055767
C -2.397905736524069 0.31114001366580285 0.6010185409151155
H -2.2815844838334938 -0.5995900302631157 1.1605871200842484
H -2.8020510949209783 0.23430875100920098 -0.39232130448787444
H -2.7984170417148047 1.1378471737336906 1.1582581438642707
H -1.1048249630179603 -1.2506522536701643 -0.9172640764229424
Rh 1.2670023787854925 -0.1542823052967626 -0.09463271216302145
I -0.17716069553081204 1.760639947459082 1.4114712900729531
I 0.9952606703834069 -2.11849111143111 1.714869643449654
O 4.181076273435509 -0.08010865861330167 0.5311533548950768
C 3.052729467246939 -0.09255532651913702 0.2760842267060058
O 1.4076504180741605 0.7690101083515155 -2.9410050737068723
C 1.4497655175428872 0.4534150837006664 -1.8302774464010128
