33
## STRUCTURE-ID: 6456c3085c3d94050d750efb ; CHARGE = -3; SPIN = 1
Rh -2.306555872802032 -0.8834650162176214 2.104929518566525
I -1.1841027700046385 0.8382518110399594 3.7915117094394306
I -3.1854580558711363 -2.3254526807464484 4.1187527625793425
O -3.662734956843651 1.280009878211825 1.025131760749212
C -3.777437253238238 0.4651859007854555 1.9079973580714211
O -1.2722348380960722 0.025504157664982846 -0.5316804379820191
C -1.5168228410257083 -0.20518294123337194 0.577627835222944
I -3.622942489112979 -2.4005120683265035 0.3648009175499938
C -4.963414406798115 0.4158825930532048 2.830849721176779
H -5.628958217892552 1.2324146172775738 2.5539660267598445
H -5.482602577813994 -0.5384924662773807 2.7320956268433854
H -4.65084225887627 0.524274201699729 3.870047442835976
O 3.1521021509623064 3.121674112110285 -2.480855209255434
C -0.05516394989625185 0.8780278520184941 -3.234669305455214
H 0.23995067546024176 1.3336462163521172 -4.171720869089019
H -0.09688297100804709 1.6180463178162205 -2.4400871083327975
H -1.012157413361135 0.37642610581616304 -3.3237262874606452
H 3.8656132994044707 2.918821167962625 -3.1098144686476115
Rh 1.1245049755156742 -2.21434092985498 -0.6077623293581443
I 0.309025772022111 -4.215347430126041 -2.1408946880219295
I 1.4165814319920562 -0.5612893904557801 -2.6642246413025665
O 0.7314404085486624 0.026066453673470366 1.2461563214603149
C 1.5336889758893681 -0.6742248899873586 0.603309844421822
O -0.3742981810181449 -2.690722246073918 1.9045897630294581
C 0.2537881029164061 -2.7116299368896613 0.9054557160746602
O 2.8581301742726914 -0.41688082245279456 0.844547214018972
H 2.9707950117434776 0.26747576460128925 1.5336937351946964
Rh 3.6646159388227044 0.3074544168614855 -1.6652793324672424
I 3.9309395546915296 -2.3914979321674954 -1.555535581755961
O 2.0032501943526175 2.293602753118082 -0.7907524334993322
C 2.9052306998801396 2.102025493137832 -1.6075965097758484
O 6.453215443519271 1.2836496166413123 -1.1859141946276017
C 5.379736243665299 0.9205993209675614 -1.4049498769633084
