12
## STRUCTURE-ID: 64566ad0b063bd69e95c0b0b ; CHARGE = 0; SPIN = 1
O -1.830897875608237 -0.8661343942605495 -0.24731363348725138
C -2.7503737244731665 -0.19966257482398028 0.5900502719490459
H -2.4312463579315695 -0.2264060803888609 1.6366788014767462
H -3.7524158466812088 -0.6307529206864148 0.5085756737009343
H -2.7840351656499336 0.8360181526267965 0.2562772061061159
H -1.7915165505550728 -1.7951376010839988 0.010381508719460666
O 2.8046393018876565 -0.04652141934329404 0.45550135119555724
C 2.6577569798980294 0.6074321810104946 -0.78620993959213
H 1.8933354229611794 0.12694755121072554 -1.4042677221235473
H 3.61961089787525 0.537540850083855 -1.291346156216345
H 2.402251107650562 1.6630801222685954 -0.6528688941881915
H 1.9628918106262563 -0.006403866613683003 0.9245415324598522
