18
## STRUCTURE-ID: 645673996108db66e15b5c20 ; CHARGE = -1; SPIN = 1
I -5.0941386730697875 -1.1420879062018328 -0.5256826257785305
C -3.256903474309202 -0.08527590007068407 -0.3038093452705692
H -3.416070355869521 0.7417405238470878 0.3753994727029926
H -2.9488794363696753 0.26301136141307685 -1.2805017144160948
H -2.5234881352262146 -0.7721581385933373 0.10018833964327667
O 2.796668770624568 0.40535453181172076 0.7306551258101175
C 1.2946909584233754 1.7544630027120105 -1.7732384256670646
H 2.057382159081619 1.687452543367133 -1.004627147037244
H 0.5250587126680946 2.46404103053273 -1.4941104002370382
H 1.7223611531911491 1.9777541218272539 -2.7414449232069495
H 3.273793612993129 0.6831667897674761 1.5160695833411164
Rh 1.0222933996487844 -0.6776577501978818 1.1089468776076206
I 0.37897851852558334 -0.19158841937748314 -1.8894343156854088
I -0.33060014971523877 1.4710608218126093 1.7805659269659042
O -1.1478636997404854 -2.5778803314629473 1.8652084723976134
C -0.3227258003957527 -1.829497298490503 1.5438058264903385
O 3.499959221911806 -2.3453189100012874 0.9760537173033811
C 2.4694832176277743 -1.8265800726951216 1.0159555550365325
