18
## STRUCTURE-ID: 645672a8eeddc130aa610aa4 ; CHARGE = -1; SPIN = 1
I -2.2128546735339896 2.585705570189336 0.7912407928201367
C -2.8382274597605326 -0.1399096413052538 -2.0590025053332592
H -3.1955642083507603 0.40885496131293575 -1.1943588512561853
H -3.3562225050641126 0.17221970299502778 -2.9565528758126485
H -2.9169298485744832 -1.208567988821321 -1.9017203748617546
O 2.4463865273426224 0.575106977175394 -1.052024029094969
C 0.48643965795338034 -2.437500221368472 1.884458537353477
H 1.480084486465166 -2.003205961047281 1.8846284279289591
H 0.36583939602913146 -3.137903362798154 1.0673603962436946
H 0.2581933275220618 -2.8959021400296368 2.8379079656498805
H 3.3033689188755218 0.10713853680842543 -1.0952557762046957
Rh 0.15658058776455394 1.3684179676057115 0.38962512486674067
I -0.8895144913118403 -0.8036186719208721 1.5838118839879722
I -0.7282162046153967 0.3402214864593787 -2.3185943163130966
O 1.9589675744899322 3.7514379541731 0.4586040870755658
C 1.1966893095157811 2.8684299041338215 0.40054244032723435
O 2.5706704789479597 -0.06789005444772755 1.0727907371278007
C 1.9143091263049996 0.5169649808855861 0.20653833549514325
