12
## STRUCTURE-ID: 645668966d2d6272ab4b6a60 ; CHARGE = 0; SPIN = 1
O -0.8468198081196888 -0.4032109449192854 -0.20307609765868448
C -1.417587037475401 0.4946223410759993 0.6881540318459887
H -0.856772966637943 0.44206728014315216 1.6275861963731284
H -2.434277845648641 0.17614251676322093 0.9232124298771976
H -1.418869621564494 1.5159125358581815 0.2970235878411969
H -2.1624094027407357 -0.8042542164457396 -1.4589965618740857
O 0.7824457230586384 -0.5916011750588663 0.3841670077022322
C 1.7011162579287173 0.05662596731403464 -0.48120346958089455
H 1.5550546177972084 1.1300959488833227 -0.37671559076610517
H 1.556811717937621 -0.23707840833123225 -1.5205293632443464
H 2.706120170241404 -0.2153088856831236 -0.14951897547400167
H 0.8351881952233773 -1.564012959599599 0.2698968049583877
