18
## STRUCTURE-ID: 645673fb3a5a6677a95a852e ; CHARGE = -1; SPIN = 1
I -2.255364139045192 -2.50551382970582 -2.9892016735600206
C -3.6943053020409624 -1.7455116298646274 0.38653470010410207
H -3.8802413249297705 -2.809788595414069 0.4347662347156351
H -4.528039088348398 -1.1740544723399473 0.0027126888614195706
H -3.2723435790231377 -1.3380041528646553 1.2960816424763872
O 3.637569090646129 2.982577665515024 -0.515150157732031
C -1.8368941315565774 -1.4434113505265957 -1.2531271610287862
H -2.818042721158306 -1.6135984100694492 -0.42834092502068105
H -0.9909301898998019 -1.8411663536482286 -0.7125140667888687
H -1.8119351141831652 -0.3757106621574962 -1.4145518384042843
H 4.525094818495562 3.2018156671429114 -0.8608639374418828
Rh 1.8972192704930586 1.1055188235799946 0.7078418499567463
I 1.2641540447844277 0.3253496014712519 -1.6662249097666524
I -0.22170389766938126 0.06806363489739925 1.8408676341937085
O 3.1591284029108198 2.483671590765831 3.025704852801638
C 2.588033705664681 1.9187995892291436 2.176386556838242
O 4.636649566958412 1.0455258869717632 -0.020522740489801173
C 3.6019505879015954 1.7154369970176102 -0.010398749714896377
