15
## STRUCTURE-ID: 64568df1ac9ed80af364e47a ; CHARGE = 0; SPIN = 1
H -2.3192707186469366 -0.02009252452029514 -3.0555716032765665
I -1.4868093469812897 1.26756322993495 -2.595231541862901
O 0.1635178096826078 1.035484406062818 2.359750247624305
C -0.9997719171819126 -1.0575066660023382 -0.24455821398305594
H -1.7405436022676188 -0.8542034573194901 0.5230419499412464
H -1.325472956879964 -1.5956840726411587 -1.1242164981167526
H 0.41262621887453976 1.976027538809209 2.4223919600177783
O 1.188661630261229 -1.9637613917230254 -0.5624489861584326
H 2.0216837681604973 -2.100074419913597 -0.08464914041955873
Rh 0.05900855166114774 0.8358664225443609 -0.5426250361404743
I 0.5363944458714807 3.4150521792461106 -0.7815983883807964
O 1.7154553684427731 0.8769977366145078 0.6874346279079431
C 0.8076976853612224 0.4095700885575528 1.3802816132308398
O 0.6641949354690092 -0.9560844081160749 1.4619843723760875
C 0.30262812817337337 -1.2691546615334148 0.1560146372406171
