18
## STRUCTURE-ID: 6456730350f32824f332bae0 ; CHARGE = -1; SPIN = 1
I -3.5412974963892063 0.9316048994068495 -0.18234085951952003
C -2.6340109196538335 -0.37653915377103525 1.2387406723078738
H -1.6750301966737482 0.05127108497590778 1.51914302738215
H -2.5002501943553015 -1.3382669836757282 0.7605435950815486
H -3.2881278495552824 -0.44679929352649067 2.097436188745222
O 1.308864166583618 -1.230052660291661 1.228648624744554
C 1.1196535799974996 -0.943146007987843 -3.226569875812414
H 1.2394428074765937 -1.9994446692009338 -3.021037162620707
H 2.055806476247618 -0.41516364469094014 -3.081656835017793
H 0.722049939454284 -0.7731688802214411 -4.218831381509981
H 1.4387182415285704 -1.9309082169594274 1.8948391476885604
Rh 0.9596573331086974 1.141648653485195 0.26803716264360833
I -0.3071968199078797 -0.14977502596911244 -1.7911743896304406
I 3.4168006057000726 1.2442626251428541 -0.7908431924858761
O -0.18653660047493345 3.646804266650409 1.4053384715562225
C 0.20380664649839222 2.5812549555291957 1.1280305375466806
O 0.734611568880599 0.04797617435692579 2.9864419247734406
C 0.9330387115342393 -0.04155812325272855 1.7852543441268787
