18
## STRUCTURE-ID: 64567208b4efe65c62662c6e ; CHARGE = -1; SPIN = 1
I -6.07837325599569 -3.0712494787868403 3.234405034074974
C -1.314069089731843 -1.660002654386359 0.8918815735752653
H -1.1459988575073297 -1.160976567119653 1.8441347212440125
H -2.258786701541669 -1.3075780538902846 0.4848341455525484
H -1.4088876509583286 -2.72665374144052 1.0837103076088779
O -0.5905230960203793 1.9804892418648823 -1.2255545482387673
C -0.17565547175892224 -1.4084638382878485 -0.08179371547620806
H -0.13210594884983082 -0.2940836703580292 -0.29666534414630596
H 0.7738642867176764 -1.7822215772487873 0.33911688762755393
H -0.3600087695036793 -1.915629965599246 -1.0286035233635817
H -1.172200978632336 2.6873425197116125 -1.587516646984394
Rh 1.5107395999557285 0.6457343734811378 -0.313674074677484
I 2.031131253447759 -0.2514277295796906 -2.709017352187303
I 1.0299921280250492 1.392913788247158 2.1473738862996035
O 4.208892430451451 1.8704857498283172 -0.183433400618788
C 3.172498642782992 1.414143694118459 -0.23757517934585962
O 1.2510486746306233 3.2962622938902792 -1.2925884025639471
C 0.6584428044881248 2.2909156155561603 -1.0690343683808956
