18
## STRUCTURE-ID: 64568a1c3f808d29053d7d80 ; CHARGE = -1; SPIN = 1
I -2.1520673187899173 3.1975808028653274 -0.8970857261777523
C -3.1401578782028947 0.14902375507779023 -1.8283021367297645
H -3.27486308743381 -0.9387870806467763 -1.860789589526054
H -3.9062572864680356 0.5618397236730502 -1.1560342718669414
H -3.358975466893649 0.5293582723685997 -2.8371231969832493
O 3.064315903757543 -2.4322346933735695 1.1942529043871497
C 1.9503509198621258 -0.3222330190965919 2.4376981076593727
H 2.0788499880532783 -1.1578548767560977 3.1114006417939293
H 1.1407437580892241 0.32857513384015324 2.7406224028646697
H 2.8809841287917197 0.2183870263527026 2.3247179697144182
H 3.2992394510403646 -3.081442157544113 0.5285081577955067
Rh -1.2472115797348553 0.7205133607279361 -1.2513247455981462
I -0.2393336289609741 -1.4262453254908662 -2.4455956443960454
I 1.4527776606718352 -1.1466257558313777 0.5479463577419382
O -0.4301155319469081 1.0350895293730102 1.3683917663687462
C -0.10546714041583806 0.44315857911405027 0.3638760660206784
O 1.5217102966266585 1.8967430530733194 -1.2142945404676562
C 0.4654768119540549 1.4251536722734388 -1.126864522600811
