19
## STRUCTURE-ID: 64567ab8399ff920536dc171 ; CHARGE = 0; SPIN = 1
H -4.169974625434658 -1.2987559044707513 -0.8721143278966292
I -3.450220624589409 -1.565181547538904 -2.2406248321830886
C 0.15609985692801373 0.9350005912887983 3.0720085256824845
H -0.7939944228420157 0.7916283543579729 3.5807030067369454
H 0.7852031074542503 1.5823123932110723 3.68113809029884
H 0.6561822848974217 -0.026816205534483165 2.9776823768591463
O 0.1499268884150865 -2.504681090940101 -1.4547769959515988
C -0.037040023253410014 1.5844346386580703 1.7249674847278182
H 0.901883275379106 1.6916664400943977 1.1864979276381007
H -0.7756999835394264 -2.661510956849428 -1.6925392462358952
H -0.5362152380325288 2.546537173454859 1.7981397688042624
H 0.35431151958730206 -3.067226004159803 -0.6914901453403035
Rh 1.0577057858535237 -0.4668323174403871 -1.4990245399325761
I 2.572456668741801 -1.174265086054926 0.4939876918874181
I -1.2977922698243072 0.3926937501166903 0.4288284200802279
O -0.30536068591221815 0.15750866362582633 -4.093161474751426
C 0.18100239608257118 -0.10102177437239027 -3.0924336315006573
O 2.5718407396026617 2.0836053442721023 -1.6715080253905246
C 1.9796853504862153 1.100903538281336 -1.6362800735326184
