8
## STRUCTURE-ID: 645663c0031c012e0e1d80b8 ; CHARGE = 0; SPIN = 1
H -3.024091655457734 -0.22785177279237712 -0.6721316640914362
I -1.985096828578806 0.6042878942421259 0.2384637853595777
O 1.8858620472626932 0.8571314499692589 1.0220095378342817
C -0.10455527593688077 -0.28051128574179024 -0.33306334553671874
H 0.7903805888184956 0.25106410810412105 0.29494596370326276
H -0.18163582798231293 -1.3358924817579132 -0.0978263339010501
H 0.0067524579465720646 -0.10395587358387542 -1.39666908097379
H 2.612384493927973 0.23572796156045117 0.9442711376058792
