18
## STRUCTURE-ID: 64568b8f1466c47ac6111dea ; CHARGE = -1; SPIN = 1
I -0.7730591824032338 1.977899704206248 2.5418388074338094
C -1.8451220429199942 -0.7054954782621848 0.5979560491957823
H -2.630540958710559 0.05608167729343355 0.594364125791984
H -1.9788018723671201 -1.3346655739102833 1.4817489399353936
H -1.9709652215685824 -1.3381311024161597 -0.28450874929461173
O 0.6173619045415921 -1.2726398782799255 -0.7111586332099181
C 0.5907422938800022 0.8478031448067871 -3.2312707865586314
H 0.9406509588896221 -0.09740938789084241 -2.828683295094936
H 1.387598210453935 1.5830290839368588 -3.2478294571424438
H 0.1222150503464167 0.7287095609489147 -4.200393594081136
H 0.49697272754569216 -2.1287113964391686 -0.2912818198874711
Rh 0.023436012500577856 0.24609413183479123 0.48349529877365705
I -0.9148440256786675 1.5552520723054375 -1.8552390667746625
I 2.4278787478566626 1.5481761366910327 0.10043653825522733
O 1.7845371479009715 0.683745513484537 3.485091486210474
C 0.7783669222995837 0.35746563722086316 2.9403212359608535
O 0.5011191142792571 -1.9408995484649179 2.357709652819335
C 0.4424542131538291 -0.7663042970654073 2.067403267667292
