12
## STRUCTURE-ID: 64566a7d8df09d27975c0b00 ; CHARGE = 0; SPIN = 1
O -0.8029010476501696 -0.45035338838700517 -0.10195542298637741
C -1.170734817847464 -0.3237921358177825 1.2121142766644928
H -1.572307298057127 0.6811193172467768 1.424074317463721
H -0.3360869893894676 -0.5160836283301311 1.9067721435618334
H -1.9674332312835217 -1.0470842229140904 1.441478747607728
H 0.44012476788250054 -1.0499945019370869 -0.46031271445149313
O 1.387626311177867 -0.8840148146948503 -0.8508442376551559
C 0.6525731198142275 0.9602498857638402 -0.6757502284223698
H 0.42901900682268856 1.3480666998822788 0.303331659572539
H -0.08405482489219993 1.1707137149073688 -1.4303202303177114
H 1.6728668240862496 1.166875025396237 -0.9697302118311595
H 1.3513081793363897 -1.055701951115542 -1.798858099206036
