19
## STRUCTURE-ID: 64568f3d9ad1af0f413d7d80 ; CHARGE = 0; SPIN = 1
H -3.5301927829613087 0.19150264903926892 -0.2064671180925183
I -2.712383400835326 1.4121002779037466 0.39651371590092443
C -2.269547513602563 -3.8178305358452946 0.8197820575917701
H -3.047936603167265 -3.508395950694404 1.4995189256080068
H -2.4178038223263623 -3.727388435815328 -0.2451698854590935
H -1.4455696956868052 -4.412628798978647 1.1754661259639176
O 2.1572128451243233 1.9120958130117658 -3.367061025111915
C 2.3432677235482595 2.6255985136532076 -0.7300566000741495
H 2.7953634297403704 3.073474298192906 -1.6018163508564531
H 3.1102330132474667 2.31289829267748 -0.027536572474819675
H 1.6628011730398082 3.3273374552266075 -0.25670602046125596
H 1.911002813273947 1.4404523091464112 -4.1614352824368614
Rh 0.08089424728872978 0.03450958460421727 0.7658754228002678
I -0.5588299224434817 -1.583290413136575 -1.182142890757441
I 1.28683187366503 0.953941476990351 -1.3964711034780366
O 1.6425922749458077 1.9329546061833511 2.4841629301661716
C 1.0180691669579087 1.1867906085277122 1.8750345963530297
O -1.3066612945715268 -2.1464061902415095 2.212762226725003
C -0.7193435252414375 -1.2077155604491687 1.9457468480993587
