12
## STRUCTURE-ID: 645665044cf5ca58aa4975b0 ; CHARGE = 0; SPIN = 1
O -2.0687688677204448 0.14317607625841533 -0.44096529309878124
C -1.3459278975325215 -0.5259584733912236 0.419798291074181
H -0.7681594584968492 0.0006462363650830507 1.1900072906953238
H -1.0718878677608634 -1.5644555139057605 0.20226745614305272
H -2.611998010156047 -0.3238942078816503 0.5162983377225764
H -1.1760903504720817 0.8455453280066207 -1.8852495561748326
O 1.5222750567067662 0.7608986924970543 0.9456342867592585
C 1.498599188857493 -0.07858736530355465 -0.17951261245910513
H 2.298220065748089 0.15474211882777084 -0.8866885570594417
H 0.5409343718928994 0.004338375254709694 -0.7210599604944576
H 1.625313622811394 -1.0976655396320107 0.1795318124367807
H 1.5574901461221493 1.6812142729046824 0.6599385044554753
