13
## STRUCTURE-ID: 645673a5b714a51f95112995 ; CHARGE = -1; SPIN = 1
I -3.267433665286819 -2.021535226850312 0.2374433283138465
C -1.885179898676434 -0.5077083955151951 -0.3269289695378446
H -2.3302439452140793 0.4564712730968757 -0.11332177854383035
H -1.6813071222949958 -0.6022925058145348 -1.3876811074195634
H -0.9673240412893266 -0.6507232596809418 0.264340628429608
O -0.2435600871435122 1.1892555971227858 -3.030421605687221
Rh 1.3366306815749167 0.2970767511405836 0.20414647346298317
I 1.7663411628727488 -1.4595106086691847 -1.664924497688048
I 0.34804112394555 2.0561870763878667 -1.4697659228373259
O 1.0953872187216314 2.3452629657828687 2.366557000443874
C 1.1710686001323787 1.5570602347241211 1.5370057118662395
O 2.569216814211729 -1.7237035359682829 2.030203597026876
C 2.0883631584462123 -0.9358403657566348 1.353347142170394
