21
## STRUCTURE-ID: 645675d0775ab52f110876fb ; CHARGE = -1; SPIN = 1
H -2.66778369218397 -0.49602466751619156 2.7333012305449995
I -1.221017868264346 0.043806850971122 -1.0052399799112193
O -2.1432456762851344 -1.1045150628524385 2.2021054759406677
C -2.1874036709336324 -1.7667347864102632 -1.6868132998587257
H -1.8979027616146578 -2.5682433840452643 -1.017158048743107
H -1.8422542806664821 -1.9736348268075408 -2.6915770682907763
H -3.25672834091908 -1.6019490151140663 -1.6617505545448554
H -2.3065009920375763 -1.997512974188902 2.5327488910338802
O 2.2868167634412995 0.1542670433746133 -0.041172968235817835
C 1.159936335778173 2.5749029107198167 -2.2325961062191677
H 0.4553930690146446 2.446201990104799 -3.0434142174482295
H 1.5217104094822982 1.6171932929965809 -1.8805859502029272
H 1.9765543785703752 3.2287058573356533 -2.5087867499040577
H 3.248845572746443 0.23153099681189562 -0.1929276120260417
Rh 0.15283420214017926 -0.6663477674386574 1.5275365864622314
I 0.3694633252920123 -3.2122700090689986 0.898746114246745
I 0.10610440237267052 3.4861128519153857 -0.601249762348081
O 3.023881455419375 -0.6629590119804003 1.8913240111072183
C 2.047090340184455 -0.39908458512862555 1.194652122532672
O 0.7726665543546268 1.797946786525052 3.093524043404936
C 0.4015404741083309 0.8686075097964188 2.489333842459666
