15
## STRUCTURE-ID: 6456b6b715ab360fae4b6601 ; CHARGE = -1; SPIN = 1
C -1.5046353241879131 1.503104968559083 -2.11615563455136
O -2.500718346646587 1.7965741556906385 -2.6018332910041218
I 0.8677199585081955 3.774052084667958 -2.0164845482618157
O 1.4236666133270985 -1.1738743514541348 0.4149986010784263
C -1.3395321410312993 -1.8971367270892774 2.769664912443871
H -0.9734193393512255 -2.46187930463964 3.606878932325323
H -1.9492953755163163 -1.0255839040517818 2.9274421931091434
H 2.15190181262481 -1.708737002526973 0.7400374436491726
Rh 0.11370581553835651 1.211091071409205 -1.2580106745796018
I -1.1216560011416885 1.7272100056249955 1.156699146067411
I -0.4792546999511764 -2.145141450011442 0.9982289240958452
O 0.46106870896433677 -1.5602962097654351 -2.410153294622223
C 0.3361130950270374 -0.4968361813959178 -1.9923168534778144
O 2.756595683509538 1.3060928294803997 0.1600399654967894
C 1.7577395403268894 1.1513600155023358 -0.37903582176908696
