13
## STRUCTURE-ID: 6456893e368f2e767e75cc28 ; CHARGE = -1; SPIN = 1
I 2.2009971211602566 1.7109989136177137 -0.0026682529375561697
O -1.5249850314574334 2.830709342728732 1.1816166937753154
C -0.8546172394892869 -0.12210887479430667 -1.8049822248883651
H -1.8371094802108752 -0.4290326915023053 -2.1155292605485028
H -0.6846630761661612 0.9290543903739654 -1.6638672941433146
H -2.4491092985845504 3.0893872643511524 1.2338855801115975
Rh 0.839443028275938 -0.3408215176111515 0.9372845705933198
I -0.7330404494274054 -2.134290683954442 2.1344993209275462
I -1.3400018006198324 0.8794404686067463 1.6424405489465854
O 3.265678292682583 -2.0382398594341256 0.7809982664667187
C 2.3108500440900968 -1.3906601255511837 0.817341347384446
O 0.7710075371560196 -1.9510987173076275 -1.5713245157916935
C 0.03555035259063986 -1.033337909523227 -1.5696947798960703
