13
## STRUCTURE-ID: 64566e262df3976ca832dfca ; CHARGE = 0; SPIN = 1
I -1.5513478137980687 1.266469557131132 -0.6392072795120385
C -2.6810138512993427 -0.5320173351097175 -0.15129045961110585
H -2.370398073015199 -1.307219922708145 -0.8443147395466662
H -3.729999885056988 -0.28781997938513026 -0.27532386668453135
H -2.4555031009485053 -0.7935078567449452 0.8782374158704942
H 0.607036144133457 -2.9218981180229298 0.012998455835023058
Rh 0.970828490699748 0.8437556231175035 0.23421669819151958
I 0.9881820407035367 -1.9952425140372694 -1.2098676246890712
I 0.16852012090021512 -0.23778462697297026 2.4984636683425414
O 3.597600964915684 0.9249998237573582 1.650979824627775
C 2.607270843261203 0.8904293117090515 1.0785288250582254
O 2.1703665375496524 2.3715285714986045 -2.04039695558016
C 1.6784575819546144 1.7783074657674354 -1.1930239623020107
