12
## STRUCTURE-ID: 6456b801c69e427b3b6a6024 ; CHARGE = -1; SPIN = 1
C -2.0951398781995785 0.29580340394535676 0.13403108855686582
O -2.8072820910484366 0.4026053541176051 -0.7577590872031873
H -0.14999625606758646 -1.0933807869283756 3.7803920776141826
I -0.08948605451051854 -1.8814895322026934 2.383169734830589
O 0.43012318667548277 1.7209307589668374 -2.738618690127448
Rh -0.11669457785630226 0.03324347483196084 0.4561199412668747
I 0.33748951378367825 2.0811964489630963 2.2090106131006397
I 0.4278104115877813 2.179399167769832 -0.9480769885267532
O 2.635677701201981 -0.42121469436729275 -0.8159468957297756
C 1.4532194386519883 -0.531742127939033 -0.5969426389594841
O -0.2611798232390291 -1.7272121930934878 -1.990023426734715
C 0.23545842902054862 -1.0581392740638227 -1.1153557280877775
