21
## STRUCTURE-ID: 645678bc668c8f16c523363e ; CHARGE = -1; SPIN = 1
H -3.6664516408561667 3.5204341711283873 -0.7515446719952608
I -3.031061939922674 2.3443629083451714 0.28960407857607623
O -2.1375141791031145 0.5769797619304774 1.2410856142198678
C -2.6738522243670877 1.221742277648431 -1.4726754116111649
H -2.0891812019210034 1.8281155576108212 -2.1508772588599596
H -3.62830492985872 0.9530875207406975 -1.9045401199129612
H -2.1242553115909466 0.34037647797143894 -1.1768894850316796
H -2.2458235286305257 0.5931797426584234 2.1887942758799235
O 0.7758891440202985 -2.358605229357334 1.5837937857509938
C 0.6314673188329869 1.9179240794520798 0.20271274634108682
H 0.7054825377271502 1.8963604741624953 -0.8786697807924517
H 0.6679136768767485 2.927131846743318 0.5925331436455756
H -0.2523774848272764 1.3850121819544985 0.5407679327142956
H 0.29042562679101885 -2.934387620384338 2.2024210268823614
Rh 2.4582642800860683 -1.6446264442803695 -0.2152567952886449
I 2.3515882054960033 0.8284210490815329 0.9955622264610864
I 0.6942159159655815 -1.160209115864248 -2.142327950883375
O 5.091625406101644 -2.7538160607085365 -1.0615493776643763
C 4.056515027162096 -2.4513641568484017 -0.6103443512832482
O 2.2234367190258832 -4.075025050014491 1.4453507100592198
C 1.90199858299201 -2.9550943719700746 1.0820496627926521
