12
## STRUCTURE-ID: 64568ef469bdb533d822414b ; CHARGE = 0; SPIN = 1
C -1.7421970589301474 1.2786865986678801 0.5663570354009778
H -1.3491274408059024 1.8396691961520741 -0.2868120239518674
H -1.8246638954695256 1.9316167575264298 1.4369259365593636
H -2.7219752618616355 0.9038672037201487 0.2641713142407915
O 3.8455549129601923 0.20865561250624007 -1.781909455596113
Rh -0.12063911290774389 -1.4673954628825712 0.191711318617571
I 1.5528893105569401 -3.1229210885860925 1.2083273959239837
I -1.2904594791222168 -1.9478281197394045 -1.9833234110857958
O 1.7502224376260735 0.13649457950496133 -0.8655265500666577
C 2.8024868675456287 0.16737855408744384 -1.3245529448978863
O -0.0655252653790933 -0.1040834319024455 1.7295222269310204
C -0.8365660142125714 0.17585960094534683 0.8451091579246058
