10
## STRUCTURE-ID: 64568dd3f56d077cf4763453 ; CHARGE = -2; SPIN = 1
O -1.3708623300919214 -0.02722374290528125 1.4041319752494692
H -1.4246031746951309 0.3403474738298196 2.3096477471966157
O 0.4769216931556112 2.3117171896933324 -1.0259823984162728
Rh 0.13782519569846555 0.12006245003305843 -0.9680832590845801
I -0.8991855621105983 0.05247439372852252 -3.3941711171495372
I 2.2863426611647344 1.6713461003057832 -1.4482463857442613
O 0.8098428277329379 -0.07038697390608024 1.9021969980711422
C -0.06683518399216556 -0.25671690794474167 1.0537114686856681
O 0.02650393671307227 -2.6328034555114606 0.30544331636784405
C 0.024049936424992063 -1.5088165273229563 -0.13864834517608882
