20
## STRUCTURE-ID: 645679a492282a67c6462273 ; CHARGE = 0; SPIN = 1
H -3.7240697337308006 0.388971914295116 0.5936949808624663
I -1.3608129374422264 -0.3520166708678219 -1.0475765324735662
O -3.7408867527671354 1.1930365661194453 0.020994471748472552
C -3.262865738047542 0.8687853154651443 -1.3079076409020376
H -3.981168292694833 0.270762470882292 -1.8674632973169674
H -3.024748380273662 1.8024818171971586 -1.8127369795401767
H -4.641303979198868 1.5996793720439118 -0.00895537721856149
O 0.6926723137748569 -1.603300849462023 -0.6770933897577892
C 0.4809659959862522 1.2756778256017074 -0.39148245362393735
H 0.09565644512694556 1.2734022957149809 0.6056961752687017
H 1.053690188368301 0.46985736111845006 -0.7891420027848814
H 0.2991403376767656 2.130438165774282 -1.016007898481737
H 0.5692611335634927 -2.5028226201843533 -0.9929954483106013
Rh 2.1348823912388983 -1.3075964944375267 0.92296659104494
I 0.15551685427035725 -0.994519989222639 2.566774989009076
I 2.8172946321298116 1.8929984731627691 0.6634548733107731
O 4.471037752965221 -2.13064249546522 -0.7514839876619198
C 3.529297096370413 -1.8119122612034146 -0.16212610202872638
O 4.107498622032113 -1.2265278769399777 3.1519465744987842
C 3.3289420506516545 -1.2367523195923191 2.2994424543576844
