12
## STRUCTURE-ID: 645668599a13af2619248ae3 ; CHARGE = 0; SPIN = 1
O -0.49087407462832816 -1.0861541267493828 -0.10221642000469736
C -0.7685999919429195 -1.1114367626263082 1.2941092084914874
H -1.8470677402457936 -1.2026210707334546 1.4149980822206887
H -0.4112999987713364 -0.2095689063798494 1.790377756504579
H -0.27601052467604803 -1.9802999552294982 1.7308445830904338
H -0.8447376141776088 0.14174077669012045 -0.6895628289258705
O 1.555585601042034 0.3024079565315208 -0.4718831563251013
C 0.9489547323191105 1.2722878769204309 -1.0478675382264302
H 0.9733361940446125 2.2558341595944977 -0.5461857185331642
H -0.3930121787764902 1.0267743923908308 -1.0076133319549943
H 1.07026357740278 1.3744988211273905 -2.1409348459357647
H 0.4834620184099932 -0.7834631615362985 -0.22406579040116337
