18
## STRUCTURE-ID: 645670e9191abf4cb532dfde ; CHARGE = -1; SPIN = 1
I -2.183530733644467 1.440943775427352 0.4940127787010045
C -1.359681869847989 -2.5441674061094104 -0.3646531905839328
H -1.595384856126971 -1.7306786021216758 -1.0409399261460353
H -1.8609590882512448 -3.4731344562584727 -0.6046371245582968
H -1.4591789793484868 -2.2420446395566622 0.669326378087966
O 0.4381938794662504 2.618887713907628 2.6420005245870213
C 0.9232719639477658 -3.2741342745272357 -0.5529110273203707
H -0.18713387836975376 -2.7159241225455846 -0.5312733798917417
H 1.56134301092896 -2.504688157633725 -0.12419525724862636
H 0.8055494823105978 -4.1874479773497875 0.021213493163906624
H 0.3816269453939938 1.693032418939465 2.9079673442390597
Rh 0.25642108486117604 2.844931945830301 0.5408652906927458
I 1.5744978977839745 0.5448704025632862 0.12300191674071403
I 1.3768829141815275 -3.6547233998347943 -2.5474114197361883
O 0.44077396647339256 5.7986440422009515 1.0840951402171155
C 0.3712884440900593 4.654550242633617 0.8800807666143249
O 0.27030713213457297 3.523775878111332 -2.358359088127321
C 0.24571268401647892 3.2073066163234856 -1.2381832194313804
