13
## STRUCTURE-ID: 64568c98bd294e6834242a3e ; CHARGE = -1; SPIN = 1
I -1.9111778751543682 1.4372479790560377 1.873557651694912
C -1.1095725032055057 -0.47992630197761044 -1.6129191279195476
H -0.9646984275188052 0.5943612073787837 -1.7257667165254842
H -0.27331573658632535 -0.9817292268103721 -2.1054159354182858
H -2.0508078848274915 -0.797040601122056 -2.062518568102904
O 3.033938859843452 2.4684175532441466 0.16280430086142345
Rh -0.18687247493803164 -0.5590747513482465 1.4524412874454156
I 1.5006183523706587 -2.485832630042815 0.6963724807550655
I 1.4364803213308421 0.2976120604238469 3.2937509575618322
O 1.2066667949568541 1.1498561362179474 -0.2383482322006936
C 2.123461661661393 1.809028320325625 -0.030099776712153376
O -1.7183642692588885 -1.6022779331546926 0.4979033718542218
C -1.0863568186737864 -0.8506418121905934 -0.20176169329380175
