13
## STRUCTURE-ID: 64568d686a359125161a561d ; CHARGE = -1; SPIN = 1
I -2.7990873207384603 3.474195985654023 1.6695442018225208
C -1.036458503276576 -1.2290711527286782 -0.13680696936687628
H -0.806865932906143 -1.9539721565019148 -0.9177809303947589
H -1.6705565889926963 -0.4642413206811951 -0.6075026388321464
H -1.621654535252329 -1.7166229720529251 0.6455096318668442
O 0.9757635529695993 1.6944723489363138 -1.603286606886283
Rh 0.4460444864221321 0.2552744644345022 0.5535681097679619
I 2.4537434142911887 1.3633366770481743 1.8342531576569505
I -0.735674004759859 2.632204076059149 0.09398177140883969
O 1.7895846822215054 -0.4066814057526792 -1.7903546719740489
C 1.2239500125497431 0.5336869420497854 -1.2943550403883202
O 1.0539411684761542 -2.6394460561714332 0.8697053933292253
C 0.727269568995717 -1.5431354302931366 0.6835245919900996
