12
## STRUCTURE-ID: 64566701fdd9cc11bd12b090 ; CHARGE = 0; SPIN = 1
O -0.7028551136132221 -0.5215836953797204 -0.30855296097763163
C -1.6573449123849817 0.14199648912225915 0.41768904905874976
H -1.5255346482896506 1.2364098068132947 0.3912552812361634
H -1.659189562950667 -0.18068251908289337 1.472144186884158
H -2.6529295600682175 -0.08342179516471677 0.007480034376153238
H 0.14970225279798266 0.19291313312110026 -1.194424106198822
O 1.117308285978039 0.5302907270561341 -1.370031828265549
C 1.239589197643103 -0.2518244513578822 0.45971198610498903
H 1.233555937187802 -1.326440957939639 0.4232224775516529
H 0.6787183194385743 0.18192057959192423 1.2699347082045402
H 2.2169991328249656 0.20009425364965217 0.3576973118120932
H 1.561980671436277 -0.1196715704295086 -1.9261261397864957
