21
## STRUCTURE-ID: 64568cddc2852149e273b9d4 ; CHARGE = -1; SPIN = 1
H -1.9192257278322646 0.4918613874220712 1.4493244852305207
I -1.2674634912826237 0.038754937699900134 0.06407339136912206
O -0.04953225613309107 -0.9716507736601421 2.631766783311581
C -3.5020765910164235 -0.42912635443076097 -0.3562129002120801
H -3.80696602495381 -1.2033796284068161 0.33378756825175454
H -3.5765432107474227 -0.7723108290192062 -1.3783087815328816
H -4.064324294419343 0.4824105438215999 -0.20842067304016615
H 0.055863616218127354 -1.5283263853942801 3.426576464497027
O 3.2689568345640425 -0.6558947790191341 0.1405355279315742
C 0.612272219038308 0.8583529651579257 -2.9384530929503483
H -0.43515103356501444 1.1071953850611151 -3.0673988193860375
H 0.7186250285912537 -0.13768007638487326 -2.520034292604474
H 1.1680576156315896 0.9659111473868217 -3.8616926611175932
H 3.6558818837181737 -1.465730126329141 -0.24249709229741967
Rh 1.1139119202387755 0.9152811302679748 0.8289479099382349
I 0.17085406004307566 3.01283043629752 2.216096599211105
I 1.4412162913173694 2.2530132653309622 -1.499952074548738
O 1.3732820784390054 -1.6248328460221828 -0.5385709027746634
C 1.9001842213751317 -0.6673764395021625 0.03157436238903166
O 2.0530640428698104 -0.41165242509189864 3.1221314257270305
C 1.0891128179053307 -0.2576505351852915 2.3667267726074335
