12
## STRUCTURE-ID: 64566b186684d96c7167f9d1 ; CHARGE = 0; SPIN = 1
O -1.3887876625215965 0.03168105574260748 -0.951428788299108
C -1.2244564015485404 -0.328403622274307 0.29406940141860344
H -1.2886136949068474 -1.3843027221015385 0.5600934600426698
H -1.6784515122806698 0.37623336953428993 0.9929014007767281
H 0.08738069515770681 -0.09990792428939817 0.5623902109144914
H -1.2233037426804072 -0.6560352540929958 -1.6201992579768723
O 0.9082288417996317 0.6040461956405512 -1.1694488815753954
C 1.099776635609943 0.3641698985102063 -0.04437635451812476
H 0.7228438551015738 2.054898293396498 0.9493527280265232
H 1.9907678898308405 0.31687084180058817 0.5785748168712602
H 0.541247888962473 2.746692952241688 1.3135895530240487
H 1.4533672074759083 -4.0259430841082064 -1.4655182887048288
