18
## STRUCTURE-ID: 64566eb59fbc03361f068a19 ; CHARGE = -1; SPIN = 1
I -1.133291834063877 1.3787234751392161 3.975039721620783
C -1.037115018925104 0.03616141030133314 2.318742794866052
H -1.9280767785126907 0.1950995150013533 1.7189782630921846
H -0.99547998210424 -1.0094054016143312 2.6489538970398345
H 0.1403323303834443 0.12779601060749557 2.169180691236021
O 0.6709404663580405 -1.9827318025537748 1.8042025818880651
C 0.10823711747859992 0.4126163874797237 1.016304712601901
H 1.1933687830450121 0.4968187347718966 1.0925595245336763
H -0.2866654914851187 1.3482075321923392 0.6379156724586875
H 3.0289038515935776 0.2774012174992471 -0.01732693760235867
H 0.9925245809530885 -2.878666477899334 1.740181101404964
Rh -0.1997057603203878 -0.11324143113758144 -2.5858306797809503
I -1.138376710756491 -2.4354162187622213 -3.128369518340701
I -0.11293146203597866 -1.2570570149489682 -0.2953371097883436
O 0.8588140332765137 2.4411456377329266 -1.4624571033468827
C 0.4638748778474655 1.4614454937867114 -1.9180269330038247
O -0.347778527576137 0.9656466398005217 -5.383798318139955
C -0.27757447515570033 0.5354562926034474 -4.330912360739155
