12
## STRUCTURE-ID: 6456683981f30b11447ccc1b ; CHARGE = 0; SPIN = 1
O -1.528364286542811 0.2868561472247216 -0.028785954344808715
C -1.304428032400562 -0.10091372338458174 1.312252430216694
H -0.40309126235426324 0.4130059838502018 1.6416098342838137
H -2.354231820025867 -0.10762803809554872 -0.3343687497299114
H -2.136379146776282 0.19640192739580065 1.9552394394608996
H -0.08066969282344666 0.15091333746428587 -1.2540192973479065
O 0.7295361380555538 -0.02446097766627008 -1.7660958144303525
C 1.8297193872254098 0.07508861914102682 -0.8930803456667121
H 1.758796439311662 -0.6491350778101925 -0.07493768963062583
H 1.917393358799843 1.0822044208402637 -0.4720500661650648
H 2.722230401398599 -0.14143910392353443 -1.4792320715551546
H -1.1505114838678268 -1.1808935150361533 1.3934682849092224
