21
## STRUCTURE-ID: 6456b830d2f55e15156aac54 ; CHARGE = 0; SPIN = 1
C -2.946968511847174 0.24919442845341352 0.2676034110768416
O -4.054250676342273 0.10791988829660094 0.4880293433044352
H -1.6916912026457136 3.7271964974317133 -1.4421037246998776
I -0.7700159809080785 3.244605695011145 -0.24549913298749385
C -1.0347472030138103 0.18900134146591738 2.750907107716874
H -1.7027437298568302 1.045208253086099 2.8517408615887656
H -1.6449518293008738 -0.7136225231307943 2.7779382343392136
H -0.32071866168446805 0.18186712306827316 3.5749209680816176
O 3.150617608874729 0.047171672238075106 -2.6075024569517
C 2.4362644969294425 -1.364712307053974 -0.4544762646018017
H 3.1227550079382995 -1.9395472778388338 -1.060924709669413
H 1.81380995024673 -1.9993643676018127 0.16340025645830594
H 2.97536909373677 -0.6403885446345349 0.13993909418256814
H 3.1494796115205066 0.5779315693926098 -3.405482294069037
Rh -1.1856593898374965 0.3812895884311584 -0.3514236265920786
I -1.8417946155863114 0.5604743123059395 -3.013682534816328
I 1.2126119219649856 -0.31065982140953646 -1.8089516329528148
O 0.8967387992178837 0.341814145783886 1.3452754782539817
C -0.3013336856935025 0.27042306455765003 1.4538208090156164
O -0.7044421134750259 -2.5566035550271233 -0.6709511295343689
C -0.5583288902377845 -1.3991991828258523 -0.7525780571433227
