12
## STRUCTURE-ID: 645667924e23ac495129342e ; CHARGE = 0; SPIN = 1
O -1.002908594292937 0.29807374373300694 -1.0134970553757388
C -1.9723068190182182 0.0224631551613888 -0.021969813062686194
H -1.5107603456422765 0.24217248615143308 0.938967776058665
H -2.2732221450073693 -1.0286307079745236 -0.0418318512702594
H -2.854390068813318 0.6560603038244228 -0.1436939614967714
H -1.389967142349559 0.13740620102271425 -1.8826600220375236
O 1.6497815420306126 -0.6498419765995053 -0.527473486256939
C 2.0580764660933886 0.037956329198850274 0.6310602144563536
H 3.0804638040303947 -0.2728633313418893 0.8431995057259678
H 1.4262068538409265 -0.21414516609223302 1.4895815275421853
H 2.0386997496401666 1.1219893095615154 0.4815056504835043
H 0.7503266994881962 -0.3506403466451834 -0.7531884847667633
