12
## STRUCTURE-ID: 645665f9b5a0ce2c6d0876f0 ; CHARGE = 0; SPIN = 1
O -1.7687639648238316 -0.2081097712762932 0.7673119673964822
C -0.10822087066317179 -0.051053937167718576 -0.477150838455766
H -0.523426327936092 0.6356524353335973 -1.2101608669656008
H -0.16958887814993132 -1.0832794997597686 -0.8054721931315663
H -0.7984517214263357 0.2124499872463024 0.5843958352742689
H -3.442421334171338 -0.28997895749589137 1.5675585449326364
O 2.1751120045351366 -0.03328201889113308 -1.002755874151183
C 1.2843671465242605 0.30509156523701597 0.03147841609175228
H -1.6532616312705557 -1.1048944293793361 1.1107507848163503
H 1.3671130603572557 1.3623038166283181 0.30198397033668434
H 1.5742873901038763 -0.312802725052851 0.8837462570003392
H 2.0632551269207315 0.567903534577758 -1.7516860031443942
