12
## STRUCTURE-ID: 645668b586259e248c15987b ; CHARGE = 0; SPIN = 1
O -0.12746435276996224 0.19696024522564565 -0.5610950353462802
C -1.227453517725001 -0.3337593709244829 0.11235785066883328
H -1.0766853882093295 -0.37519161947326946 1.193000966545616
H -1.524439318869974 -1.3054947860376223 -0.28667049285114543
H -2.008320133111533 0.3967174237100631 -0.11095762764884957
H -5.391689557194109 2.849099532656183 -1.186723101573508
O 1.0683130632624673 -0.6746326290005118 -0.42044838843443016
C 2.0368541398703695 -0.10295642009813748 0.4820690740993549
H 1.6017313009478116 -0.07659282420016177 1.480796187462877
H 2.3362960102815475 0.899938248175069 0.1784615053709491
H 2.887072428584171 -0.7866224754539313 0.47088514535543907
H 1.4257853249335464 -0.6874653245788612 -1.3516760836488506
