15
## STRUCTURE-ID: 6456883f396ad1016b73b9dd ; CHARGE = -1; SPIN = 1
Rh -1.486701006230144 -0.593148918715205 -0.5410027059251393
I -2.17737627204917 -0.549797092034535 -3.0908211061056026
I -1.16876669563648 -3.2111940209415644 -0.4261969551490364
O -1.5403565547059253 -0.3393048776110448 2.4244135273861254
C -1.4556205560758804 -0.5047013889339764 1.2818733391654242
O -2.100688491317401 2.3238699597397554 -0.37523948779036154
C -1.6744417295142595 1.2555782975079883 -0.47757684042182974
H 0.8405616980697874 0.9638660218080786 -2.266640900651436
I 1.406069615956585 -0.1764745400613308 -1.2295276155855799
O 0.47220081563603056 1.6259960694130786 -0.23753637296488903
C 1.9648129447984066 -0.6203335952700054 0.8526059877823524
H 2.62994842609219 0.160322525890879 1.1983911848656097
H 2.4762251711470338 -1.5743571386865973 0.785915243802454
H 1.0791832903105056 -0.696367303511986 1.4714612313803492
H 0.7349493435187396 1.936046001406467 0.6298814702115457
