12
## STRUCTURE-ID: 645667ad13facb7a9a32bae0 ; CHARGE = 0; SPIN = 1
O -0.1690405526288792 0.8976722142642255 -1.6814007545702554
C -1.549142992391065 0.7247316186718714 -1.6555042104863609
H -1.9888106530825194 1.1175369534601505 -0.7332128566374512
H -1.8404164355294539 -0.3215908672216022 -1.7891048611851872
H -1.9243030883363441 1.312454183254902 -2.4983878421328902
H 0.9825299266073865 -0.35315942252369253 0.954308498693388
O 0.5049451055621721 0.17183922074120792 -0.0223016120728335
C 1.3330316398026028 -0.836476396439239 1.9407535867991559
H 2.22173265354345 -0.29241802411125045 2.226487002921529
H 1.5307004593214624 -1.8716708846273482 1.701667226091245
H 0.5234931495989287 -0.7154368035682992 2.6454781080207326
H 0.3752807875321196 0.1665182080990068 -1.088782285441108
