14
## STRUCTURE-ID: 645679634d8aa81dfe73b9eb ; CHARGE = 1; SPIN = 1
H -3.8611135897015445 -2.5059433894535874 -0.9209066932643478
I -4.640374663219819 -1.4041894133268809 -0.0611968979377574
C -2.875825437796076 -0.18605435232055967 0.2643655452652213
H -3.222374747017996 0.7164373445300843 0.7598029264569091
H -2.208243533034871 -0.7442866628214824 0.9180804021228606
H -2.460783368661964 0.03394601964637618 -0.7165930621667032
H -0.13933696218975627 -1.4962544830866684 -0.927427350846663
Rh 2.368039933074945 0.5535605797543058 0.04390456169544625
I 0.8507692514703863 -0.5659483195719756 -1.7891954414291098
I 0.7334405136164185 -0.04588277834844389 1.9335147903429
O 3.9424203084482357 1.867025584822501 2.2096472427612825
C 3.355726924842037 1.3668865821566707 1.3664452785207426
O 4.500849199107348 1.3658498692804917 -1.8924726570699946
C 3.6568061710626307 1.0448534187390741 -1.1879686444508544
