12
## STRUCTURE-ID: 645667fcc8073f57b761a6eb ; CHARGE = 0; SPIN = 1
O -1.397441970614807 1.3742807822257734 0.8618277508027953
C -0.41997800016708636 0.5517859266847437 1.2060025613846805
H 0.278229160861721 1.0345572769081914 1.8921871689970367
H -0.6826079743115455 -0.47386860975397144 1.4727190598092255
H -2.17361692420684 0.9417791161032371 0.4686975708847506
H -2.5967578760172825 -2.846232427884444 -1.5792718842565499
O 1.872947712261115 -0.8468452089352572 -0.5546325807201172
C 1.1347027895754604 0.22847094119748282 -0.7780361174714716
H 0.45336916255591503 0.2145538836774395 -1.6310094820893362
H 1.7296995881537731 1.139125815570209 -0.6878463251980899
H 0.3219553920542977 0.3631429124502953 0.1897017381742398
H 1.4794989398552778 -1.6807504082436941 -0.8603394603171867
