12
## STRUCTURE-ID: 6456683981f30b11447ccc13 ; CHARGE = 0; SPIN = 1
O -1.972793503028909 0.5717703071528075 0.1451169922198005
C -2.3811515377666956 0.7824750996350969 1.4534136013474235
H -2.0699359290314256 -0.002276407704085772 2.1527590755505184
H -2.2749320898660157 -0.3114721409810808 -0.12963179981237358
H -2.0190091124617435 1.7501670629563606 1.8071277404141883
H -0.7352041566407163 0.5147338339890498 -0.23845926227004854
O 1.5186759987550034 -1.5585795523688788 -0.8368282581068484
C 1.8647218059858477 -0.19213539491120307 -0.8276283057051573
H 2.203147117922983 0.14716604731489447 -1.8107871376797666
H 2.6314134401827767 0.02706111525470628 -0.07860772487361452
H 0.9397652744671451 0.3504687920324441 -0.5635923353440973
H 2.295302691481748 -2.0793787623701157 -1.0728825857400184
