18
## STRUCTURE-ID: 645672aaeeddc130aa610abb ; CHARGE = -1; SPIN = 1
I -3.3363197090281207 1.450693644695775 0.14333364389682277
C -1.9372904209554296 0.6764983380205789 -1.2635025482916802
H -0.9471186775952984 0.584932921368872 -0.7564165311787443
H -1.8508968460062987 1.3760551309005498 -2.085318146985357
H -2.2935229376554487 -0.28594896439288175 -1.609013719260551
O 3.175429403473813 1.3154217498582483 -0.9927320368062801
C -0.8018533280744433 -2.95036775255267 1.9578698841522113
H 0.15282245156242888 -3.405451486818302 1.71937801574381
H -1.482186273270337 -3.0365075638133905 1.11873845766792
H -1.230786111154093 -3.3600245876943546 2.863994185162375
H 3.5972533234876534 1.7682076114478487 -1.74925788976154
Rh 0.872279859595315 0.3446381645001349 0.29784046172007267
I -0.45033255840689823 -0.823114401679629 2.3158774296765947
I 1.2033917480652072 -1.8619419792421443 -1.0575323393728207
O 1.1872552271705668 3.1214112997742585 1.3373531096659685
C 1.0014894541382318 2.014648070998767 1.0229626895808897
O 1.318158114029176 1.8024813868178333 -2.1252569885850017
C 1.8222272806239685 1.2683684178105183 -1.1383176770246843
