8
## STRUCTURE-ID: 6456637dfdd6bb1f735b5c25 ; CHARGE = 0; SPIN = 1
H -1.8445552562938898 -0.1813387141299007 -0.07276488179087712
I -3.3674711118007017 -0.39449291664968306 0.2982591431110076
O -0.07142924591307426 0.054788017708025445 -0.5742608241223093
C 1.0539508532327369 0.09253201343458776 0.2816429354517685
H 1.5958891793447811 1.035708844491487 0.17676422093227206
H 1.730384912426365 -0.7418351434526466 0.0808027372281107
H 0.6808245281820365 0.009162568895069775 1.3006320622265675
H 0.2224061408217446 0.1254753297030616 -1.4910753930365437
