12
## STRUCTURE-ID: 6456670048a83829bd051b88 ; CHARGE = 0; SPIN = 1
O -1.5504323467469145 -0.8995145762827036 0.6189416209622185
C -2.0369564263624813 0.1920574211404687 -0.1267579515935217
H -2.0030439276718353 1.1199432858051572 0.45343307336152644
H -3.0737254233692015 -0.03023892814794058 -0.376694238160305
H -1.4702435751932372 0.3297159302555631 -1.0531634295034142
H -0.615902970635502 -0.7291453059953166 0.826216713908792
O 1.1881069817381023 -0.0508453483312979 0.8413183550496229
C 1.8631049342677413 -0.11181347777556308 -0.39818818456375166
H 1.80010562698468 0.840442293198121 -0.9329068883059985
H 1.3695854332343944 -0.8831570033251495 -0.9866026085003203
H 2.9130017514065156 -0.38540685500627503 -0.26666159689811625
H 1.6163999423477493 0.607962564464926 1.4010651342432576
