8
## STRUCTURE-ID: 645663a3489964404f5eb025 ; CHARGE = 0; SPIN = 1
H -1.751124901276857 0.019292728275479416 -0.1280637565524172
I -3.23486652735102 -0.05698861602544295 0.43278872292541415
O -0.022299310778899243 0.03643227952366386 -0.7184486760892231
C 0.9969967523273502 0.11632478672018104 0.2605973217516461
H 1.9279505816206246 0.48663036564643997 -0.17341084351344296
H 1.1725717614550313 -0.8554457067901208 0.7292721146527732
H 0.6540326710519465 0.8204661855438022 1.0164669770505186
H 0.2567389729518296 -0.5667120228939785 -1.4192018602252765
