12
## STRUCTURE-ID: 645669a2db34e4747b3ae5eb ; CHARGE = 0; SPIN = 1
O -0.4555192532936679 -0.4981424722490173 0.06890564317533587
C -1.5192174892763328 0.31673503097345673 -0.48389455623256333
H -2.444591216890004 0.19806843574195265 0.07867437459367724
H -1.6526444090062875 0.020575266445626465 -1.5217056612619673
H -1.1886260861049525 1.3534151862887933 -0.4419385006690129
H -0.7472846835633195 -1.4355254319126913 0.12616549040341665
O 0.5910037892319976 1.2179370565154597 1.2352064163308
C 0.04081787310975758 0.004256220303623112 1.4126013449866854
H -0.8266253524047938 0.11214362648961453 2.0717770861067675
H 0.7278215951415696 -0.7768658485855326 1.75375011679497
H 1.4721573796308833 1.1788509584096087 0.8349749128617079
H 6.002707853425158 -1.6914480284208984 -5.134516667089815
