13
## STRUCTURE-ID: 64568bbdfb15926e9a530d5d ; CHARGE = -1; SPIN = 1
I -1.2594943629280013 1.4464157942033682 2.27903669881884
C -1.5182878097453827 0.17019951680144416 -0.9219012324562499
H -1.2708133774530341 -0.4419073674229772 -1.7998914790596878
H -1.7861218191256176 1.1673622263295742 -1.2860674555296228
H -2.4243223883775555 -0.2469421045233365 -0.47062251493242313
O 1.622617809007282 -0.8829065861089721 -0.6816790479255251
H 1.4861551612089168 -1.835727268859085 -0.7439094279802281
Rh 0.10960533398020995 0.0731856382831004 0.44627173639448
I -0.7281469217726444 -2.3208188247165196 1.3287036557625345
O 2.7280617927384854 -1.0067339379685798 1.7016576243518775
C 1.7837177569385607 -0.47606791324664205 1.3207481806229155
O 0.7287925155678929 2.675879152025207 -0.8457573660426458
C 0.5282363099608864 1.6780616752034117 -0.32658937202426724
