21
## STRUCTURE-ID: 645675281bb4123c935a8529 ; CHARGE = -1; SPIN = 1
H -5.046469008870625 3.6349650135580758 2.757418164652423
I -4.371415397728847 2.93521938380006 1.4177627426237467
O -3.164843999759532 2.5457909690846434 3.0175052143863805
C -2.7179296929109404 1.6830934242090536 0.2825864521643358
H -1.8574350366818273 2.2940463435710217 0.4837392687563017
H -3.149224831204992 1.7439609007693455 -0.7003466057727206
H -2.808298543740714 0.7485983693639262 0.8047359101280372
H -2.392026159723569 2.02523147778517 2.798551195078197
O 3.579147206250699 -3.5495997492380464 -2.1329861734212208
C -1.1632973251009704 0.5015114766304056 -0.7985301797976122
H -0.6562451114288054 0.377650489565732 0.13564893109863016
H -1.8862454088226523 -0.21885759182740266 -1.120737807302209
H -0.9265301754415007 1.3294958949310558 -1.4340406971097068
H 4.174915660919238 -3.765205583877493 -2.8772264952266244
Rh 2.6817146375277385 -1.6034210387255716 -0.2340201033308871
I 1.5705513344273867 -0.414668530760987 1.8235413569545134
I 0.8327498505541993 -0.9714992098521998 -1.938515187337797
O 4.597646533563716 -1.5727129395520743 -2.3161907693750243
C 3.7514723332417375 -2.2546155173542246 -1.7285474640675533
O 4.928863940227295 -3.0324908134675335 1.1010028656189623
C 4.0228991947030135 -2.436492768612967 0.658649381279811
