17
## STRUCTURE-ID: 64568f3de749dd592f462276 ; CHARGE = 0; SPIN = 1
C -0.9065800994295208 -0.0047806699275261145 -2.4641735408709278
H -1.380449665356195 0.568066686550279 -1.668825425439321
H -1.5895451577457098 -0.6289826656717155 -3.025682486439475
H -0.22942904618386697 0.581893779381603 -3.073566750430824
O -1.4383313783777871 0.6325290781162584 0.529299918703256
C 0.49392116438700856 -1.7360166734887243 -1.5902366652215307
H 1.4784503579712953 -1.456268829564564 -1.9688197977985482
H -0.20323937809532694 -0.7344171681206452 -1.8262075788030805
H 0.009348112406891634 -2.5728110702024907 -2.0915245447406083
H -2.23064135579428 0.4864477856646261 1.0534994629237708
Rh 0.3189596326350302 0.872893866840171 1.5783092068635118
I 1.736941911469063 1.6390192714152458 -0.4676207284600582
I 0.5013201969102546 -1.9988407757976339 0.5021220759185797
O 0.7087758248206606 -0.3918970189482434 4.291738876241649
C 0.4643303963161792 0.29498587807515253 3.353256021999044
O 1.2565465119157415 2.660772149627509 3.8160521052002787
C 1.0096219721505704 1.7874063760507262 3.052379850354288
