15
## STRUCTURE-ID: 64566e0711560a31047ccc07 ; CHARGE = -1; SPIN = 1
Rh -1.510016804330272 -0.08494917733542244 0.5275602115901983
I -2.4811515713907983 2.32478441993419 -0.755601997181466
I -0.7206989340790071 1.128454109202619 2.7591640498335175
O -3.7392533753780346 -1.295773747464273 2.110323427517517
C -2.8840774870052917 -0.8585472563359476 1.481779668405341
O -1.3840712171329193 -2.0570226398215583 -1.7199539653248765
C -1.5018963718140166 -1.3412558302251267 -0.8238695202389746
H -0.1944094872496313 0.93421903278626 -2.196098669082454
I 0.5584319099188736 0.9075118821204108 -0.680481355778873
O 1.6788500335965386 -0.08695028633595367 -2.054407535468846
C 2.2110074012721497 0.2627778873812302 0.6181699884443946
H 2.2280360374345665 -0.8202241921170901 0.6880535328598282
H 2.041230062177582 0.6946177573284087 1.5969840729360607
H 3.143651316801791 0.6412593510895563 0.21682835226062136
H 2.554368487178508 -0.34890131020732884 -1.7684502607719743
