12
## STRUCTURE-ID: 645668520e66367fff73b9f1 ; CHARGE = 0; SPIN = 1
O -1.4271587114259503 -0.3639465539205616 -1.1552644039221347
C -0.4404579519209697 -0.9938719555729163 -0.5873569706662887
H -2.6161599789459666 1.431782480113664 1.5307797327327006
H -2.125460809539236 1.9192853721714187 1.8866932296833294
H -0.7811761911685604 -1.7918757927458007 0.06625865611748162
H -1.1697375973058552 0.2701395899863758 -1.8489044324887858
O 0.5973268788851616 -0.081962254531935 0.15399560475464533
C 0.971654779936378 -0.9181280912167569 -0.9718049481739304
H 1.6442131583258794 -1.7383552769522959 -0.7521151679151367
H 1.2595057051374254 -0.31896561844380306 -1.8309769569363221
H 0.916768156760912 -0.39342077126555736 1.0259358722462577
H 3.170682561260777 2.9793188723781676 2.4827597845681777
