12
## STRUCTURE-ID: 6456687d6b0e9f1ca3092920 ; CHARGE = 0; SPIN = 1
O 0.27112186676295436 -0.0561693531051113 -1.1315362116952439
C -2.2661947720759548 0.0687783540750645 0.9826048309813123
H -2.1968367016325034 1.024332380761928 1.4854280929087935
H -2.130521843381299 -0.7295496144916263 1.6999903932600364
H -3.2396144234354556 -0.02464673917795072 0.5192863738809352
H -1.4998665579611186 0.003386862747389759 0.21890874784357775
O 1.545744849282319 -0.02991374141076448 -1.881131179308189
C 1.8767634142024399 -0.25382264250948483 -0.11584483330149906
H 1.5434341632957134 -1.2321578227536105 0.19945772230142156
H 1.5398437579657565 0.5517801308981221 0.5226138939769357
H 2.9481859202462197 -0.22267801342433846 -0.32838052716362687
H 1.6079403267309371 0.9006601983903791 -2.1713973036844627
