18
## STRUCTURE-ID: 6456716bb758cb2c3e3eadd3 ; CHARGE = -1; SPIN = 1
I -3.0688171990611153 3.251857106248194 -1.3431698105362868
C -2.5648911259618257 1.0999445062296915 1.8228787567455957
H -1.8432029568690882 1.3396878306746534 2.5778707759336608
H -2.9268305514486213 0.0917651267470366 1.7915995528583248
H -3.225190062516488 1.884667204945945 1.4913484848743426
O 3.4607706427224154 -0.1348177026941073 0.2590791099914663
C -1.6072459641546748 1.8181160494920927 -0.7995762422845213
H -1.6301758451270842 1.0051149385678784 -1.5130792471408987
H -0.6349438843152916 2.292482109729233 -0.7923675135169309
H -1.8518242392432387 1.4342283645436904 0.22375808798566618
H 3.432393911405439 0.7156062534456356 -0.19235818153556103
Rh 2.161727207560793 -1.5456026777599208 -0.5323029152687614
I 1.5355384647331316 0.08408072506221968 -2.5360150322003543
I 0.08147535891455591 -0.6954279797648214 1.1243705877627503
O 3.7582608158037614 -3.382938367747765 1.2134542477885297
C 3.1149999183926935 -2.7262904624573068 0.5189346187644568
O 0.6133161008397606 -3.674350892847779 -1.9443971477687023
C 1.1946394083249043 -2.8581221324146053 -1.3700281324527932
