12
## STRUCTURE-ID: 64566750f87f5f14832cdf8e ; CHARGE = 0; SPIN = 1
O -4.343298386392331 1.2185514915915596 -1.0296369811189652
C 0.7158003062051385 -0.5905349905017734 1.0822444289399864
H 0.7682865607898474 0.14848979389131 1.8771387676959899
H -0.31077277932538333 -0.6783265799896555 0.7394925313051205
H -3.8513576150163726 1.1150634761777631 -1.8484413865081932
H -4.940900335567286 0.46890834844264745 -0.9654565679597354
O 2.9433702498379573 -0.05137249170272048 0.40550142292124397
C 1.6149003486960343 -0.1722285835485286 -0.07141335892016351
H 1.2719387959820987 0.7887241630828041 -0.48048625405505785
H 1.0468078177741071 -1.5459378468838236 1.4800137935754893
H 1.568925386061621 -0.9263744515438435 -0.8701884744463746
H 3.5162996509545628 0.22503767098425684 -0.3187679214293185
