8
## STRUCTURE-ID: 645664700db08004c9293428 ; CHARGE = 0; SPIN = 1
H -0.36391994005254075 -0.906141286769964 -0.7153303762259511
I -4.180701824724848 0.9558415802096994 -1.0193173817151158
O 0.5156917686941779 -0.4681708218983477 -0.6809372938108805
C 0.8094307133279786 -0.040793708560208336 0.6770426537914804
H 0.8331039810391776 -0.9274384160146101 1.3053714909446454
H 0.06529278096639533 0.6597659313689237 1.0509196302718398
H 1.7931802548766782 0.42113415721441894 0.6707375266432939
H 0.5279222658729776 0.3058025644500845 -1.2884862498993153
