16
## STRUCTURE-ID: 64568d410d15d57751493a70 ; CHARGE = 0; SPIN = 1
H -2.5725370623762456 1.6981926914907577 -1.271644224898809
I -1.113753402180583 1.0561305706391952 -0.7935253520537832
O -0.1235093064461897 -1.9113688380795664 -0.43896917835382643
C -2.3225887983246216 0.16403102988569576 0.7612028624238212
H -3.1041268683020458 -0.40978137580196194 0.2741052205732553
H -2.711580551802249 0.9762272559993487 1.3684159266560947
H -1.6719997650894602 -0.46838999346338034 1.3530534288106315
H -0.40359262096897003 -2.7789114005218094 -0.07988470292489672
H 2.031465066311855 3.704959947155267 0.7878870961976188
Rh 1.4428684017267492 0.39317092426382294 0.012070146703975522
I 2.5000370515475714 2.8207896931007896 -0.45319560605297515
I 0.902182950755608 0.7293522892487341 2.578637456242511
O 1.9419624555913892 -2.5098051578414755 0.19112826319749146
C 1.190126858323198 -1.694658355073352 -0.31931784062247665
O 2.2153740801192225 -1.1203020134523758 -2.488719753250428
C 1.7996715111147776 -0.6496372675496501 -1.4812437426482081
