12
## STRUCTURE-ID: 64566a7debba75558a40f1f3 ; CHARGE = 0; SPIN = 1
O -1.44410246258219 0.49252679638006935 -0.5800701934338797
C -0.6249333897987229 0.09707898828791509 1.615882330005385
H -1.4264892229376585 -0.6080434380740871 1.731579066831103
H -0.7704986251525011 1.1327288497007986 1.8675526915812206
H -1.2948411230470458 1.394381166518406 -0.8715579223012677
H -0.4859587845825865 0.006710235663206215 -0.7394766273734181
O 0.48631862723194125 -0.3629310921955942 1.1306999083267235
C 0.9129453147988621 -0.5451648012587016 -1.124177763533536
H 1.5586096431403509 0.3103100391646077 -1.288021333822782
H 0.4415376041408502 -0.8429996824410063 -2.057443581876437
H 1.4651922433633457 -1.3842672765138857 -0.7251250952468834
H 1.1822201754253359 0.3096702147682083 1.0401585208437127
