12
## STRUCTURE-ID: 64566b3fb71b325e042fdd83 ; CHARGE = 0; SPIN = 1
O -1.9390512516916443 -0.651345422439544 -0.08150534354286808
C -1.407241158799686 0.2153759964063538 0.7388424082226275
H -1.855907049034146 1.2192497919853837 0.7162231818018737
H -0.2804047925609085 0.40198013669944765 0.3208473649855542
H -1.2456853161166825 -0.14568472016720901 1.7646015690741295
H -0.9405399243711207 -0.9686874894392746 -1.0656008998009554
O 1.8884468354359945 -0.48279335740327894 0.39533796947064087
C 1.1544948645560786 0.41693225291427644 -0.31488372053243907
H 1.4169799361120783 0.5248490066382688 -1.363376838049004
H 1.2062313360033017 1.3862686088312584 0.17855883724333185
H -0.0848296508785771 -0.6387621303098295 -1.1683625708355865
H 2.087506171345314 -1.2773826737158593 -0.12068195803729195
