12
## STRUCTURE-ID: 645668b2f530980c182cdf88 ; CHARGE = 0; SPIN = 1
O -1.6643519263573763 -0.11085798931934387 -0.8947552146180684
C -1.970091168860338 0.37158517999239393 0.3929817886175343
H -1.8020086728430786 1.4511876298533601 0.46568791908548446
H -1.3775254696557262 -0.13401274070793012 1.1620164840382214
H -3.0254562207832714 0.16545599201262137 0.5676256522588182
H -0.715414071031757 0.03128524149179741 -1.0504019609736168
O 1.1805398764043844 0.3183546858548717 -0.7871101171869498
C 1.800026747045666 -0.6082999415986176 0.0809776998502342
H 1.1624329837589482 -1.490270308186078 0.10544093330075396
H 1.8908124427689748 -0.2047962207997028 1.0937399628556599
H 2.789008370509031 -0.8969167309624752 -0.28433487004257174
H 1.7320271090445505 1.1072852023691022 -0.8518682771855084
