12
## STRUCTURE-ID: 6456670e4dede909ab111df0 ; CHARGE = 0; SPIN = 1
O -1.3611883095074 -0.3089010755033723 -1.5313464154645557
C -1.209746647180883 -0.10556024355871796 -0.2867540730689315
H -1.1538039067858008 0.8759874958020094 0.15338766726956155
H -0.9827877613039724 -0.9681668834561947 0.31871685358953306
H -3.031273765194301 -0.1662756722729344 0.4413729567524143
H -1.5349321535190985 0.4903080718075584 -2.0673107301961706
O 0.9843338496794751 0.21521520505855132 -0.41540907585335274
C 1.610510522559464 0.10865542817180761 0.8500979561011244
H 1.5148759216174479 -0.897843631178947 1.2624085898285042
H 1.111860968864229 0.8119660728979954 1.513437409650558
H 2.66684759796158 0.3746611877489518 0.7772466260564652
H 1.385303682809264 -0.4300459555167045 -1.015847764665149
