12
## STRUCTURE-ID: 64566960e7ab5b18f828a81e ; CHARGE = 0; SPIN = 1
O 0.2378823216863845 1.242956801706526 -2.3087251957773445
C -1.1667885189210594 -0.8315788398573909 2.1473194311496844
H -0.7781411885942019 -0.7011982963049297 3.1489120896215637
H -1.5014131866838725 -1.8528412658605184 2.020221112361272
H -1.9982366621646348 -0.15588629057307626 1.9933933729020277
H -0.47815461666989284 0.6089830365587071 -2.1420667314879704
O 1.1076291947540964 -0.28669270499343724 -0.5453580667507175
C 1.563231312544712 0.8811342774564084 -1.1339546436571204
H 0.6357061377046734 1.0672072941218547 -3.175828192044082
H 1.2668986950451937 1.680640562668524 -0.4156953437306475
H -0.38546986509371745 -0.6149965584229052 1.4298916783596358
H 1.4968563763923655 -1.0377280164997411 -1.0181095109462466
