18
## STRUCTURE-ID: 64568ced6a7c3f62da399e40 ; CHARGE = -1; SPIN = 1
I -2.113999892759245 -0.8709132759631766 -0.16530286024134333
C -1.0784327474078224 2.8632290832215066 -0.17463059526675814
H -1.8646961557140607 2.04340759508504 -0.08087870328773168
H -0.9065025990623591 3.9559434011148698 0.01949146166363473
H -1.661611274232546 3.1411783529405275 -1.0924679787248153
O 3.180543931766123 -2.424423170638404 0.25411169020058444
C 0.2467368338800668 2.217089465966533 -0.6225281536022529
H -1.1655549814253916 2.8191660181940077 0.9506829473222882
H 0.12768069427242096 1.5763661815731287 -1.4950565126307103
H 1.0424434202968984 2.937073693480392 -0.7961115641788714
H 3.395605997933293 -3.2329698572684005 0.7243083080850028
Rh 0.9739598601694998 -1.9313798209455701 0.17520801288446516
I 1.1899777303789592 -1.1995450591800285 -2.393758291832921
I 1.129173177898291 0.8265610051161185 0.960637967468785
O -0.41651480489221576 -3.4020879898668883 2.4670437909556675
C 0.08828799178620236 -2.8377367335643457 1.5230963384433407
O -1.3859875093559741 -3.72947244794928 -0.3246515303481762
C -0.7811096735321429 -2.751486441316008 0.07080567308979505
