18
## STRUCTURE-ID: 645672ef4b547c0dde1688f3 ; CHARGE = -1; SPIN = 1
I -4.915538498050793 0.10482522232148239 0.1919615192978982
C -1.6624756010545667 1.2337410264241977 1.0467521161497637
H -2.1631319384176813 1.9450671985685173 1.6883051493561136
H -1.9873874734339678 1.3596000872404133 0.022416863523160153
H -1.8628259930821576 0.22555723223741975 1.3854227547835503
O 2.8390556456210536 -2.3912072730149108 -0.7346068305752494
C 1.0703133811571464 2.013137296030514 1.1243740960641666
H 1.1951482429638232 1.9301223783669956 2.1920921411584096
H -0.5574641513264583 1.4188780178683662 1.0952665301861495
H 0.8130809002501531 2.9639984702347055 0.6884614065100537
H 3.0026859798556624 -2.807631089208962 0.11804640156802441
Rh 0.9795116202652214 -1.594288151262995 -0.9270592468819903
I 2.3378017144620293 0.8399976908191286 -0.0038807463944665
I 0.3887222891926591 -2.2965161755059427 1.5235349629770993
O -1.8539535206350972 -0.9408542823346018 -1.6045398268566595
C -0.7676718181104278 -1.099908654178539 -1.2692088791367666
O 1.7283935902285656 -1.4521612036469558 -3.8193661636590797
C 1.4157356301148518 -1.452357790958779 -2.717972248070214
