12
## STRUCTURE-ID: 64566943f6902b5ea7750f01 ; CHARGE = 0; SPIN = 1
O -0.30761107336484694 -0.4421841129687725 -0.19940414319876637
C -1.21611182953768 -0.5856880465153432 0.8777749244450757
H -1.379330865170907 0.3603610398928383 1.4006510247984836
H -0.7819502809772295 -1.3128420948643473 1.5604964494027072
H -2.180676132245853 -0.9515884267764372 0.5210108223092843
H -4.153911691844287 2.675358110502083 -0.945332804134579
O 2.1172092868787775 0.6137373446313106 -0.660192674806581
C 1.5787423943511874 0.34778676161565897 0.38632008919532157
H 1.760773378069422 -0.6031231879581588 0.9070607595623108
H -0.6814197539839578 0.1631402637141309 -0.8544352452493559
H 1.0657973267864043 1.1098579494833691 0.9915881278216137
H 4.17848924103898 -1.3748156007563332 -3.985537330145512
