20
## STRUCTURE-ID: 6456b669f1001a5a8a6cd4a4 ; CHARGE = -1; SPIN = 1
C -2.88205427733344 1.1352491576805135 -0.12547880192125868
O -3.9605809479952425 1.4772968543133769 -0.0009822297569572376
I -0.8618210268720365 3.7816956478222377 -0.4061580958508483
C 1.809635362976628 1.5880656812929224 1.3669562074702475
H 2.8594247240227024 1.759808993246435 1.1294881652681215
H 1.3454516347152972 2.5120469570634496 1.7070677933856657
H 1.7420299716841965 0.8598862020390338 2.176361411078955
O -0.048850409224255646 -3.7527043349579436 0.852766935478448
C 0.19630682397384192 -2.148016497509678 -1.3183670194811634
H 0.561455325940444 -3.1611867208366755 -1.2410472069273017
H 0.9851298530785982 -1.4652926080611668 -1.6134364451089052
H -0.6497725195907935 -2.085440085398339 -1.992982001556114
H -0.23515671806707333 -4.038597088842608 1.748147057484668
Rh -0.9125894044563303 1.0212684768748053 -0.04485093415032904
I -1.3973045887889959 0.9950508432807096 2.58402587592956
I -0.44228968789710177 -1.5863531794292256 0.6184335835595502
O -0.42215829328970234 0.7400718111086828 -2.976856329335787
C -0.620164383256943 0.792522758196314 -1.8512658956161947
O 1.8125266262340158 0.5598139251440218 -0.7582172065000728
C 1.1207819341461556 1.0148132069731255 0.14639513654973896
