13
## STRUCTURE-ID: 64568aac0220a53396333be0 ; CHARGE = -1; SPIN = 1
I -0.7080557147750767 1.990326129046594 1.5251629289940538
O 0.11991890139783637 1.1975002579073608 -1.8491376456412527
C -2.32421634499217 1.4980631733001288 0.1967092317000537
H -2.21197425284007 2.1078717250379286 -0.6939598561670706
H -3.2701059714905374 1.649686370311751 0.7091542930831954
H 0.8340720267177291 1.6312592897269502 -2.325924481741658
Rh 0.5620069948424951 -0.10274813088646827 -0.4399194442563797
I 3.118709855011578 0.5489241164980619 -0.4388951556924379
I -2.1512207492846764 -0.5784732470084597 -0.4209870564499067
O 2.799514970094387 -3.071771303713516 1.4762245628075839
C 2.0675561851323425 -2.377439282691396 0.8977850036160011
O 0.2282064911225021 -2.7822666545331183 0.8594613059094386
C 0.9355876090636271 -1.7109324429958264 0.5043263138383804
