12
## STRUCTURE-ID: 645669626bff6764a062319b ; CHARGE = 0; SPIN = 1
O -0.9365552551074723 0.12352185164610258 -1.2116099873737234
C -1.1052978180774033 0.20895910080931562 0.2130000036237625
H -0.23849983375563213 -0.18996478265591213 0.7424641948653512
H -2.00776235472609 -0.33974128739459 0.4787748537845618
H -1.215791268923284 1.2656300511341534 0.44434484762619775
H -0.756097077514536 -0.8113093572806809 -1.437888111146628
O 1.4511776789397712 -1.060401147041824 1.9431168716597396
C 0.16614729417982435 1.087244406329377 -1.6973104919831614
H 0.029388355327468585 1.0393524014910358 -2.8027873166423753
H 2.2047413160305838 -0.46854726387211754 2.01190589517436
H 1.125415266939926 0.5446849492525792 -1.510768898294038
H 1.283133696686841 -1.3994289224174303 2.826758138705955
