16
## STRUCTURE-ID: 6456b7946fb17422ca41e57a ; CHARGE = 0; SPIN = 1
C -2.1170627975832885 1.6247088736710584 0.5036662555273143
O -3.07488890772674 2.026963909615024 0.9641117301970199
H -2.3161257605170444 1.1820358640085122 -3.1147963048095253
I -0.7928692058853912 0.8545480873815993 -2.794613720722822
O 1.817488938659403 0.1238691619099279 -1.4715587429395094
C -0.30766926410193374 -3.214796807925196 0.8865687665738599
H -0.47561974655173356 -3.435169635972909 1.9221858965639174
H 0.557958608020803 -3.570887225990895 0.3641488581309338
H 2.664378102311506 -0.3357335789970247 -1.644015386251399
Rh -0.37618597865036596 0.8926339391854624 0.09537496848956457
I -0.22321796997128232 0.5347368665388604 2.85288888137453
I -1.3812203846308635 -1.723532157300105 0.05001484137311188
O 2.121956036760799 -0.5098950481147106 0.6352991673084362
C 1.4311858350308841 0.05904259077361315 -0.18245968251322942
O 1.6636442509954044 3.053913526729107 0.684685154264772
C 0.808248243839791 2.4375616344877797 0.24849931743300177
