34
## STRUCTURE-ID: 6456e090b5f5d215a84d3044 ; CHARGE = -2; SPIN = 1
Rh -2.4432563603298156 -0.9973933519266153 -0.3074329754885427
I -2.011739665198169 -2.1081623549612245 -2.6439575741575676
I -3.408793519699522 -3.1430144267939317 0.8309395118723196
O -2.811828451805778 0.20249741785224873 2.4058746327566016
C -2.6851012690909504 -0.2232907225235629 1.3432724449016196
O -1.1609775388164132 1.4596317713768476 -1.4256063870943982
C -1.684690555894367 0.5224857858935393 -1.006574979310129
H -6.780687016594161 -0.23383853862757736 -1.7368983137459215
I -5.19088374273944 -0.6134743747776503 -1.277629639383803
C -5.823901068429967 -2.5635971925903474 -2.0134735697723136
H -6.565703350638499 -2.9366319215259447 -1.3110288600348812
H -6.207077020949559 -2.4066579722007675 -3.018928494083858
H -4.9485781282691566 -3.204666349268875 -2.027276078797179
O -0.18924465832214063 1.0880594754997854 1.4218965106489467
C 3.6664014021224296 4.537973532971013 0.27607809384835186
H 3.3079860706574906 5.26714017322909 0.9930068023600661
H 3.280080720172695 4.711076128623326 -0.7214450806033772
H 4.748751963010487 4.471322206554744 0.2645616883214966
H 0.3840046008135702 1.8739899432681288 1.4876122262024412
Rh 3.5548793810535844 0.5596889103746595 -0.587255574795318
I 5.0390731409663765 2.025012515960985 -2.1402475721534238
I 2.8839905681891937 2.5111208404820617 0.9972625748492809
O 1.0212658868862192 -0.5289950465916171 -0.9085458476694093
C 1.9880504270829815 -0.7367263409597594 -0.13083646208296063
O 3.640255347859252 -1.8365715472002833 -2.326720422731909
C 3.703197797244729 -0.8930386366914964 -1.6498327955123049
O 2.2123025569761112 -2.112773987142027 0.15336597061500057
H 1.5015631503374502 -2.6489481417722867 -0.23227894307733185
Rh 2.4441153055937077 -0.1705931223000017 1.8683828392115003
I 5.058489750103755 -0.5810697608392615 1.930650689589888
O -0.18913180752011405 -1.1154144961690247 1.6512315202881724
C 0.5126817171618792 -0.10270600840001752 1.6242268728668272
O 1.2432522552928753 -0.017139803918315884 4.5843388353352585
C 1.9112521127732716 -0.055294604905853834 3.6332683568269344
