12
## STRUCTURE-ID: 645668f22a8d812ad01dbea0 ; CHARGE = 0; SPIN = 1
O -1.1698533296690206 -1.393874501035778 0.4878920527527333
C -0.8182478094082274 0.49615162203021007 1.0115204845090873
H -0.755667008488159 1.1767376882625913 0.17998853229995426
H -0.09570354197048388 0.6524000802675589 1.7922540808687555
H -1.8216950654400965 0.3565490908027397 1.390051313217971
H -1.7047486268348662 -1.3306940656969972 -0.3123902218870163
O 0.9263868545890677 -0.34670837833264173 0.16859808916203284
C 1.3070240886420343 0.2805753512876938 -0.9884021072486542
H 0.622274201182374 0.08357246966273532 -1.8315809091522748
H 2.3064078760650815 -0.0710468242055632 -1.286185705926165
H 1.3772813577198064 1.3728229486758352 -0.8514864001947547
H -0.17345899638750747 -1.2764854817183866 0.23974079159832096
