13
## STRUCTURE-ID: 64568cfbd5d6a86d1a64e474 ; CHARGE = -1; SPIN = 1
I -0.5225363768378383 -1.829808592349256 -2.0287218552329285
C -1.5918405413590044 0.9020269823323831 -0.243527968082668
H -1.5980428741019936 1.812952843093179 0.3599841832786785
H -1.778188502380319 1.185661710604294 -1.2815914879776165
H -2.4190189426891373 0.2679864814697533 0.08468217506049498
O 2.2085206236888584 -1.2466101592214713 0.11836358507489518
H 2.533482390939424 -1.5441385370581182 -0.7378856743844308
Rh 0.27820352583344865 -0.13279983830692116 -0.13733668064036117
I 1.4191221597414845 1.5997350730644773 -1.8123758579893845
O 1.4443151735703634 1.723102618236313 1.8761542420347292
C 0.9404454723839675 1.0294289681884599 1.1244614966913011
O -0.58026151410175 -2.327730259341682 1.6745594423840455
C -0.33420059468751256 -1.4398072907114277 1.0032343997832434
