18
## STRUCTURE-ID: 64566effce7fba22656b0e0d ; CHARGE = -1; SPIN = 1
I -1.0122342964765354 -3.0919487640471104 -0.28972622694037165
C -2.1249772860490097 0.23859660172197134 0.1922239375535749
H -2.5769714469847753 1.2227113509819598 0.3423707544234503
H -1.8607391745851434 0.1075257340279974 -0.8585820116309819
H -2.828091150911403 -0.5417485085665055 0.4868136258016676
O 3.100798543127001 1.8615396665260708 -1.622827368317543
C 1.253421111852113 -0.10299567053850193 -1.886234433308309
H 1.612168509930612 0.3959463749427154 -2.774068950538251
H 0.2599435223814475 -0.512245735888628 -2.027997450121686
H 1.9572558745826503 -0.8720991554761401 -1.591067057040688
H 3.5063108096281312 2.671122230967475 -1.3153407589305546
Rh -0.39310997972690903 0.19820465603398982 1.3811203172310782
I -0.3882888495569237 2.6142175840007145 2.4496624764621133
I 1.1805788936622779 1.3519340945934077 -0.33998227435799133
O 1.3451011387872307 -1.8717538869505628 0.9822196161319512
C 0.23028822594870554 -1.5240048572821863 0.7482837066939344
O -1.937030172864223 -1.4374192587854338 3.3774743699253253
C -1.324424272745229 -0.7075824562612208 2.7456577269633167
