12
## STRUCTURE-ID: 6456b68b16ad057048293417 ; CHARGE = -1; SPIN = 1
C -0.31135351216794116 -0.0059717395216278574 -2.5754455121833955
O -0.49478600890102264 -0.015562202682471464 -3.7123092641355786
I 1.7589477896777859 -1.9695441617882425 -0.9422492460348778
O 0.4655902534610364 0.03890026935234309 2.0695054957046812
H 0.9506914262908238 0.2199388270518662 2.8991502229942774
Rh 0.23728174694977738 0.17076110440725134 -0.7925230509066482
I -3.5894079262739638 -2.81076438575502 1.280408864919252
I -1.069080661072126 -2.068894398503809 0.21010574382342856
O 2.157876859010806 1.1350801980732186 1.1357152857876813
C 1.0971924065332583 0.5348051016207929 0.9719388317765023
O -0.773772526175004 2.910618605018968 -0.10893894222684233
C -0.4291798473334981 1.860632782726863 -0.43535842951849213
