12
## STRUCTURE-ID: 64566a1cf63baa29366aac6b ; CHARGE = 0; SPIN = 1
O -3.06955931252965 0.42537037845050807 -0.14368406739443354
C -2.720305194108669 1.3477757033572573 0.8652709920796435
H -2.1736433030267275 2.2022429725466237 0.454306936304026
H -2.1162464436519848 0.8765981945021432 1.646338707976523
H -3.652935851794319 1.7012202536592735 1.3019011429980767
H -2.260029300536258 0.08959753318032078 -0.5470267282167508
O 1.839725019531888 -0.961122331108789 0.09035925742349386
C 2.925982228768391 -0.9663525236575373 -0.809969220511919
H 3.7922611210365704 -1.4859105813608386 -0.3901295185232051
H 3.190197360146648 0.07486464943423264 -0.9867502001709425
H 2.653059231944524 -1.4306765066884741 -1.7627983337575832
H 1.5914944442195968 -1.8736077423147175 0.2821810317930488
