12
## STRUCTURE-ID: 645669af9645be16eb351d76 ; CHARGE = 0; SPIN = 1
O -0.6654238208920467 0.1051317237374046 -1.4537793154023766
C -1.2305459272285053 -0.1829512129704892 0.554463613117853
H -1.4838882006467138 0.8624827783131315 0.6010510937579407
H -1.038950319402979 -0.5988341427231052 1.542258115196368
H -1.9291661298958966 -0.7952509243696665 0.010209803528695076
H -1.137760286158887 0.914918830825281 -1.6486334335663606
O 1.5406963179743371 0.7542213095603733 -0.6032479954682084
C 1.412837283786873 -0.20355011433070275 0.35692887053061306
H 1.7864819977625621 -1.1905631994487171 0.05786224778160534
H 0.2428483464728159 -0.350315823211651 0.45633501660585807
H 1.8237467947831365 0.11904012067037778 1.314831907926624
H 0.6791239434453132 0.5656706539477672 -1.1882799240086201
