8
## STRUCTURE-ID: 6456642ab6791666646aac68 ; CHARGE = 0; SPIN = 1
H -0.2470314215747461 0.3609754752216153 1.6857676489955975
I -0.8561905253052302 1.2004663022696969 2.8900063014194117
O 0.30700506371124037 -0.6203555658536947 0.25268710515311527
C 0.21590556096353847 0.011562684491933962 -1.0112221458434898
H 0.7874392103664819 -0.5347954062346234 -1.7639005063574247
H 0.6405193314736415 1.0073242986520656 -0.8976681513839743
H -0.8245522298052366 0.09997214803988169 -1.3346905105461526
H -0.023094989829687735 -1.52514993658686 0.1790202585629127
