12
## STRUCTURE-ID: 645666b008f32d0a794d91eb ; CHARGE = 0; SPIN = 1
O -0.5196601943533022 0.29193244668760887 -1.116413270853493
C -0.5195801724049505 -1.2891969528075147 1.4668926281844865
H -1.3847858708905099 -1.4829578426656542 0.8324188003277975
H -0.8405162548290461 -1.1585745477496674 2.496084459973532
H 0.18465305896004627 -2.1203070410510008 1.404063203122823
H 1.1574500518489241 4.494777480155364 -2.4728065860403645
O 0.12338995507518534 -0.06407859321745346 1.099374466062177
C 0.624029579760203 -0.016636080052863933 -0.14144879627927368
H -0.19020340844061664 0.4176490202771527 -2.0351203260891126
H 1.0208547128043308 -0.9681841089464714 -0.5147920180144581
H 1.3466765089083164 0.7999284906792039 -0.2086943008281797
H -1.0023079664385846 1.095647728691289 -0.8095582595659273
