12
## STRUCTURE-ID: 645667962cd6e26ddf6f2cab ; CHARGE = 0; SPIN = 1
O -2.042786791639788 0.7179349607502264 -1.6760066564544072
C -0.17683236650663303 -0.35451318038778223 1.3728780775518483
H -1.1021580319606106 0.10059327529733175 1.7180882096837595
H 0.6145064171207598 -0.18597907203413375 2.1110509367266213
H -0.3223841819218073 -1.4327483844305822 1.2449849998937943
H -2.0895798042613296 1.6765256388842331 -1.7062155297898112
O 0.14481723257719997 0.26026541982538054 0.14379168155290173
C 1.3417544608659562 -0.2328759680175321 -0.41870518531170314
H 1.4935957789004197 0.3037114369611178 -1.3522587077374209
H 1.2666138268262244 -1.3071070327528487 -0.6198663655500162
H 2.1892628609514855 -0.05350583025280497 0.2514211492555275
H -1.316809400951911 0.5076987361573948 -1.0691626098210711
