12
## STRUCTURE-ID: 6456673949f8ee16ba56edeb ; CHARGE = 0; SPIN = 1
O -0.22237420784922046 -0.0454269488048861 -0.23593074996218047
C -1.1463931558984313 0.4942424297501157 0.6845421716036902
H -1.9113059695411534 1.0836949859239509 0.16777957164228952
H -0.641256841767799 1.130593830721365 1.4193769934174687
H -1.6130183678187138 -0.34775848121280634 1.1903470868827242
H 0.8368351124979103 -1.5138319058002978 0.4055310862134807
O 1.326319470815219 -2.303960017480759 0.6799977863564711
C 0.46245998170537245 0.9467190045327508 -0.9699861526947862
H -0.23980170568932715 1.5592418439712044 -1.5454230510507525
H 1.1349155110644713 0.4267581122101635 -1.6481704875851413
H 1.0412166205970832 1.5967531792215333 -0.3046789145775903
H 0.9724035518845886 -3.027026033032339 0.15661465975432726
