12
## STRUCTURE-ID: 645665218c9b261ca51aaa13 ; CHARGE = 0; SPIN = 1
O -1.3200976104975515 -0.6043859278517191 -0.8580992183191832
C -1.1031407436603236 -0.21882059977353294 0.3662174196220201
H 0.5836818079472356 0.42043799220175687 -0.28559152418048883
H -1.440035626007135 -0.9415230688148114 1.1205796248216715
H -1.4565014276805885 0.7968135125937106 0.6161738760701577
H -0.4242060294903514 0.20196317687519658 -1.5533331500494094
O 0.49429938837161636 0.7758650151146824 -1.6318234239376765
C 0.660936060841961 -0.12067641348147816 0.86862444740634
H 1.556656195269565 0.5359774600259821 0.832855137759581
H 0.9987945711577589 -1.1501074757249052 0.7762915880671363
H 0.3442694304362263 0.06591059452003066 1.8925805083373661
H 1.1053439833115923 0.23854573431508974 -2.14447528559752
