12
## STRUCTURE-ID: 64566ac2aefdda385a1f8bd3 ; CHARGE = 0; SPIN = 1
O -2.065059422219077 0.17940254741673187 -0.4519518771548934
C -0.6726359640687379 -0.14983640747274063 0.3672654724071786
H -2.834586019877269 0.19011656465976043 0.1550474217969329
H -0.7371103672600068 0.4766662443800513 1.2501932616472133
H -0.8184953692700779 -1.2006767411816606 0.5879531368836263
H -1.9632268992548139 1.043763858903756 -0.9022636085337518
O 2.6800398822653593 -0.5254601184337833 1.0057305242243202
C 0.4813678918837626 0.12681235697365628 -0.46742266602928506
H 0.5340572865250436 -0.4873567693278379 -1.3591462634989184
H 1.423975279425714 -0.16651829202602333 0.18516834993830905
H 0.6169416969703388 1.176390853461602 -0.7057283471584473
H 3.3547320048797693 -0.6633040973535177 0.33515459547771853
