13
## STRUCTURE-ID: 64568c57bcd10266aa2648b3 ; CHARGE = -1; SPIN = 1
I 0.7250645679203299 -2.4897118314677433 -0.8957438587305783
C -1.4444804283501842 0.41809339488013525 -1.1674298066591877
H -1.7820139780885556 1.3952595616257883 -1.5125978952207884
H -0.8488810635448799 -0.061894099587235775 -1.9403086614017895
H -2.3240387044850808 -0.19352991036791514 -0.9574738535683377
O 1.9116201107778825 -0.5658188497707692 2.4173321805891224
Rh 1.2756574118335426 0.1940587373430735 0.4871299189021049
I 1.7520347962934537 1.8096197924241253 -1.49734515005697
I 3.5889907850736105 0.08924613589886093 1.7486027154679995
O -1.0876031325792674 1.3473247130412955 1.0103986360859618
C -0.7060420724596992 0.6083712804411561 0.12325229461756892
O -0.9149097361874733 -1.5176626665446533 1.4691519643613946
C -0.14539855620369607 -1.033356257916141 0.7150315156134989
