13
## STRUCTURE-ID: 64568beb210869604473b9da ; CHARGE = -1; SPIN = 1
I -1.4379620610447907 0.03638155898758774 1.2733776129438292
C -2.8718188825023967 0.08505141257285405 -0.3838758914384279
H -2.851324026990249 1.078175119259895 -0.8182772700903022
H -3.8487788540833376 -0.14588443647893287 0.022530550860984714
H -2.566293325585326 -0.6547132502628875 -1.1141384028003418
O 0.40233008573928075 -0.03192889464926868 3.47662101953505
Rh 1.0670785460425256 0.45694693082452065 0.1423926745090955
I 0.21545287607871588 1.836443411999085 -1.874742236118678
I 2.025243559977488 0.3767175167530466 2.595441528763178
O 3.8827680283033104 0.2890382919283104 -0.9491547940142997
C 2.753542517472992 -0.045078811342500955 -0.6871849303017546
O 1.383275700775986 -2.180278440226061 -0.9588388362873542
C 1.8464858358157998 -1.1008704093656418 -0.7241510255610012
