13
## STRUCTURE-ID: 645689eaab3fbb3a15390814 ; CHARGE = -1; SPIN = 3
I -2.0855859589358263 0.4561091669464168 0.8540218688560708
O 0.0445707817474673 -2.2409195905066217 1.7425230758483794
C 0.20930723952366795 3.5479657837283254 0.189327813923569
H 0.5951467999087245 4.542527073496322 0.09219860488828162
H -0.6272443178612173 3.308163084424093 0.8177513045186546
H 0.6938393626524333 -1.9817095286642328 2.426512260603295
Rh -0.28993306205131064 -0.2653783366959456 -0.9174748079041494
I 0.5853424572838242 -1.0149404805887647 -3.3131391256562837
I 0.6686019986600782 2.223425627023235 -1.333659295139636
O 1.5814650775396744 -1.4527651755092919 0.3043824364670935
C 0.4582508752026321 -1.9314915674873532 0.5151478472900851
O -1.2559581159108542 -3.069100914928885 -0.8374385202503271
C -0.5778031377592949 -2.121885141237306 -0.5401534634450268
