18
## STRUCTURE-ID: 64566ec66b24b64506750f01 ; CHARGE = -1; SPIN = 1
I -2.579731434884664 1.3088428133957297 -0.3017110040283397
C -0.2617124852287956 -2.4638467841038896 -1.4373035229877482
H -0.2823448480897604 -1.3982291672193778 -1.2156977619965814
H -0.8377256525977115 -2.6282590180452914 -2.344751054934295
H -0.754882294504602 -2.9800046307929944 -0.6166921081545715
O 1.2119311709816232 1.253337267132032 0.41596031014005275
C 1.1675648705021529 -2.9576808910728056 -1.600612099980168
H 1.176611451845417 -4.023573661850146 -1.8140491696001597
H 1.7322382767916178 -2.786076495748738 -0.6870243869842352
H 1.66127270841809 -2.436992658401338 -2.4181091931166714
H 2.0051772671248704 1.3936231421374177 -0.14726918478829987
Rh -1.0425758620075416 1.8498819068699701 1.7856643054445893
I 0.34699931190007116 2.6449531480322257 3.8974786782626696
I -0.8104258412633493 -0.6761466938776228 2.434938743307978
O 0.6602120285451053 3.405854230153516 0.1058935679058928
C 0.46818235626229326 2.32072170182397 0.5853860207098291
O -2.1746262350396712 4.603921773835164 1.6792527532261603
C -1.686164788755079 3.569674017732198 1.6786451075739086
