12
## STRUCTURE-ID: 645667a6005fbf10d2304578 ; CHARGE = 0; SPIN = 1
O -1.1175561909120508 -0.8545179617166553 -0.6052907929774318
C -1.8489451356682411 0.26476220866154526 -0.14551318243613987
H -2.8893375580488447 0.0016461285079829 0.059405186667760235
H -1.8164460771891446 1.084427217499724 -0.8685911732544257
H -1.3783016404841548 0.5882291577332037 0.7809992887206348
H -1.5358941920002231 -1.1936029813539486 -1.4059958168348927
O 1.7197866202335303 -0.4418049315702516 -0.617249405146357
C 1.962218603671199 0.1784493432020426 0.6231619195427112
H 3.029343974261651 0.3929581542656527 0.6697948145256162
H 1.6950872792770773 -0.47715714514374913 1.458144367960701
H 1.4082003033490829 1.1189330042423649 0.7155188141136541
H 0.7718440135101234 -0.6623221943279146 -0.6643840208818359
