18
## STRUCTURE-ID: 64566f30c3e79a165a5c0b0f ; CHARGE = -1; SPIN = 1
I -1.6208302889895456 0.7308504574483081 1.02395842393373
C -1.8602727053113213 1.5083570390707863 -0.8639057636194898
H -3.3945029042973762 1.7843174977009693 -0.9083369468663534
H -4.270375211051929 1.4863538873777913 1.2358532491334355
H -3.9633487295206917 -0.49492079907469805 -0.27279829402921757
O 2.8894343530896265 1.0972048233979996 -1.0335363871805083
C 2.214791425436913 1.2140292705285618 1.4073130312070432
H 2.6293442507253 2.226544806952835 1.2723253766426499
H 3.008292295582925 0.4665637221351081 1.2400797707683204
H 1.6206675593521758 1.0898124481267528 2.3096464838770427
H 3.008871097899105 1.1340382954577708 -2.0065260185693288
Rh -0.2597682596414814 -1.455716910954502 -0.4251640270246012
I -1.708155849793572 -0.05488184885629586 -2.2355769509204784
I 0.8396070025839367 0.9661741615747089 -0.3075536461898639
O 1.9208990840273625 -2.391852548506566 1.36975194254032
C 1.0639928289056755 -2.1213524990888315 0.6971086459113536
O -1.302633849016985 -4.056615916417348 -1.46890751935212
C -0.816012099980105 -3.1289058868733615 -1.033731370261949
