33
## STRUCTURE-ID: 6456c05b12567a3fa85a8514 ; CHARGE = -3; SPIN = 1
Rh -2.9556013191322683 0.7572330126941081 -0.8480549431865377
I -1.0418367930788388 2.335636706797222 0.24298949141682258
I -4.407018089209489 0.9650908358352916 1.3159866731029217
O -3.2148271782025732 2.3554385468969388 -3.105621066221562
C -3.801982471497493 2.1414742866394443 -2.0963526825416845
O -0.8037378527200494 -0.25456248727573016 -2.6251169964398677
C -1.6806094732486099 0.25131396484393054 -2.07625898034849
I -4.4699182259148325 -1.1216475479696524 -1.864172895417101
C -5.073721261053186 2.767675362004954 -1.6407824120538979
H -5.423740729424256 3.4072332078023706 -2.4514209340173228
H -5.830072274133607 2.0193578670666628 -1.3954578323754672
H -4.894933650903899 3.36823912158505 -0.7464178845403177
O 1.651282664874266 -4.065545806834952 1.4939925149535211
C -0.3968013473184229 -1.5968116968213493 0.3008464040566501
H -0.5241930170890523 -2.667640760425837 0.18629741340331035
H -1.290526972532577 -1.0779878579065203 -0.06562127920106915
H -0.2591877113270356 -1.3529742169476917 1.3535636598126297
H 2.0543405845953315 -4.536501089967783 0.7444795290832418
Rh 1.6955986213887284 1.6011330499381682 -0.14681656641745333
I 1.6508009955004332 2.4389326537330938 -2.679305618185642
I 1.37780225240904 -0.9749160423331874 -0.6916057202244432
O 0.8940410160213283 0.5705971726965722 2.3806392561504377
C 1.8506328157972933 0.7656278318475152 1.6206960968144488
O 3.5223300624542286 3.472643939517048 1.2902911794684413
C 2.850361094273471 2.8244095272281964 0.590508524786856
O 3.0765648054243036 0.27047095757597156 2.0127187420992185
H 2.9731780163421795 -0.22251194722802708 2.8520582689688814
Rh 3.4250984064739334 -2.0351493735776693 0.3975551951575788
I 4.361933949232985 -0.8586665469982842 -1.7900187032734844
O 1.913466876806973 -2.290727102468731 2.7846596039377722
C 2.2714541697955988 -2.84813999710703 1.7502139073309995
O 5.666183151495945 -3.4738097827550902 1.7499090241330528
C 4.833638883900171 -2.934915788084926 1.1556190297675635
