15
## STRUCTURE-ID: 6456b7c3c8a9cb5b482abdd8 ; CHARGE = 0; SPIN = 1
C -3.027567965955921 -0.6009802258982707 -0.2116482368215822
O -4.02815252263392 -0.09816057268643973 -0.4034013657892096
I 1.3213178168060922 1.4383759481155318 -2.4225488584999315
C 0.7042554173927406 1.1621978376413362 1.4633028336948741
H 1.0708354544886447 0.2900854012248968 2.006591746170656
H 0.20941712892008985 1.8440670095882132 2.157590947379168
H 1.5589434999175553 1.6731315518533718 1.0124103314133979
H 3.796942488651789 -0.12591827522908886 -0.5875965111833337
Rh 0.3082827155869524 -0.5206502535621922 -1.021951492006946
I 2.8229611668821937 -1.2943393414028286 -0.11909591752517813
I -1.6678879244471116 -0.9079616392128876 -2.7970855728522355
O -1.391976368014862 1.1758365792062575 0.2645620491059974
C -0.28522016867187466 0.7876889073664045 0.42660409327721827
O -0.9237870544581126 -2.8726734824447977 0.3593245685658718
C -0.46836368446426774 -1.9506994445594992 -0.12705861492875292
