19
## STRUCTURE-ID: 64568eec4729501cb16cdb40 ; CHARGE = 0; SPIN = 1
H -2.747257909468249 -2.9820302038769615 0.7322346638194647
I -2.344107436075117 -1.8454804804840022 1.7704001483956457
C -2.263947328767954 1.1790143803762814 -0.05553756615545656
H -2.5000719356892787 1.6759704354678977 0.8917312658845781
H -3.1418452992534287 0.6197072609396205 -0.3840412320031958
H -2.03604574503827 1.940442674046776 -0.8033727382897035
O 1.8797807583296076 1.2651701499687682 -0.2299091385293637
C 2.551631845819688 -1.9517752047270656 -1.1266207478162547
H 2.811600717595419 -0.9402795727980909 -1.4161824531263145
H 1.848645425223102 -2.3945024452077637 -1.8243258520316452
H 3.4306301873675937 -2.571757400991419 -0.9975455639731894
H 2.289361782533038 2.1402194859364836 -0.36025297470682854
Rh -0.6597074415875721 -0.12311205922029238 0.2880159313694143
I 1.5659397412927465 -1.8304613020020843 0.7954586746028937
I -1.196589420532772 -1.2698610062866456 -2.0186174928653093
O -0.1692643011712727 1.6015632481544806 2.649848276341751
C -0.014478986997852565 1.5810718579526593 1.4589938129233895
O 0.1066802869954004 2.5831737419756635 0.5452923640830791
C 0.58904505942517 1.322926440775708 0.08443062207703342
