19
## STRUCTURE-ID: 64567affc2e5ff7da2242a41 ; CHARGE = 0; SPIN = 1
H -5.3222888835624635 -0.9692357229436085 0.2898480503234239
I -4.686538195214912 0.43323580171686893 -0.0377137548190953
C -1.668408079414368 -0.8615460558177819 -0.7035657148302512
H -1.4583770091721744 0.15761369043064327 -0.3878673745453945
H -2.050683138988468 -1.4935624619181882 0.08640823330095437
H -2.1777205406174818 -0.9448915597977363 -1.6531767092263396
O 0.036161622096283784 1.6260550914250562 -0.012849581643509973
C 0.4295198105366273 -1.9514243757995258 -1.2811482495612279
H -0.5398000235368373 -1.274010611325063 -0.9008049474659043
H 0.4981756367533726 -2.747723568365297 -0.5413094731087339
H 0.1854788911000951 -2.2668227122840268 -2.29277548807928
H -0.004668511631706589 2.445586404787944 -0.5089731067385765
Rh 1.6838514709237926 1.218280417586362 1.1146356817955003
I 2.1498813665549283 -0.7337746347650878 -1.26490055448645
I 0.344218308972138 -0.6754357929010877 2.3223450015189884
O 3.9967145236235893 0.6977850188356219 2.9350820201767904
C 3.1103815778710016 0.8632192421005112 2.2151584397515367
O 2.97980492918954 3.73175374873613 0.1391119339493815
C 2.4942962445170536 2.7448980802982903 0.4824955936881745
