23
## STRUCTURE-ID: 6456b9241f845e397c56ede0 ; CHARGE = -1; SPIN = 1
C -2.1025461945242023 -0.5191175004102037 -1.001396519222136
O -2.376656614062909 -1.6289070501109528 -0.9728814676669973
H 0.5972184918207738 0.8874539716167458 2.130850188880607
I -0.6502671965921264 0.4752746360656359 1.2197170647346105
O 1.8118639674749892 -1.3271248589588314 1.7539493051761526
C -1.749370327137579 1.248460070092403 3.1011209534798043
H -1.4643135376377299 0.6067360638697934 3.922914738278155
H -2.8096026808920915 1.1853637954628302 2.9026353854861817
H -1.4384021539331522 2.2718570432740446 3.2561386480358734
H 2.567086777104367 -1.0214527677919942 2.281805161974906
O 2.0338973705663506 -2.872802244115284 -1.475039396679369
C -1.2932072234978695 2.1559563706630094 -2.630617418077184
H -0.4453241419148708 2.826903464711753 -2.5455680032613515
H -1.754882788255962 1.9848747265787379 -1.6631805021357184
H -2.007384201619388 2.506748613993415 -3.3647119654194597
H 1.3577186827411212 -3.3265356565637343 -2.006236698746307
Rh 0.8519424753341251 -0.31371738929511583 -0.8008012245656031
I 2.0826356928282284 1.9983939532091843 -0.7696700812012593
I -0.5544315201218207 0.2362966837837128 -3.314408544283319
O 0.16441275498745084 -2.3735317847196384 -0.2625967550084931
C 1.4052038986330713 -2.2418090059517835 -0.42408046071049127
O 3.5037359201853753 -1.3092401095266084 0.2280462213305407
C 2.270672548513871 -1.4500810258770842 0.4340113696008665
