12
## STRUCTURE-ID: 64566800d07e192d7a304570 ; CHARGE = 0; SPIN = 1
O -1.776963948081177 0.4257413724636763 -0.8468461452218627
C -1.228488469288559 0.21027478444354528 0.2557203379899431
H -3.091662202171969 -0.10983414612822874 1.6890235619599174
H -1.021863621155194 0.9810898169293345 0.9899656345622346
H -0.957283853111545 -0.8179114387395767 0.4743547580868735
H -2.057150122201619 1.3478351649024034 -1.0528017745023113
O 1.7995767364527613 -1.2938570395576925 0.22700506181801755
C 1.5970925279915797 -0.14720666845738928 -0.545064055828537
H 1.3787430352606769 -0.47738496676638104 -1.5596777393344181
H 2.46561101947537 0.5155907960978453 -0.5494345890233188
H 0.7191108413383169 0.42005393140083574 -0.16653978776842449
H 2.173278055491361 -1.0543916065883783 1.0842947372619114
