12
## STRUCTURE-ID: 64566bbcbb3f95071b6cd4be ; CHARGE = 0; SPIN = 1
O -1.1618939634507577 1.2444595090980628 0.5076667029459929
C -1.7342157170455192 0.07425872555672983 1.0518218047712433
H -1.0029152687009735 -0.4913920738256904 1.6372950329391658
H -2.059210293438376 -0.5354554133159931 0.21048380557363236
H -2.6003737251602215 0.3056546610191754 1.6781613699923432
H 2.6603772592494637 0.28981900616643813 -0.13119808615726267
O 2.3205649951037497 -0.5993046241366246 -0.28630054379897835
C 1.318223998480197 -0.527686740444736 -1.2799043523296032
H 0.49397396814282896 0.12156077293140963 -0.9722114810833326
H 0.943802056828377 -1.5408042082984141 -1.416697808996965
H 1.7255072921774635 -0.16918128884669714 -2.230452152194227
H -0.9038406021862431 1.8280716740963454 1.2313357083379926
