13
## STRUCTURE-ID: 64568c9dcecb3528cd6aac66 ; CHARGE = -1; SPIN = 1
I -1.9792706215715226 0.8148364948585257 1.6139433281540692
C -1.5068922631326782 -0.9037724330334941 -1.353931290462885
H -1.9342235652620972 -0.08635944803873472 -1.9622401422450488
H -2.318652821187764 -1.3609924530476711 -0.7872687046274515
H -1.0701514565868857 -1.6367700180168352 -2.032912535931843
O 1.7431882192407961 0.41538471601816807 1.6593378384139734
Rh -0.18861806935186456 0.48004175456089226 -0.34420794524258314
I 1.7654621720206038 -0.03717608927329849 -2.0944687099802968
I 0.3176081862613098 3.036860267030955 -0.4212519362973989
O 3.0321446741319016 1.8136450919577847 2.9315049422935635
C 2.3888272286412238 1.1194174158707046 2.2960115423086638
O -0.05961609021753922 -2.367932430046143 0.4370154833060048
C -0.18980559298548763 -1.2871828688408484 0.05846813031123507
