12
## STRUCTURE-ID: 6456687b34c7e703e64609e0 ; CHARGE = 0; SPIN = 1
O -0.9172732370802752 -0.5403127308046077 -0.13824475167928263
C -1.4429787663972702 0.18068477993843884 0.9658196707404784
H -1.2458266382423413 1.2377219536898296 0.796539292947455
H -0.9941499042985124 -0.1346440510530318 1.9075383299303397
H -2.5208887350194518 0.0033493889486987108 0.9848338666796315
H -1.024533131210131 -1.505154841929296 0.0006474237444733428
O 0.8193340117161865 -0.5257400551362499 -0.10552081670613307
C 1.1623174939935272 0.43255036121332857 -1.0497992744102853
H 2.034499645257588 0.09055427610187891 -1.6083721724793452
H 1.3634775261994214 1.4050728190484587 -0.5916549719404985
H 0.34501760289497785 0.5030044522061529 -1.7755674346858368
H 2.4210041321862863 -1.1470863522236006 0.613780837859002
