17
## STRUCTURE-ID: 64568d01b7f68970144dd52a ; CHARGE = 0; SPIN = 1
C -1.2060085733672756 -0.723598875782684 2.5707592361560487
H -1.97373452755066 -0.017427135815812164 2.886580640650304
H -1.5749912662260392 -1.7418430270774181 2.6893442364453075
H -0.3158512990961851 -0.6231427177078637 3.1881090767670215
O 1.4106640228819127 2.767460453910162 -0.6563740384276477
C -0.16261678516389916 1.5066505975772235 -2.534831985380305
H -0.0574361617273023 2.584109721347735 -2.562271465283088
H -1.0961512184506956 1.2093067187666835 -2.066880137172812
H -0.03636379060899614 1.056011167971407 -3.5129897932450507
H 2.0280945730128894 2.917627817144261 0.06152701876539508
Rh 0.4814824584359901 -1.245825766532225 -0.04483550298033766
I 1.1374136856928738 -1.7928930573599422 -2.6336524194029836
I 1.427917331609396 0.8588531434251028 -1.2715475063637374
O -1.4736997202231195 0.2115116851742139 0.36331333545281286
C -0.8655219096088008 -0.5083380359140857 1.1367585773180608
O 1.345280361272454 -3.7051000184312617 1.4425609414657552
C 0.9315228191174776 -2.753362670695503 0.944429785235248
