18
## STRUCTURE-ID: 64566f9a085e43269330457b ; CHARGE = -1; SPIN = 1
I -2.8445185390424728 -1.9952888237048023 1.8640273133938778
C -1.5298242395959374 -0.6737052892088802 0.6901579870826866
H -1.6109951682389696 0.2987304504716083 1.183928475001255
H -2.0142934720903907 -0.5946210410826772 -0.28676196538325616
H -0.857905664982422 1.9410848391142215 -0.8570957813573182
O 3.118246948328853 1.0143449262833533 -1.8243821482260525
C -0.9480833511572603 2.985561379669523 -1.1314700521023933
H -1.993194861545395 3.2631198717146623 -1.1646812099184947
H -0.4975553397886745 3.1327009919810482 -2.1035996375181027
H -0.42976068978625376 3.589620886083087 -0.3983340008429872
H 3.1630387891465888 0.7586517676418553 -2.750397617336331
Rh 0.06742891573713039 -1.9532312196134194 0.9478508736440134
I -0.5552915121463676 -3.246988903277129 -1.258213433874643
I 1.782578256066415 -0.30873129193560456 -0.8436942464292807
O 0.8639821131591257 -0.16392788740127104 3.208722775455127
C 0.5540722145488084 -0.8731086633587971 2.3609996366646278
O 2.3041545780057406 -3.9570364076927893 1.1955392590451437
C 1.4279210233814992 -3.21717558568397 1.1674037727021247
