19
## STRUCTURE-ID: 64568edb2acfbe3d9e62318d ; CHARGE = 0; SPIN = 1
H -1.8073309077698447 -3.0690841844601997 -0.04023631836994831
I -1.4517173219308244 -2.4038820531775076 1.3515819411868983
C -1.8435451715657 1.5503233213793781 -0.029829086989138037
H -2.102731239511769 2.285752208644019 0.730431097044905
H -2.4906631673116966 0.6698276080441106 0.12911415608593976
H -2.09613233424622 1.9381170975146416 -1.0154767247323153
O 0.2452535687749167 2.409991721025421 -1.4890935777280943
C 2.2038116327514174 -2.900362235491536 -0.42532833638275264
H 1.6977097779667987 -2.799237328352198 -1.38068235646971
H 1.6368966695150928 -3.5088031002916322 0.2713783621132392
H 3.2114323653614623 -3.2799591967856165 -0.5513462884290964
H 0.6837901855916675 3.2633434419732428 -1.6680322614826448
Rh -0.11080229396186722 0.2642113931947059 0.26303278333276736
I 2.3843958808150445 -0.90663380312206 0.4403314560856138
I -0.4301255396747186 -0.650787119142968 -2.1917330791410494
O -0.005775757033530296 1.0997673784090223 3.1235769282955714
C -0.02727983730491312 0.7759275829800639 2.028466655415859
O 0.3004740442873501 3.0405803882743903 0.6497486358455171
C 0.0023394452474272505 2.2209068793847635 -0.19590398568157155
