17
## STRUCTURE-ID: 64568a62b58929273a750ee4 ; CHARGE = 0; SPIN = 1
C -2.55213394567519 0.5197334541376445 -0.9666241338693478
H -3.0118473071759064 1.416557925486189 -0.5525463650797336
H -2.670500310199176 0.517365400330155 -2.0575054032774336
H -3.069729225235124 -0.34488172825075414 -0.5516815130569924
O 0.3963383570425087 -0.33084487669592494 1.7804385574555393
C 3.0886973281327452 -1.4399132321789856 -0.12396511310160015
H 3.4302046629537752 -1.964436369731385 -1.0088593635992495
H 2.2518765055095353 -1.9533066128845877 0.3352719751438777
H 3.8943960118287824 -1.2749040876124507 0.5811333870869115
H 0.39879284196430753 -0.4873508390923591 2.749374145973632
Rh -0.5000334763525847 0.4064178359739211 -0.6371090342078277
I -0.5399676693916908 -2.111358544839717 -1.1969286686371103
I 2.3812059090439157 0.5129957694055648 -0.7565422356039879
O -1.6128416733966102 0.6470566216697698 1.9848811915558358
C -0.6844598501361914 0.2691307821814775 1.3291970764121062
O -0.6370267933724095 3.377510518782875 -0.42144574744402186
C -0.5629713655406677 2.2402279833186216 -0.4870887557505118
