14
## STRUCTURE-ID: 64568eb3e418573c877ccc0a ; CHARGE = 0; SPIN = 1
H 1.3703585803554235 2.483251588588246 -2.446018410749025
I 1.433699570133973 2.6207661157662994 -0.8699467266045913
O 2.624003902703784 -0.3489206920920655 -1.5032857643093023
C -1.674873853373035 -1.052849994036419 0.256223342315591
H -1.2350531661325688 -1.9978529414451476 0.5750282959884563
H -2.7592209344626832 -1.0909884315904488 0.2858998699320421
H 3.496752695026707 0.06280114618654029 -1.4189657085260605
Rh 1.4611607185788027 -0.21625958766994677 -0.1148424594600308
I 2.0490800927407267 -2.455711910793177 1.0565154379892392
I -1.0883519651784863 -0.8363488170617782 -1.8397312205057115
O 0.18776589941295635 0.33104504157445114 1.0919307038256167
C -1.1104028126292282 0.09017007594153925 1.0487867167271718
O -2.7723412811475368 1.5175062740135385 2.2247719632198306
C -1.9825774460288232 0.8933921326184009 1.6536339601567869
