18
## STRUCTURE-ID: 6456893006deaf7c9c64e483 ; CHARGE = -1; SPIN = 3
I -0.3113227739912948 2.902074442513535 2.08661390215664
C -2.0717488142908924 1.1501589689390803 -0.523423933788112
H -2.352573701093189 0.61252251803497 -1.4269359797840189
H -2.667491624483178 2.0584511148956905 -0.441168013271925
H -2.2880053155337277 0.5314972703787789 0.35699944778828346
O -0.1710371967306267 -1.473173376662813 -0.8872847385385768
C 1.7545542433322805 -2.158032954772049 1.9372661875135835
H 1.6676387175121399 -3.1228713138549455 2.420416230164784
H 2.55102407780386 -1.5628630450108456 2.368992290053682
H 1.8920688937405883 -2.2576951089172868 0.867565491513754
H -0.17218304842152332 -2.1415743104184033 -1.6030490936325807
Rh 0.15580595033606187 1.1294261023770609 0.0915382874796585
I 2.7985017966337007 1.0410967434873952 0.10408732998026263
I -0.10149742656389095 -1.0987799586444427 2.259501186500179
O 0.550333432678151 -0.07934537681663306 -2.4652483155615488
C 0.21732857883103027 -0.26380934611764323 -1.3124007080758902
O -0.8516591777503136 2.4130681267262433 -2.489555338159685
C -0.5997366120090614 2.3198495038621707 -1.3439142323381632
