12
## STRUCTURE-ID: 64566b04f60e6e32196dc171 ; CHARGE = 0; SPIN = 1
O -1.239687611684779 -0.01348116140617982 -0.3545174978992037
C -2.2757962221292245 0.06163232543891304 0.246151922224236
H -3.0929826528426667 0.7203165814935436 -0.07750483642498193
H 0.9763874126461227 -0.6024435121292588 0.7960296232970077
H -2.465592220793973 -0.5245533038592709 1.1554110001903546
H -0.6321961470040374 0.9022569455208969 -2.0141627406149887
O -0.3314336548059048 1.356697221931859 -2.812762041037186
C 1.8918134416427441 -0.7158826590758419 1.361833708368286
H 2.3675198715528225 -1.650629542016198 1.0953888458034693
H 1.6665066889030817 -0.7150300690501091 2.4203062754324836
H 2.559162049449977 0.10545598428427656 1.1356632227943035
H 0.5762990450658412 1.0756611888673677 -2.951837482133782
