9
## STRUCTURE-ID: 6456647209725e04a22cdf88 ; CHARGE = -1; SPIN = 1
H -2.522374268570314 -0.3184974523166266 0.9837288629994111
I -5.369375429229294 0.09471235687154186 -0.5011195208387281
Rh 0.7215149112489111 -0.032400025170700335 0.14233238751640248
I -1.8415323063991405 0.18764540177350839 -0.35299754775630954
I 0.30414449006062244 -0.9429865277571603 2.5249883915539475
O 3.6164831559495023 -0.38446510762411945 0.7889432498316171
C 2.516740376492306 -0.23454943985746973 0.5175977456011549
O 1.443359378556327 1.0123226053325167 -2.5662591857041024
C 1.1310396918910939 0.618218188748506 -1.5372143832033895
