21
## STRUCTURE-ID: 64568d03219ea85df15c71b8 ; CHARGE = -1; SPIN = 1
H -3.6076832727433668 -1.3297531333882424 0.7730780909335437
I -3.201752509578726 0.7513711020370507 -1.8455688221463258
O -2.7010604891010668 -1.3484916592644194 1.1100475553996452
C 0.1299154599632214 2.68333970408794 -1.338535264479054
H 0.6619827443894247 3.0656486294700627 -2.209484205891605
H -0.9051565436606346 3.0236288485922747 -1.3521419020500987
H 0.6001498208213464 3.076382416063099 -0.435217880089723
H -2.767358206353512 -1.1015202211210853 2.042545819963099
O 2.6586600740142576 -0.9052338611359076 2.7415272737470007
C 1.9255445321682028 -1.6906899649775449 0.255926700139424
H 1.3641290473955285 -2.617770574903825 0.26793397709023514
H 2.896272672122889 -1.8269001060412609 0.7066553852926842
H 2.0115289347445007 -1.3043929558126692 -0.7535241079581628
H 2.62826220289056 -0.4599578698650064 3.5877046801733834
Rh -1.1009595488772241 0.17452520193438095 -0.26207781585046597
I -1.547559275554769 1.919106650097589 1.6541591893260355
I 0.9084167171633915 -0.2662939255655178 1.4250651653741808
O -0.569480540830053 -2.294582169261011 -1.8404962505825444
C -0.7454145301574717 -1.324821920642486 -1.2492593084420507
O 1.1069242813872697 0.5901034043929079 -1.9464613789283784
C 0.2546384297962261 1.1863024053037075 -1.3318769010208211
