18
## STRUCTURE-ID: 64568b7878336711625fdabd ; CHARGE = -1; SPIN = 1
I -1.0937422376374035 3.0121514085535996 1.8432338443184497
C -1.7282893291494945 -0.3535153383051024 1.1963074588906328
H -2.453377095095218 0.4574019818049502 1.1850812028216173
H -1.9620090426656365 -1.0442968446276437 2.005204696952269
H -1.84525988105263 -0.8919678717261642 0.24088922030588228
O 0.765058952450607 -1.5198673409325432 -1.1196057186982562
C 0.4034247845119265 0.8497304552560657 -3.131528334070281
H 0.5710884267481461 -0.2038607958247522 -2.9255089618750394
H 1.320052783446183 1.3404436984098844 -3.4358335730904073
H -0.38882589987508237 0.9940650188738741 -3.854800507435482
H 1.6107270383868422 -1.9723665470267056 -1.1223622089495118
Rh 0.429278505275628 -0.14288918550159727 0.6102495913626105
I -0.225129892202541 1.7037172394453997 -1.2542718668534039
I 2.9927498013831966 0.7140987071032464 0.6702770884786673
O -0.3642257761155161 0.46301956102013336 3.3149912380161615
C -0.42503756437440343 0.7107084940644107 2.1540298215890936
O 1.408258300666369 -2.530727553102106 2.057685970795799
C 0.9852581252990242 -1.5858450874849574 1.5659610374411792
