13
## STRUCTURE-ID: 64568bff7b987d566212b084 ; CHARGE = -1; SPIN = 1
I -1.0223053157387376 -1.5075535799767947 -2.3363763545824714
C -1.562453751438888 0.5109386316379612 0.3610183063892451
H -2.275149151441432 -0.31424968908866124 0.3396635760848522
H -1.9747302449145374 1.3436523539257819 -0.21088998117009874
H -1.4300624821876502 0.821803720853847 1.3989941670420303
O 1.0210821745694068 -2.121645777957802 2.5577692028508436
Rh 0.2957819889456936 -0.16660436299692424 -0.47217516018342515
I 2.8514796280441397 -0.8670369598648764 -1.4104701927054213
I 0.13863752772604687 -2.411748138696077 0.9387303990570893
O 1.8504088249209922 0.7962629392130162 1.8899481062493175
C 1.231159254169471 0.5030470970798936 0.9827938754143889
O 0.4895207531056548 2.1200102754662282 -2.404418234793949
C 0.38663079423983426 1.2931234904043984 -1.6345877096523989
