21
## STRUCTURE-ID: 64567685c644f00e1b73b9ec ; CHARGE = -1; SPIN = 1
H -1.3281415327155506 1.068267005953777 -2.741719707121819
I -1.1757791429195341 -0.18128658773181233 -3.6615875047297495
O -1.6002822833968595 0.6130499467052982 2.3758415607800316
C -0.5424395157402733 -3.2186041740716975 -1.2141709412504176
H -1.0454854880332678 -3.060087490104958 -2.159601774312464
H 0.04606600761840552 -4.1245281785600225 -1.202724154505767
H -1.2097605602861687 -3.141408690524113 -0.36455383616476567
H -2.3600680356775876 0.4346546322541168 2.9642070091949693
O 2.096112521759853 2.572497205952259 -0.0916243163876469
C 1.339381430076296 -1.76767036733953 -1.2809281176524037
H 1.4270375613073272 -1.8235549601821843 -2.362355293821941
H 0.1769809947254747 -2.2945252357655797 -1.0799228506405354
H 2.011240125098489 -2.430992703644836 -0.7469867675194722
H 1.97934233237155 3.090271385887062 -0.8926682840479532
Rh 0.2873523527179359 2.304125328498802 1.2645102932330108
I 1.3715509451452497 0.32658165324442984 -0.5061362876885224
I -1.362281709639469 2.9826492000847784 -0.618890081712499
O -1.8277009459124949 2.6706900281696977 3.2083911692612066
C -1.2116526509876433 1.929110154429963 2.4383223674027383
O 1.6950397463617308 1.9774565193351183 3.872910843557106
C 1.2334878481265357 2.073305327409436 2.7996866741269053
