13
## STRUCTURE-ID: 645689d91e0e264b556a602d ; CHARGE = -1; SPIN = 1
C -1.3698040882491802 0.3595758176328711 -0.09441560140426523
H -2.0183397541359076 -0.4980260450690865 0.07709011020638372
H -1.5250925082629194 0.7439439749626225 -1.1011693070917856
H -1.6879612431088333 1.1499522420314008 0.6134444879271819
O -0.06157162138945364 -2.0200330317493154 -0.24786213719781758
H 0.0827509601821741 -2.69786359689105 -0.9361748577029831
Rh 0.5971725713539823 0.39889199228887545 0.8193202384494163
I -0.3866717928826014 -0.9079281039975254 2.8716365717863925
I 3.004721326092815 0.5898815832391752 1.9061391460294153
O 0.47176705841622807 -0.5725693379074064 -1.8619772814423368
C 0.1547821441766472 -0.7794593431894374 -0.7063435972017785
O 1.554859574738803 2.5487366788612618 -0.9999833135618866
C 1.1833873730682418 1.6848971697876345 -0.33970445879593286
