12
## STRUCTURE-ID: 645668213c39fd3aa512b0a1 ; CHARGE = 0; SPIN = 1
O -1.2103616617608568 0.005264742932837392 -0.38282559555493006
C -2.215663769692203 0.026549858754907008 0.27222483822718346
H -3.0105910226056007 0.7646163910778121 0.09915580392801876
H 1.0121462873113378 -0.7308491316649219 0.657461430330259
H -2.3973276819033456 -0.6914079747210514 1.0834341215597196
H -0.6550434911022092 1.1552775235853552 -1.899039018750421
O -0.39506901948591827 1.7169601339384541 -2.642109915071878
C 1.8848189396931145 -0.8734569429106976 1.2813586126440673
H 2.6143566519779906 -0.10519881192510172 1.0610716472187365
H 2.3154147949690205 -1.8464332739103226 1.0842334429405307
H 1.5999913338893115 -0.8096141952835774 2.323454060548182
H 0.45732863870937074 1.3882916801263074 -2.9384194280194724
