12
## STRUCTURE-ID: 645669910516a707b56cd4b8 ; CHARGE = 0; SPIN = 1
O -1.364966650854839 -0.9936461829197576 0.3817095463696951
C -1.8173924746292984 -0.0744382471300473 -0.5897505260677642
H -2.496739705350966 0.6644917129336069 -0.15414726477997906
H -2.319351910746938 -0.5836758325563935 -1.4176100553643818
H -0.9370150010275071 0.43933433180375037 -0.9722810463924411
H -2.1261799536877506 -1.4618402404983404 0.7447852922779726
O 2.0903918662527405 0.48175173017661527 -0.7123632921659653
C 1.7442889320230435 0.47395199153852396 0.6582463078030366
H 2.583848889857308 0.14465337417810858 1.2784938489147455
H 0.8785867666167146 -0.16568417529445711 0.8476978551721938
H 1.4936274520017403 1.5002324539223986 0.9216889712962856
H 2.2709017895457557 -0.42513091615401694 -0.9864696370634106
