12
## STRUCTURE-ID: 6456662daadad8316641e58e ; CHARGE = 0; SPIN = 1
O -0.7949534463188336 -1.4691355529626429 0.43538156771070013
C -0.011091505629419452 -2.0128635974354068 1.5358233542447168
H -1.2470987945223564 -2.1697820159945533 -0.08136467740084238
H -0.6583648752057368 -2.1170956482042143 2.404809581277359
H 0.42069493612899417 -2.974195989008985 1.255826448779403
H -5.087795804101825 14.876501985037317 -12.794859813765672
O 1.5409145477896309 -0.6575353461027476 0.4569394042509371
C 1.0981117639892 -0.9869182384217231 1.7665589387964646
H 0.7044339617552533 -0.0990013548951334 2.2719426014383846
H 1.8991890061774328 -1.4202966947253053 2.3688981274150023
H -0.09064610276179236 -0.9854350292902513 -0.10607275696591813
H 2.226606312699438 0.015757482003626973 0.4861172242194899
