13
## STRUCTURE-ID: 64566c63962b4a2356493a76 ; CHARGE = -1; SPIN = 1
O -2.098839698716056 0.18569018749371471 -0.6935622827780131
C -2.481088897118901 0.689153164360217 1.3451039955332644
H -2.0801883429182992 0.5089979146584839 2.336809869179835
H -3.46362329829798 0.27879020699179735 1.164244573979663
H -2.332537049244809 1.6877729803407642 0.9630875993671616
H -0.2699791940474612 -1.5527397037510997 -4.395312033920657
Rh 1.5929822713909831 -0.5045040280748141 0.06762096084944318
I -0.9168853128817533 -0.915035751700385 0.31353609038092567
I 1.5931633932318228 -2.3832570286059114 1.809210953178053
O 4.576654889208003 -0.33505274696850673 -0.0653058750286875
C 3.4422173948378725 -0.38128060600847047 -0.00026610589681199423
O 1.0920872715646226 1.7992432561234086 -1.765512426563508
C 1.3460365729919506 0.9222221551407888 -1.079655318280665
