18
## STRUCTURE-ID: 64568bdd59ae441b17390823 ; CHARGE = -1; SPIN = 1
I -2.656368589464488 0.20961589915599801 1.3129057205917862
C -1.263555050975817 2.616652881700245 -0.6370239528863468
H -2.2094568599670787 2.4211228729816394 -1.1406299264677773
H -1.4452134592358774 2.909666427495861 0.3928252936491926
H -0.7479150565822839 3.4162146623641148 -1.169269762420384
O 1.8043600149702714 1.9954699167382315 -0.1269299524291985
C 0.4067635807315187 -4.30225859687667 0.04738980519077
H 1.2036058002510406 -4.2819600498125245 0.7825230306249162
H 0.798319421823818 -4.0913113420120615 -0.9411583079015133
H -0.13027098673636142 -5.243167916727541 0.06824060349346167
H 2.341727270100923 2.579084128304883 0.4422109441361918
Rh -0.1821027362402963 -0.2584780761115834 0.37935197574879365
I -1.0179652220525104 -2.745045353143753 0.5549308153582595
I 2.327271440132815 -1.125577075965173 0.432770107517495
O -0.030789199332664243 0.9776086999768311 -1.8510108428396854
C -0.40098290727023517 1.3816756467778777 -0.7440197863314323
O 0.4775279768174502 1.9911730535578995 1.6572693901405162
C 0.7250445630296712 1.5495142215958846 0.5396248448249172
