13
## STRUCTURE-ID: 64568b5c38560528c5390814 ; CHARGE = -1; SPIN = 1
I -3.109220588610716 -1.3172138749803741 1.3102304292179672
O 0.34129199286306894 -0.666148615620354 -1.9704204665638587
C -1.6668497149462365 0.12667926573741695 0.6538331364314101
H -1.8419908833369245 1.0479972688306447 1.2091950189921346
H -1.8439136159245861 0.3091057268970401 -0.40569672895194236
H 0.5725261432644684 -1.233208948614596 -2.736176532666633
Rh 1.283842255200646 0.6398052784067426 0.4383274383428303
I 2.33945791143615 1.3958803272854938 2.691404162089827
I 0.3008145542852048 2.6655090042131477 -0.8230574945049339
O 2.511038015635248 -0.7688681935482852 -1.3700528950205568
C 1.368973919803978 -0.3685247268595955 -1.2038498215923412
O 0.03272483496790831 -1.4484887117756942 1.3373881716238534
C -0.2886948246382152 -0.3825237999715721 0.8688755826022223
