39
## STRUCTURE-ID: 6456fe3e454ec90e951dbeac ; CHARGE = -3; SPIN = 1
I -2.012402356978619 1.518936029739904 -2.6671203050822596
C -5.15729585591131 -0.23803284415067266 -2.6809493384828897
H -6.02260451050651 -0.8389896284657743 -2.9489043395981303
H -5.411054494102575 0.7872883987761696 -2.434641296514845
H -4.355422504227407 -0.2760269753458617 -3.410338080519166
O -3.2393448747392304 1.7322130738873938 0.5486241029246939
C -4.566820685818232 -0.7669562213974628 1.3863800905012174
H -5.131895621142101 0.1500685401936537 1.481036767812493
H -3.56436498866328 -0.6564464174944241 1.7836525237570309
H -5.087142306323247 -1.6139058527235395 1.8157075089909827
H -3.275166173068654 2.5378930575366883 1.1029025707563724
Rh -1.6818624792415602 -0.2666273082802368 -0.7823575946588197
I -0.9786676219961548 -2.2296188138747595 -2.4392904137407965
I -4.456197780836433 -1.2274012040956308 -0.7795171435297187
O -1.0989403559002284 1.800449306149778 1.1243243951288322
C -1.973762848131919 1.233671459602175 0.44423767420916466
O -1.2422144568659617 -1.7281427289142106 1.7786864135517497
C -1.3652854561522552 -1.2323882890658837 0.7234954690933593
O 3.1030285851888424 1.441556409269448 -2.658467172661243
C 3.942893220537891 -1.939846859216383 -1.7487363244252836
H 4.3502671525766 -1.5252615371314586 -2.663383961108951
H 2.8590029300071222 -1.86350299603212 -1.7428995433849754
H 4.255328487249034 -2.9664978044012535 -1.5963904102111866
H 4.006754448583755 1.7913913064570417 -2.55160759854786
Rh 3.551309089487557 -0.8829543792378284 2.368954561718706
I 5.5581333364400205 -2.239354873557637 3.382099736801466
I 4.643723850188173 -0.7559822734953836 -0.08114582381035475
O 1.2796254127654791 -0.8856552370131242 0.6962159525932525
C 1.9008904507470072 -0.19917805434980124 1.5304272379142063
O 1.1422215958546924 -1.654482016527282 3.9415811921535595
C 2.1757586348191538 -1.435008789687522 3.430400078311081
O 1.269551831903873 0.882938640785019 2.1228868506484555
H 0.40913991334883865 1.090485743589221 1.6874780835866148
Rh 3.421703701001684 1.5278220853608222 0.2228839828236872
I 4.825701081793685 1.728741221100732 2.4825981976432123
O 1.278512496442828 0.8811074734546329 -1.562521047237028
C 2.439940493058391 1.2501423555937383 -1.4561920562104491
O 1.7150879301924793 3.962582697034647 0.016916669258047804
C 2.491870728418479 3.1049733059271096 0.13297238954577997
