12
## STRUCTURE-ID: 64566964af928765b27cab86 ; CHARGE = 0; SPIN = 1
O -1.2293206242090597 -0.6818267683712892 -0.7624166188465367
C -0.8529061296979084 -0.003425488852420819 1.3668466239054868
H -0.2909200889624957 0.4133775115397015 2.200091869981289
H -1.1659946665781755 -1.0214374764434049 1.5234720998810571
H -1.6298171819033078 0.6449851106305354 0.9996321563594662
H -0.8836045099947151 -1.5748488412974 -0.8074128187433854
O 1.2507138979321935 0.3577450289704496 0.276807474021611
C 1.1932678817363802 0.4515049650247399 -1.0825794605261487
H 1.8933576901294487 -0.2359040099090941 -1.5663267024804197
H 1.3164288919048601 1.4805761506080142 -1.4314685839505465
H 0.15381717721829657 0.110276414071607 -1.353796783777938
H 0.24497766242447488 0.05897740402859172 0.6371507441761047
