12
## STRUCTURE-ID: 645667a5ff4eaa26cd2c50c0 ; CHARGE = 0; SPIN = 1
O -0.7986474905831343 -1.4027818400379377 -0.8974797965423691
C -1.3081446967441481 0.3155340734254202 -0.024977501061830946
H -2.2441201737110403 -0.22541589294538272 0.012161912174155722
H -1.2851749282915128 1.129554530482451 -0.727136643706609
H -0.9396738311270785 0.5494392621453754 0.9592612054400167
H -1.1052449914120688 -1.297470208191929 -1.8053831821782345
O 0.7569970960634326 0.30514980472818665 -0.4401136317612141
C 1.5263923788361309 0.36556949669211314 0.6926027220882199
H 1.3054549840440062 1.2701982571387365 1.2831880000495686
H 2.5891424693942415 0.41235540340965793 0.41197965729968694
H 1.391939871420012 -0.5139000357442197 1.344025341466688
H 0.11107931211116806 -0.9082328511024732 -0.8081280832680802
