18
## STRUCTURE-ID: 64568a88b2ad4c2731493a78 ; CHARGE = -1; SPIN = 1
I -1.6428790588103361 1.809315429895858 -0.6948541796624095
C -1.8450673882405126 -1.4394170019652313 1.8936074539971288
H -2.052362672885221 -2.4523730593323894 2.224074361726501
H -1.6040759976539039 -1.4277999803387882 0.823335788160206
H -2.7322509249128886 -0.8284357881138298 2.056361862564921
O 0.08512155689931608 -0.07413550026973062 1.9374401646977455
C 1.6320543497815123 2.4781136133049113 -2.804239749988979
H 1.3341434441989006 1.6656172695112923 -3.4592962708650634
H 2.487129658598138 3.01254302345203 -3.1985255099497403
H 0.7973685602474775 3.1436701081064067 -2.612412222183112
H 0.7758692725875654 0.34621758840574274 2.4847689608542116
Rh 0.0608521695673559 -0.19071007838188278 -0.7691178832647219
I -1.3374631929052423 -1.668740785311974 -2.5479337701201086
I 2.223786433712379 1.6112395245318458 -0.9101893435124286
O -0.5066625719125551 -1.0266846586872767 3.852340259466399
C -0.7134269126993559 -0.8549573647876793 2.6757302803934553
O 1.8651766838873325 -2.5081787457130367 -0.37693983548926036
C 1.1726865905400514 -1.5952835943062682 -0.574150366824733
