13
## STRUCTURE-ID: 645673e73eaf9f042528a804 ; CHARGE = -1; SPIN = 3
I -1.541507185438761 -0.1710718937346978 1.457529963278593
C -3.0714502921009705 -0.23031236354110132 -0.09362015715990436
H -4.021360067815527 -0.3724401448360541 0.40929078205561215
H -2.833607383041917 -1.0597021883566478 -0.752336756731245
H -3.030535329526846 0.7166453766843407 -0.6223560146490398
O 3.3793147161167534 -0.21924284259298904 -0.9097911801112656
Rh 0.8622268570854729 0.0984258279204788 0.013300953520818856
I -0.04214110519915416 2.188905130543097 -1.462213773615766
I 0.2629581020335738 -1.8836132237753493 -1.61651634333048
O 2.8842562417545845 -1.5988437020074449 0.8384036616246632
C 2.786539582477564 -0.766660894704553 -0.019487933779142534
O 2.5441709369807524 2.051726927762591 1.5784479512214546
C 1.8211349266745152 1.2461839906383658 1.1793488476756075
