18
## STRUCTURE-ID: 645672f3c7721304aa3eadd3 ; CHARGE = -1; SPIN = 1
I -3.5795703797409253 -0.24555760218800995 -0.9126424673316073
C -1.3963755067447168 1.0040215796707974 1.125164272146528
H -2.1328669455844214 1.6104849712020746 1.6310486933178234
H -1.2688693675756888 1.2831772886459643 0.09036436787457902
H -1.5636958309088143 -0.05290749865050127 1.264768092757384
O 2.0048464251771314 -0.408265456351542 -2.6552284490853646
C 1.0214741222635473 1.3421233986842358 2.035448014346571
H 1.1770851699350944 2.4127678551347054 1.999477547190123
H 1.0079307523809629 0.8901322156536033 3.0188937697417746
H -0.3201796403059384 1.2134183861879315 1.6203565224528826
H 2.7034025406264983 -1.0123230566081296 -2.927600012744191
Rh 0.6950916683143364 -1.2156376944427567 -1.3010180273236913
I 2.2586847679444637 0.30752599780932494 0.6924482582229108
I 2.186126859258353 -3.380881186875343 -1.0586814326787144
O -1.2076715567956078 -2.75816432888507 0.4064862231217599
C -0.525647673577658 -2.076197629371757 -0.2199577942623892
O -0.716200819967342 0.9573611537837381 -2.7529271334908234
C -0.34356458469922285 0.1289216066007681 -2.0564004442555612
