20
## STRUCTURE-ID: 6456b8930e308a369c4b65f3 ; CHARGE = -1; SPIN = 1
C -2.345866519987556 0.09798710402753501 -0.5384764019367259
O -3.0617853917595976 -0.34156242868129066 -1.3268528996133115
I 1.9725214508309137 1.1487731649894377 -1.779921854014792
C 0.08338621907953556 1.040267021716822 1.0401986143604807
H 1.0804426564820744 1.353829133003718 1.3612600801601173
H -0.45263554661788946 1.8968949502782573 0.6277232295069443
H -0.4753223626118626 0.6242416792789015 1.8819635991309231
O -1.2798115693168826 2.012506608617955 -2.0100442553085323
C 1.8982446892994889 -1.7451974347100885 3.1806503550524154
H 0.8894815059649583 -2.1344627529089766 3.09320273688912
H 1.902926027736616 -0.7631545048637456 3.6377100767136654
H 2.5404858498834497 -2.434538232614223 3.71371069913423
H -1.5774509173261153 2.829670138844575 -2.458807993690475
Rh 0.2499314853842402 -0.39554854454442706 -0.43239477552825933
I -1.1734364863009745 -2.3313074129305913 0.710111688518977
I 2.6933910920693522 -1.5334696445306746 1.1742126137606217
O -1.148838380770464 1.112605474618226 -4.055430453739864
C -0.9917173743304105 1.0414703456510623 -2.8560249519866434
O -0.33871031297184356 -1.2737117305384764 -2.7701714232206447
C -0.46523611473704884 -0.2052929347040027 -2.19261868418826
