12
## STRUCTURE-ID: 64566be81db91a58d4068a1b ; CHARGE = 0; SPIN = 1
O -1.7438330648220108 -0.06243209295081236 -1.3335981977516826
C -2.471916357394777 0.16054210361191915 -0.1496595728581675
H -1.9804386440058803 0.9059239136092204 0.48026115033716055
H -2.610769529695171 -0.7679177959123628 0.41080860283862314
H -3.4289280594090914 0.5372990809829098 -0.5043077750079187
H -0.2619327852562022 -1.1832349831453914 -1.7251083601226147
O -0.43614236537533746 -0.5426539797376232 -1.0171312354230195
C 2.586308484864838 0.19059586946052742 0.7681266976802715
H 2.945868096988334 1.1921079967485348 0.5717552254235818
H 3.251271631026992 -0.527192370625178 0.3063680696052737
H 2.558743360000982 0.020934151810546704 1.836528270856977
H 1.5917692330773265 0.0760281061477154 0.3559571244215037
