12
## STRUCTURE-ID: 6456685ffe76a632900b39db ; CHARGE = 0; SPIN = 1
O -1.6085823405816637 -0.01712282748279005 0.803438635179365
C -1.111911983139466 -0.6900370741995306 1.9371073556269807
H -0.46732367283761395 -1.5272490000147563 1.6539633634971154
H -1.9733761951578412 -1.0735434324705655 2.482399371638769
H -0.5515067794723194 -0.012390777300607328 2.5892808539159464
H -0.848246623400476 0.2800576807034802 0.27675423274950406
O 0.8633447580535506 0.5803345787377024 -0.5674227485803829
C 0.9890855225740783 0.42341865369538717 -1.965832074911129
H 1.7506597814416893 -0.3211608624716961 -2.214407226356198
H 1.2355259420740479 1.3714417587036687 -2.451619304385047
H 0.023419899116659832 0.07858648635341883 -2.3305935775325004
H 1.6989116913293458 0.9076648157462888 -0.2130688808424092
