18
## STRUCTURE-ID: 6456717992ab1a5f2a1fea70 ; CHARGE = -1; SPIN = 1
I -1.0913937328293304 -1.1372822707547832 -0.07221968063428373
C -3.1276194811392997 -0.512347487509137 -0.6762975356045986
H -3.0610021665485307 0.5165513803816888 -1.0172243487775208
H -3.760687142887505 -0.5901837995033974 0.20040471955084027
H -3.4698511239216363 -1.1709602783740993 -1.465624251861223
O 1.57396966578612 -1.6157392321197503 0.4683805332827286
C 0.5817272972455685 0.058828484686301925 -1.9077131639873248
H 0.195302193795048 -0.6161586042990723 -2.6436122170881307
H 1.2222254859585984 -0.2528680986301604 -1.1136522846369339
H 2.0506039904191486 0.36932598083472556 -2.82269820661372
H 1.6622011107997603 -2.4562158918358152 0.9276126903138575
Rh 1.0920144321561622 0.0479829982413991 1.6601030295755792
I 0.3841638921352514 -1.5041630681479288 3.644871951889861
I -0.2771666721923401 1.9153910762879882 -1.8211649189619736
O 2.873594611476478 1.8630257174604308 0.09039985672790236
C 2.1232077267201364 1.1403832242693903 0.5895710491681242
O 0.3897406487820398 2.4343430945407287 3.2983625027845895
C 0.638969264244291 1.5100867744714914 2.6605002748722204
