17
## STRUCTURE-ID: 64568bb1e239e01f364b6a5d ; CHARGE = 0; SPIN = 1
C -2.226925791125892 -0.4672045813901199 -1.1047054267682188
H -2.341679939038838 -0.4701708520305018 -2.1873594679234873
H -3.0338231870741077 -1.047424854323987 -0.6518029284953468
H -2.3321686146645457 0.5784661182697337 -0.7916341567738441
O 1.3002423403335124 1.218834691211411 -0.8679070561253357
C 1.4378228371585204 1.1568974471712414 2.8784122840397734
H 2.1745816977638985 1.280907931527233 2.093174896042867
H 1.5960598608675343 0.22801586642748817 3.414794859706686
H 1.4112519197830542 2.0089306122138644 3.5470014025839585
H 1.8379903922727623 1.7921082623722244 -1.4551831885254818
Rh -0.30877185866312623 -0.7795205061073582 -0.11295437368077144
I -0.496324109094184 1.0345985296366005 1.9126386455481685
I 1.852256588810598 -1.9567623462207835 0.826594987009915
O -1.2325266406613533 -2.8682142376468547 -2.0186325677754797
C -0.9412896277647812 -1.984669617678621 -1.3427173366943446
O 0.6466746858160296 0.02057139139853698 -2.6579155765366695
C 0.656629445280927 0.25463614516990474 -1.481804995632374
