12
## STRUCTURE-ID: 64566ab244f05a43bc61a6eb ; CHARGE = 0; SPIN = 1
O -1.30325377885452 0.7281620798197839 0.2169749139708273
C -2.0438303570334284 -0.25267763707722135 0.9103049675490165
H -3.103692776555879 -0.2164211055769422 0.6418711554300682
H -1.9403484141942853 -0.13989608189244881 1.9937506713031365
H -1.6370992718933504 -1.2187087418334264 0.6156331519820972
H -1.6443028289748542 1.5999734042497247 0.4511491391209686
O 2.7307069704873146 0.06550079454942959 -0.07022095544536575
C 1.7608581535270806 -0.3067688031858538 -1.0286974583140798
H 0.7510153936723712 -0.053157808879203586 -0.6972541375323411
H 1.8398964327988405 -1.386021066671531 -1.1483254631703363
H 1.9554713030098099 0.17178383363734856 -1.994015713634834
H 2.6345791740108737 1.0082311328603477 0.10882972874086916
