21
## STRUCTURE-ID: 64567c0e429ba31af164e48e ; CHARGE = -2; SPIN = 1
O -0.1326120057749717 1.243529731154984 1.1135026257469545
C 0.17670219207590881 -1.6826200932748936 0.7540023005618423
H 0.08319900807888982 -1.6127106006187533 1.8369316972409855
H -0.7375092703735084 -1.2833203757210052 0.30303111103275154
H 0.2982836665110561 -2.729693225004087 0.45753147709511915
H -0.2177633908031829 2.1854268289122976 1.3886538039846217
Rh -2.4786577432128056 1.1913088081003316 -0.4129838926169648
I -2.7704271533408993 3.5817599150160317 0.639577872725342
I -3.71685342737212 -0.03172686453899724 1.5286556899200043
O -2.7449004298400825 -1.3274382522879988 -1.9876379601287986
C -2.58545186345091 -0.3686518304428201 -1.3693673556766552
O -1.0346299111964603 2.5850201455207573 -2.6187366926452746
C -1.5995426847831098 2.022883906445293 -1.7858394247537286
O 3.2349234236806024 -2.1889635723636367 -0.4987597962951157
H 3.1737112338034166 -2.4935372642089457 -1.4087094090304064
Rh 1.8208868143976271 -0.6789692467710583 -0.03250041090847387
I 0.9903909371019592 -0.643020974180051 -2.496203035978324
O 3.079965292592358 -0.3283337263314372 2.6267767790962244
C 2.573863773205317 -0.528769197293147 1.6167262640568931
O 1.6195769958659707 2.0303593910923228 -0.009751581372179399
C 0.9668445428349296 1.057466496794812 0.35509993794514727
