15
## STRUCTURE-ID: 64568886e9eacc48671dbe94 ; CHARGE = -1; SPIN = 1
Rh -1.4881591505240155 0.1666694306058411 0.5053809474526642
I -2.6295603925400344 2.0974687948911175 -0.8468096432170739
I -0.2347389186245458 -0.835288849700047 2.551060631219144
O -4.137512447177814 -0.9316045209535345 1.5109880126765618
C -3.1251252416081767 -0.8116635479633295 0.8569167780006254
O -2.0616550678836036 -2.1444532860063865 -1.0593420405866394
C -2.4134572761377404 -1.4034552543718828 -0.183802685057924
H -0.024589441202740075 0.6797100232909781 -2.18957516986617
I 0.7681712889742445 1.0021020751461316 -0.7400355172492665
O 1.8640988092171131 -0.2825737327001164 -1.9124106805359808
C 2.4904062230609747 0.7509667938620521 0.612517574311378
H 2.607171979399554 -0.29080672823886927 0.885713376092025
H 2.2485871429959956 1.3357764883066003 1.4931413984752007
H 3.380370653849302 1.1414460818265417 0.13525732348937114
H 2.755991838201509 -0.4742937679951247 -1.6190003052039093
