17
## STRUCTURE-ID: 64568cff3a66595294610ab3 ; CHARGE = 0; SPIN = 1
C -1.3259144841160908 -1.2348759865078676 0.18217055010405153
H -1.9287008980652984 -0.4215790760371862 0.5792343715151607
H -1.4659180923996815 -1.3268159480877915 -0.896753449827662
H -1.607270548787196 -2.1751016816320874 0.6644920924840804
O 1.5315311938469385 2.554052765611443 -2.362489172572215
C -0.7263199447861887 1.880300709217816 -0.9609934757006704
H -0.5402863418140741 2.83975664899051 -1.4273424998915563
H -0.7659802628852228 1.9546552272203908 0.11931739663463804
H -1.6116128422415943 1.4044485042825026 -1.3649505989155617
H 2.2826201214944217 2.442402471281359 -2.9482774342378004
Rh 0.7606164237985927 -0.9947359053510896 0.5118711265194271
I 1.967330380026057 -2.6842111963090813 -1.0947102113138572
I 0.9641864234848736 0.6741977750750198 -1.4790945210608182
O 0.6070359320326303 0.26325976316166094 3.2676262874427975
C 0.5817160842363189 -0.2832217703727435 2.228090210762674
O 0.5171031135314798 -2.8904551630151594 2.842759340079962
C 0.7598637426440182 -2.0020771375277353 2.1390499879773572
