12
## STRUCTURE-ID: 6456682e653327081f5c0b03 ; CHARGE = 0; SPIN = 1
O -2.013775542863471 -0.4591205645156228 0.14316972475017653
C -1.3033436541646608 0.5455721443143244 0.5768331623681903
H -0.14639307801426663 0.23762049830627652 0.3309363733014666
H -1.2985645488603765 0.6834691139516981 1.668279837112899
H -1.4545881843561885 1.493142704637886 0.03939343843019484
H -1.08552886257994 -1.4248088936736643 -0.42282528542209086
O 1.540953224814886 0.36243259400518896 -1.2593670024845758
C 1.2615615693885955 -0.2849932294204455 -0.0948424476093657
H -0.16860143820707132 -1.3976010950550617 -0.4651843384018924
H 1.597056914387028 0.2142360547278541 0.8144643575567966
H 1.6759643891289344 -1.2867637651139285 -0.13805354877189524
H 1.3952592113265319 1.3168144378354902 -1.1928042708299065
