13
## STRUCTURE-ID: 645689d71e705d29d773b9dd ; CHARGE = -1; SPIN = 1
C -1.366287536929211 0.373377043317597 -0.09677651448052307
H -2.0235322548201182 -0.47828558491013945 0.0711725360385244
H -1.5153190285158276 0.7614665435374657 -1.1030468795688495
H -1.6784921340355903 1.1652543195564058 0.6120491300860498
O -0.08057979638539557 -2.0186660096478524 -0.25305577317620853
H 0.05948052399651716 -2.696297226652207 -0.9424757895725805
Rh 0.5987054055040062 0.39112580381654144 0.8217748896030617
I -0.40295781282409127 -0.911160212831691 2.868293375222849
I 3.0052490107593304 0.5559063001979053 1.9151462131030579
O 0.4705622543900778 -0.5723661447044451 -1.8622252130826318
C 0.14875775765028723 -0.7790817033344333 -0.70790148021908
O 1.583457876897834 2.534952737165591 -0.990206815380873
C 1.200955734312191 1.6737741344892838 -0.33274767857279663
