13
## STRUCTURE-ID: 6456739086158c1bef5c0b00 ; CHARGE = -1; SPIN = 1
I -1.170776219115081 -1.3710341265473498 -1.602417752247145
C -2.0676800961008692 0.3455498231997316 0.13776837209040546
H -2.9731298758005975 -0.2412160573176328 0.140321399811073
H -2.159485720778172 1.2451126565520825 -0.45524533905577164
H -1.7071328825429264 0.49525789433549683 1.1522789001383666
O 0.8446374102207362 -3.5358369764033575 0.7972043599267485
Rh 0.560545428837821 0.01295573285616017 -0.08925933578673075
I 3.0411829734288527 -1.011126298962472 -1.3485531767367
I 0.5016044410772857 -1.9533410867928693 1.7372688566074834
O 2.158550017095903 1.5547480863453467 1.935362400639639
C 1.451501139065042 1.0345854305904907 1.201784398574029
O 0.8413926063751843 2.0847647007976877 -2.2282811138370198
C 0.6787907782368396 1.3395802213466865 -1.3782319701244068
