14
## STRUCTURE-ID: 64568e739e48937857662c60 ; CHARGE = -2; SPIN = 1
I -4.335173541357879 -1.285199035932102 -0.5470481932984756
O -0.8348889504606968 0.5981518251444796 2.441166169219455
C 0.7322430479985395 -1.1919985851788812 -1.8631106906223451
H 1.1617653325734791 -2.129223868403392 -1.5226559536236404
H 1.2887049327636921 -0.3536202913761102 -1.3819287765813213
H 0.8141986972145927 -1.1024364186379287 -2.941747594067862
H -1.102368908343429 -0.1115942667287992 3.0596176487958595
Rh -0.05624493932420874 0.9588270337110139 -0.21262452481615024
I -1.337067609715982 -1.0999043393474066 -1.2678897481150844
I -0.36034883153830277 2.639199807256171 -2.213555917631309
O 1.9355145825274753 2.049988797713102 1.7817033487056027
C 1.0500988501569666 1.6101468211978853 1.09895698469986
O 0.8197451755720029 -0.8208503973235556 1.8890907223407267
C 0.22382216193374577 0.2385129179055297 1.6800265249946744
