13
## STRUCTURE-ID: 6456739a8695c433284d302a ; CHARGE = -1; SPIN = 1
I -1.025984890946257 -1.274162561271447 -2.5043306421671243
C -1.5047624583126844 0.10155703012432284 0.7294168829831621
H -1.924985901475901 0.8589367222248999 0.056502758308072734
H -1.7526815687177273 0.3342658682725973 1.7667281355851383
H -1.8799446252174548 -0.8880939157103527 0.4663269340953513
O 1.1893678548431736 1.5792552000333429 -2.993895489026647
Rh 0.5614719112057627 0.2833322480527136 0.4289229663872722
I 0.8983957501475504 2.186012538558258 2.2243402678419466
I 1.0753685471482493 2.180942900465544 -1.2342598565015286
O 1.7419292642363537 -1.3034946703272547 -1.5288142512692435
C 0.7002545123179148 -0.8621514555703738 -1.1648682182645866
O 1.1144499279929163 -2.049896140479182 2.190597000848482
C 0.8071216767781059 -1.1465037643730869 1.5633335111797273
