12
## STRUCTURE-ID: 645664e251385656b946227b ; CHARGE = 0; SPIN = 1
O -0.9343211226875827 1.6266035954380453 -2.1523914975653877
C -0.1648758474062971 -1.45213046341301 1.0014805644948528
H -0.3223124819084115 -1.1609080303595958 2.046122070907836
H -0.9691690995311747 -2.1112885843350395 0.6810975025620113
H 0.7946223884252199 -1.9754878970986856 0.9235252367232017
H -1.3009876360682011 1.4306159779570529 -3.018099033062955
O -0.19288711743606554 -0.326127558072258 0.15426772320313537
C 0.8330312636770806 0.5990508238197446 0.4455819758743046
H 1.8208795639706041 0.1481229831915524 0.3000686613073543
H 0.7580685931803582 0.9593049006908061 1.4770793487677731
H 0.7078428082761883 1.4326061752908772 -0.2408864032446333
H -1.0298913124917568 0.8296380768904473 -1.617846149967475
