12
## STRUCTURE-ID: 64566a25d570ac4c24671008 ; CHARGE = 0; SPIN = 1
O -1.706811762569982 -0.007088226331756332 -0.589115872153579
C -0.7110427088914012 -0.309017221543253 0.5313833476159332
H -2.41058276435778 0.6198889494000686 -0.30154078347672636
H -1.2547626105842673 -0.8113659377871433 1.3353086098042546
H -0.3343870810913182 0.6754425730989201 0.8308123065952359
H -2.0848411135430873 -0.852388820484195 -0.9376415921829774
O 0.21971391354640826 -1.14758269189363 0.050698392328426704
C 1.2780764720682116 -0.5535437760242035 -0.6994099212677005
H 0.9040559235701744 -0.11172361555933238 -1.6239661526503282
H 1.9713044322291635 -1.357485526174688 -0.9289750008019303
H 1.788788013304517 0.21108630687785485 -0.10939620828447578
H 2.340489286319369 3.6437779864213473 2.4418428744738487
