12
## STRUCTURE-ID: 64566b3fb71b325e042fdd8b ; CHARGE = 0; SPIN = 1
O -2.5169368715075864 -0.5832729079693013 0.04415478023106063
C -1.785722229459556 0.0831401724278342 1.0536825986584377
H -2.1468471030178002 1.1099541413375458 1.0745345278322327
H -0.7136670807044851 0.08096341611853587 0.8407921125617125
H -1.9607007626098756 -0.37213382872712836 2.033674274044028
H -2.1741587322419313 -1.4810695405432508 -0.036548071182063206
O 1.5030554402450547 -0.37102980058290685 0.008234706445393125
C 1.8897939644728246 0.5026714125113306 -1.0302189373698722
H 2.9668977248116044 0.6922081266005459 -1.0131515785898544
H 1.3636976505319907 1.4411821834944718 -0.8637717102546528
H 1.6065875642752023 0.10689560963696992 -2.0101274897579064
H 1.968000435204564 -1.2095089843046412 -0.1012552126185242
