18
## STRUCTURE-ID: 6456722b3f40592a7061a6ee ; CHARGE = -1; SPIN = 1
I -3.9422707972137334 -2.9225325935353235 -2.243420367748708
C -2.2314509629249852 0.5859746754210685 -0.5410402216928532
H -2.309022553689794 1.3279223191825311 -1.3489660762888809
H -2.8181008377424015 -0.29077078249020266 -0.8104714003561034
H -2.6495569183340084 1.0033953470353367 0.37315609085103774
O -1.4692460085462644 -1.0220324326412504 1.759571711019828
C 3.645330112411867 1.4732079431712823 0.3937335030140529
H 3.367077838723049 1.1940540920696021 1.4037868030491025
H 3.322742935445662 2.4841806508396336 0.1697270265597763
H 4.705723897171984 1.3364457908327039 0.21475520660042158
H -1.5088022968751478 -1.6515612200132008 2.510958117948256
Rh -0.197845600720412 0.2117391516975421 -0.4017632114430783
I 2.591829929304393 0.11929331612852241 -0.9673627941291378
I 0.104435120473235 2.2121590856718494 1.17417201681198
O -0.40337312853504664 -1.990019540513596 -2.40042930898421
C -0.4069556413263693 -1.1513182516611034 -1.6270270767654085
O 0.5658298495298307 -1.8277160613450505 1.2767266168383804
C -0.3663449371519654 -1.0924214898504188 1.0638933647155917
