13
## STRUCTURE-ID: 645673700b622512ac4dd52d ; CHARGE = -1; SPIN = 1
I 0.755785482721973 -2.812717159673348 2.0914913630645304
C -1.544628051913025 0.029848313660120432 0.36968282572367495
H -2.1479447013051507 -0.7207072311771646 0.8977613420568848
H -1.938990290625259 0.17238388550180103 -0.6373040616333684
H -1.5974804772270514 0.9802375972549295 0.9024378454997389
O 0.20131365373520688 1.384912424475915 -1.611490895077435
H 0.6762548848392597 1.9296160479666442 -2.2743015659941337
Rh 0.36765766111096326 -0.81358158706491 0.29641353917934987
I -0.20468466189777854 -2.4074866718128516 -1.70142577570962
O 1.358110054363297 1.0558982090748972 2.379009543030896
C 0.9295201093297871 0.3317740906536837 1.5963582494170343
O 2.1695537843315837 0.3820239613415814 -1.2718355556273697
C 0.9755325525361921 0.4877981197986976 -1.0367968539301735
