12
## STRUCTURE-ID: 645668aa6baba8165b6c2b40 ; CHARGE = 0; SPIN = 1
O -1.285143764344606 -0.10593514476568693 -1.0320829463890906
C -1.3496787823873875 0.018564204942665766 0.9330388298033083
H -2.122816385710591 -0.7394714550216777 0.840778844807504
H -1.671706795847767 1.0395514029928326 1.0984901162180818
H -0.46791218742480173 -0.2959989673948387 1.4813808275998956
H -1.7548327735369866 0.49962072223479964 -1.6514153863783911
O -0.14048024361956768 0.6309170754754886 -0.5137490837205114
C 1.0667716254861737 0.0841989022625168 -0.9637448321970091
H 1.2247242773527172 -0.9365970986759279 -0.6097879549347507
H 1.8263173809423552 0.7369585497225153 -0.5335404688429987
H 1.1106397275610276 0.11361853073025625 -2.055705187652318
H 3.5641179215294168 -1.0454267225029485 3.0063372416863254
