20
## STRUCTURE-ID: 6456b842cef4835d106b0e1b ; CHARGE = -1; SPIN = 1
C -2.75039936998725 0.5287815091475004 -0.6295649073848874
O -2.907836565044315 1.5485611592495447 -0.15133424066152462
I 2.940574702246734 0.4971862162113132 2.0604451419728766
C 0.17607476019078533 2.0824118159182055 1.224929783049214
H -0.7265336089812987 2.3534318519928985 0.6574772904934942
H 0.8455212488389882 2.953268048744554 1.2397102878662114
H -0.1152019428169874 1.8534651920179366 2.2532063400856734
O -0.6712379610361243 -1.0636525413496896 -2.526549730081227
C 0.4202397462150757 -2.6574137858845455 1.8072360411974213
H -0.22658771441231607 -3.439506638000484 2.186165159677106
H 0.9457478452073338 -2.1472319476738555 2.6071779877062515
H 1.1198666800027761 -3.036451635695665 1.0682758857118009
H -1.600370705525367 -1.3240968695107467 -2.6896414425585062
Rh 1.0620948024446704 0.5711192107126887 0.15308411029456298
I 2.2256337351556383 -1.1704122831851758 -1.6327501544996603
I -0.8593573723115087 -1.1964461130566666 0.8038705048896198
O -1.463668740643124 1.026322870051175 -2.3230381224771346
C -0.533429624487011 0.21964993329332191 -2.259047692068744
O 1.3371429912179802 1.7368601969291795 -2.057835911762215
C 0.781727093725271 0.6641538100885129 -1.7918163314503552
