13
## STRUCTURE-ID: 64568ca35186f979f25ede00 ; CHARGE = -1; SPIN = 1
I -0.27037364341061637 1.7224170191163681 -2.4371828781934197
C -0.6311545704788403 -0.707400685566161 1.0489821966986925
H -0.18150124357607686 -0.716828458395838 2.0413343487990168
H -0.6417129293626388 -1.7531983343385997 0.697731047708493
H -1.6459556944984386 -0.318420770099395 1.1035618397130627
O -0.46678740323350837 1.7867186007187497 1.1839748505830525
Rh 0.490652196579309 -0.3546765427575173 -0.9489130447994703
I 2.337280555180188 -2.22443508118858 -0.5773577745599221
I 0.4552261566821689 4.297353404811845 1.7326940669580229
O 1.4622668088046802 0.8565134960180831 0.46162188329215786
C 0.29148344086851263 0.9646519408002892 0.7651404204789822
O -0.8514001809169194 -2.113315487307759 -2.921642856571689
C -0.3480234926378284 -1.4393791018114974 -2.1499441001069766
