12
## STRUCTURE-ID: 645669aa93944818134b65fe ; CHARGE = 0; SPIN = 1
O -1.04969315904161 -0.005009729642776372 -1.0190734349448447
C -1.9337688494165557 0.006286477203481035 0.0839682829584216
H -1.385933952769048 0.4346487037982599 0.9212236151149333
H -2.2532893090337107 -1.00551237307462 0.34751065548102883
H -2.8116846894274024 0.624783364452633 -0.1184001037227808
H -1.5086603760224888 -0.37089021278079104 -1.7849329267161778
O 1.5865715915652052 -0.837055047007688 -0.3124020790660532
C 2.0613120274556755 0.23463858207772664 0.46706863209851224
H 1.4596291304074434 0.3686942144590941 1.3726897344598152
H 2.0646723882982294 1.1713315694394242 -0.09892701827360557
H 3.0828455840992905 -0.009248420528609204 0.7566072446306008
H 0.6879996138849773 -0.6126671283961305 -0.6153326020198585
