12
## STRUCTURE-ID: 645667192718a01d612c50c3 ; CHARGE = 0; SPIN = 1
O -1.3655471059971935 -0.691516008658418 -0.7072910687336073
C -1.0403115084143157 -0.2834423496421926 0.485326257705659
H -1.2485333898885975 -1.018758404035817 1.2731647221346947
H -1.425029228475441 0.7112172611093412 0.770759384825214
H 0.5217394538717146 0.45435998169185343 -0.3471906184817315
H -0.604170908830727 0.16486453022420422 -1.4959532390242325
O 0.26127797142508913 0.796238334156396 -1.674795661997353
C 0.7590480089832042 -0.07588304712951933 0.7902749413744193
H 1.1463639375196113 -1.083453682016016 0.659149162916377
H 0.5466352831814372 0.09640441186659199 1.843290972132787
H 1.6040439434737341 0.633132571557911 0.6570463637706585
H 0.8444835431514965 0.2968364008756719 -2.253781216622892
