12
## STRUCTURE-ID: 64566a5a98320b3ae73eadd0 ; CHARGE = 0; SPIN = 1
O -1.0803499825217957 0.6091267189747913 -1.3665439175986565
C -1.238976710399211 0.005419004974949115 0.5269048533108773
H -1.4216307479029264 -1.0528618300054835 0.5805265401148816
H -2.126921577486068 0.6146388333999293 0.4246384440629946
H -0.5698439873526 0.3928032352291968 1.2762140163076385
H -1.6567248090802733 0.004879347849359843 -1.8482703424033002
O 0.5858244340421916 -0.6589585514666075 -0.2890192668454982
C 1.676853191347206 -0.11780244633347937 0.340089713892222
H 1.6819349332354208 -0.356879264305481 1.4165459550420314
H 1.7301535046028822 0.9779073679149025 0.22887896991576404
H 2.5962334545508776 -0.5411526551921434 -0.09094727009104484
H -0.17655170303569978 0.12288023896005933 -1.1990176957079082
