18
## STRUCTURE-ID: 64568a1c3f808d29053d7d7a ; CHARGE = -1; SPIN = 1
I -2.9870089656064964 2.794178770338359 -0.0081787750942957
C -2.3627125247371152 0.6148307955511984 -2.5271119418759396
H -1.7479182020582296 -0.0930868748498654 -3.0851106038409304
H -3.422502870647307 0.38016115167607567 -2.6818114855425965
H -2.1553889117406944 1.629461374425922 -2.8721138293263397
O 2.968911775782678 -2.6013513916256628 1.3644755208811359
C 2.4339253312370897 0.07868118757544548 1.7414745595571055
H 3.369591728094233 -0.399783372739833 1.9943703008408138
H 1.9466283656184344 0.49903062807540266 2.613345547413346
H 2.5641003840266694 0.8283609733743136 0.9692028020247019
H 2.8712140755124773 -3.5191908952617124 1.1037770707759154
Rh -2.0077899961252865 0.4511628716767892 -0.5113570762133842
I -1.8455326457284358 -2.1507775474910416 -0.6365030560237139
I 1.1773424809956123 -1.439808752326231 0.9599752381050647
O -1.1005615766334238 0.39557781753993077 1.8758144834775328
C -0.3028411170465499 0.2372983039953888 0.9440979187717162
O 0.7410871758169844 1.3308048025029235 -0.9877985882662801
C -0.14054450676064414 0.9644501575625977 -0.25654808566386034
