12
## STRUCTURE-ID: 645665b245fb5d11e02c50c0 ; CHARGE = 0; SPIN = 1
O -0.6300446447801205 -1.0161851242644924 -1.4612907118152596
C -1.2262417386290663 0.5384836573318341 -0.369171069584122
H -1.168584828275007 0.3632755970145729 0.6911655537828315
H -2.1603216043134306 0.2271618235351529 -0.8166838766891936
H -0.9138355817049071 1.5145844305696263 -0.694246191437601
H -0.8592246941031948 -1.7883474172304281 -0.9304656692581124
O 0.8806658212211309 0.38016248978766265 -0.29481667283287905
C 1.3409666870575114 0.14678518087664436 0.9741174520911591
H 1.0798291594642546 -0.8578855217688385 1.3501045489554766
H 0.9519765187433765 0.891924334060367 1.6883276151582671
H 2.4383806097954484 0.22889432513372143 0.9887514074153275
H 0.26643429552401293 -0.6288537750458222 -1.1257923857859085
