19
## STRUCTURE-ID: 64568eb2ff5f4e76d3399e3d ; CHARGE = 0; SPIN = 1
H -3.7414368564196105 0.031557104634567304 -0.9679937997397045
I -2.7821871003417824 0.9851832696430344 -0.12929355166014994
C -1.6176942796024407 -2.2339477721352314 1.3875179100663428
H -1.1046023220890517 -2.5974770897981165 2.274340032301785
H -2.5122298126855904 -1.696042144719139 1.7043772171442964
H -1.8994475444132868 -3.072611494952926 0.7562700573259525
O 2.1735006595808875 2.309072001930558 -2.900657292691224
C 1.8024767708887577 2.2545114316344215 -0.198811250812481
H 2.4094240964192677 2.9456377791001844 -0.7641211243604149
H 2.4107977115800585 1.6812160797055309 0.4912502164909697
H 1.006216724731236 2.7758458863945625 0.32008563254413896
H 2.079472515542824 2.0851460968591726 -3.82513618225775
Rh -0.518540326558721 -0.6585817869322054 0.18759869266426787
I -1.029059456467355 -1.813223365459987 -2.153090208444073
I 0.9531637432178665 0.9269355303906863 -1.6193333143450934
O 0.455588762132116 0.8687553908282699 2.578920015398662
C 0.09058382159223496 0.31241235437753234 1.6508567706085502
O 1.253228155514985 -3.000726426525043 0.6892948015071652
C 0.5707447373776311 -2.103662844975831 0.5179253782588825
