18
## STRUCTURE-ID: 645671990c841b52063dae50 ; CHARGE = -1; SPIN = 1
I -4.572199470354662 0.7423761232474569 0.5458490085298937
C -1.8807342798954778 0.5200066161246795 0.9569127069297106
H -1.9195572530362288 1.5547409648481592 1.2211837692078986
H -1.88757062107681 0.26266273093171627 -0.09505923547752225
H -2.146451238281353 -0.2420220925873601 1.6564686414178
O 2.679280352490279 -0.07642387222263897 -0.6265592067762423
C 0.1748226094746098 0.4156201821486993 1.5817058195177907
H -0.29525966511358337 0.7185399303187129 2.510146250711453
H 0.08167985302305378 0.13816895147193484 0.1276148480699061
H 0.9837415901204831 1.1257889524742033 1.3960706542020547
H 3.645060176687568 -0.1894462681592022 -0.7465082449389902
Rh 0.08845014480471784 -0.006892087249770219 -1.4255467868777136
I 0.18712269624617497 2.4807020104768838 -1.8946157552824
I 1.080773743573689 -1.4890717241459976 2.0496568095376273
O 2.4524903313606563 -0.7956884331819981 -2.7392320523302915
C 1.9705033902096358 -0.39457758631930356 -1.7043233297043754
O -0.41760674154747873 -2.9479014716221 -1.4458771318964245
C -0.2245456186851835 -1.8165829265539357 -1.3678867648403488
