13
## STRUCTURE-ID: 64566e27c0bc8a59dd12b090 ; CHARGE = 0; SPIN = 1
I -1.8290378725079077 1.3050520414856057 -1.0834856872693144
C -1.8046274233756183 -0.3776237919146089 0.8619038383235579
H -2.2057567829431126 0.33019689885701115 1.5727960628964643
H -1.0392170370392 -1.0140928371270088 1.3128112082603889
H -2.571558886044012 -0.9719857557427396 0.384988138385944
H 1.0036854071871866 -3.181081605125195 -1.363993825655563
Rh 0.43755512291201437 0.13560654595374208 -0.2730850310947797
I -0.018908562557893367 -2.0781735150986087 -1.863930847325114
I 2.2968909791186194 -1.1604821310770241 1.2251164173398916
O 1.0035041766248238 2.3201925096222764 1.6496702776599563
C 0.7775345423804833 1.4727097905527429 0.9183363125160217
O 2.1977797151505825 2.135989566617819 -1.6352747148793405
C 1.7521566210940336 1.0836922829959879 -1.7058521491581136
