12
## STRUCTURE-ID: 645667b0e7d7687fa012b09b ; CHARGE = 0; SPIN = 1
O -1.5324570146792875 -0.3430582890380926 -0.0949174203722982
C -0.5204502752344181 0.16229847224341568 0.7398669297730076
H -0.5469127516618544 1.2491861729084033 0.6330092705334135
H -0.7093270363296721 -0.08374886485033323 1.7928046464873792
H -1.595457884660977 -1.299644417528024 0.023507940523438783
H -1.3391840178294125 0.815141853945452 -2.388882692324821
O 1.8041871575688369 0.219879242218744 1.246336897394374
C 0.8716499176321224 -0.34656630010753775 0.3522162639852006
H -1.1029019171673915 1.185130071096272 -3.032453633997392
H 0.8924549995495993 -1.4450288054700906 0.4176012557522237
H 1.0860583139303588 -0.05248813631379838 -0.684233535425124
H 2.69234050888209 -0.061100999104408124 0.9951440776706081
