12
## STRUCTURE-ID: 645668f65b9a3a0525068a18 ; CHARGE = 0; SPIN = 1
O -1.1383801355407859 0.49528095574067216 -0.02399735571025585
C -1.938396330334472 -0.20854122109067424 0.9043329973748432
H -1.348000734452228 -1.05483697922666 1.250554568025585
H -2.8528845187763325 -0.5810061649018566 0.4352437532510149
H -2.1981440223202435 0.41835544245016165 1.7616705995160178
H -1.6353253718189964 1.2542900722369237 -0.35267450200208605
O 1.7127971686947223 0.6076359398654142 0.1870598868286555
C 2.079398510694743 -0.22582090808275 -0.8873985467962303
H 1.7339426857505187 -1.2532342654747364 -0.7322235714964731
H 3.1676636026684157 -0.22134011050099528 -0.9372788186298951
H 1.6766746942833148 0.1437760058886055 -1.835529276755944
H 0.7406544511513112 0.6254412330959003 0.23024026639482498
