12
## STRUCTURE-ID: 64566ae514ceed31bb6b0e21 ; CHARGE = 0; SPIN = 1
O -1.5201052621756244 -0.750322835230679 -1.257815144648946
C -0.8812963287285727 0.2704080251735186 -0.8713974868233966
H 1.327689170039157 -0.5457859802122794 1.9928802093335698
H -2.7380766103712033 -0.8087710413287851 3.3756500197317263
H -1.374204743217736 1.0290838652771692 -0.26186794968759297
H -2.4457008080776066 -0.8545832160816336 -0.9610172557487797
O 1.8658151826720353 -0.33932966829924727 1.2250587978388878
C 0.4940274431310663 0.43648109294438137 -1.19362817243776
H 0.7807938157263352 1.4762344612399791 -1.3316011921212632
H 1.0416213203738465 0.13180180806089392 -0.25500718002068756
H 0.8325384139097112 -0.22883178659293507 -1.984261690534525
H 2.6168984067185814 0.18361527504963454 1.5230070451187547
