8
## STRUCTURE-ID: 645663b6bd9fec733476344a ; CHARGE = 0; SPIN = 1
H -2.605517340292306 0.3704080165242805 -0.94424304225061
I -1.7677069713494626 0.16001743173512695 0.41817273145407097
O 0.3736566747927857 -0.1362641382299128 1.4445579320528288
C 0.616672440633375 -0.010838455659642487 -0.6218823329534249
H 0.16953296391615966 0.46726449985200125 -1.4775974848596827
H 0.7300309477255276 -1.0756692709348903 -0.7069372849170175
H 1.4939948340892462 0.5112895302105068 -0.2822790760751932
H 0.9893364504846737 -0.28620761349747775 2.170208557549046
