18
## STRUCTURE-ID: 64567186bb4bc11a7e4efcbb ; CHARGE = -1; SPIN = 1
I -3.231417728928736 -0.7829682453115653 -1.7748772084690039
C -3.3649918897748257 -1.289262011290751 0.30360760537527376
H -2.903627146127746 -0.49018703982375195 0.8695259780758166
H -2.8234905580246368 -2.215343289566574 0.4408876899988323
H -4.412062300332561 -1.389706996126714 0.5541285585482418
O 2.3940353709276305 0.9674561559506554 1.2178602471322157
C 2.223706112243683 -1.8239756200039894 -0.26159208656606175
H 2.766974542910716 -2.018028502230066 -1.1769682078036998
H 2.180460047606382 -2.7026769968717583 0.3680683356100601
H 2.6539115615552213 -0.9821332669738788 0.2722729318957039
H 2.2747785618466208 0.9236270252807353 2.171899209392605
Rh 0.7199229666774843 1.6895862391233092 0.23066002215498319
I -0.7430460226939688 1.374777613579948 2.3892804590383068
I 0.229753104367702 -1.2680884315525893 -0.7790383497259233
O 2.575528218957547 2.5253496066038954 -1.96078218469494
C 1.8522039396293835 2.1884557977506516 -1.1260873409720222
O -1.6579757457318414 2.885976578904307 -1.1201852663915137
C -0.7346630351080622 2.4071413825581347 -0.6186603925988755
