18
## STRUCTURE-ID: 645670f28a20786b0e67f9ba ; CHARGE = -1; SPIN = 1
I -2.554162156585951 -0.19061892942548136 -2.3063555916780603
C -2.978812595515843 -1.188899891168442 1.3690128748550046
H -3.2859662283282014 -1.5399570233973516 2.3453809947382367
H -3.826513665262643 -0.8948673734066991 0.7614056727354155
H -2.380661951588912 -1.9283177961522877 0.8464921933293226
O 1.096251015519504 2.374651829811733 0.7575613579088577
C 2.454611804375488 -1.9428649276534022 -0.025070556442856152
H 2.94497377113039 -2.753137088284166 -0.5488301203497181
H 2.353515709016734 -2.1566531933468056 1.0318127754325506
H 2.9699755417514595 -1.0024541938121072 -0.18653940371685415
H 1.9533967450634346 2.6701646884112105 1.1226469734363171
Rh -0.38369988989116743 0.8122163229700943 -1.072328095140672
I -1.7400826971879522 0.5756923996480187 1.6612298388658309
I 0.4830477920994405 -1.7025542188601128 -0.8605263899491432
O 2.43619775395529 1.2715835814926222 -0.6317294174244222
C 1.2743740640995354 1.5210369203421388 -0.29544934457102634
O -0.36272263214027334 3.577509864617385 -2.200957006574485
C -0.4537223805105067 2.4974690282137466 -1.767756755454365
