13
## STRUCTURE-ID: 64568c3bae910d54bd2c50c3 ; CHARGE = -1; SPIN = 1
I -1.6651637080588195 -2.755551340731519 0.09694593684903824
C -1.8771919003359923 0.6343668640792788 0.09182967224995639
H -2.62992926356112 0.47199753067102784 -0.6892619122253643
H -1.523557871397109 1.6694372443355474 0.062214235755180994
H -2.308686023773681 0.4223581480127364 1.071045850478315
O 0.8467338487740583 0.9956369789655087 -1.0783229967055394
Rh -0.31327350900047524 -0.6223589555073611 -0.34932925117134594
I 2.4174572493482893 -1.8058186794664555 -0.7349471874618657
I 0.4739204646861393 0.5218863162118909 -2.918113138168099
O 0.6971180237057549 -0.27758131741751685 2.34093824088773
C 0.8254583819925012 -0.22716244296428023 1.1411010073068726
O 2.9575337976864695 0.892787366009903 0.527626627067367
C 2.099580509933984 0.0800022878012346 0.4382729151377626
