21
## STRUCTURE-ID: 6456b8d34a88837af9408603 ; CHARGE = 0; SPIN = 1
C -2.5583170386333625 -0.41474664731197514 1.3851276076545118
O -3.5655074676110803 -0.8675381839014883 1.1301879758973663
H 2.8965878972039953 -2.03223119693916 1.3357187351169635
I 2.068146878757704 -0.745676065032959 1.7954806225640225
C -0.656840509899084 -2.3161754071591347 0.5098781707177528
H -0.5797519270684967 -2.5008569983500695 1.5820024554667629
H 0.08680410570059603 -2.9168350624659842 -0.03363745467129154
H -1.648636477190553 -2.6157275532297697 0.17535393056947482
O -1.243177640292487 2.9442000294902164 -0.41118812934104604
C 3.0055666957931053 0.31970733191204304 -1.8542279619243538
H 2.513352544219978 -0.6223530736347314 -2.0807869817391906
H 3.7365851594682074 0.21380478146325385 -1.0590436232989024
H 3.4521700090692433 0.7429257025778253 -2.746892981391533
H -1.945348907933468 3.4777956344877836 -0.8392212596405292
Rh -0.0912917056209741 -0.37475826422095193 0.044949431054086345
I 1.475891459002207 1.7105550510531276 -1.1725047156966852
I -1.6484746890314337 -0.4847391614311392 -2.0686064067747734
O -0.15070702258583735 1.4358211272416435 2.1587501964767344
C -0.5999718028567813 1.204029136947462 1.0721669818300739
O -2.856644380545768 1.8197333535783868 0.6702967529244287
C -1.6904351799456987 2.023065464925628 0.40619665420611645
