9
## STRUCTURE-ID: 64568a5cb93d7667a62eaaa4 ; CHARGE = -2; SPIN = 1
O -1.3057384225718005 1.4863265244231079 0.4329341119978191
H -0.6576279126943262 2.1150548643893625 0.7605534053076619
Rh -0.5474188521266569 -0.46767132586405225 0.21073009425013056
I -2.9656639390751374 -1.215307023923434 -0.6500178954721852
I 0.17279336328524403 -2.8626526321037478 0.9694613689689001
O 2.0721107560188274 0.8523218040384187 1.0442832506379829
C 1.225689213545263 0.2873547101659391 0.3513295309498493
O 1.077867028842896 -0.16287804812537768 -2.1604048211810354
C 0.9279887647756947 -0.032548873000222175 -0.9588690454591242
