12
## STRUCTURE-ID: 645666657b42a72d6067f9d1 ; CHARGE = 0; SPIN = 1
O -1.2804930142083129 0.15710700861293855 -0.13843233042889877
C -2.186550022070777 -0.15276318284425058 0.584799997558171
H 1.055776410516064 0.41336383917889535 0.7742663909577658
H -2.9997801073564947 -0.8126757089680825 0.25375009091949896
H -2.2537138323095958 0.20581704636443662 1.6208473858804306
H -0.9317079592488081 -0.2641178367868831 -2.0625787478894333
O -0.7600301421346002 -0.4961470194771071 -2.9850849901875947
C 2.0544237216069465 0.31468501782722197 1.1792090949052703
H 2.5858417412500696 1.2497245676386994 1.0599625416926692
H 2.581063692966646 -0.4694053548500655 0.6510476351986573
H 1.996939126072532 0.06426185773299578 2.2304644096132704
H 0.1382303849163383 -0.20985023442879738 -3.168251478219817
