12
## STRUCTURE-ID: 645667097d378c37d2630f18 ; CHARGE = 0; SPIN = 1
O -1.229796162649638 0.09768276033596154 -0.9106905679452386
C -1.834401932823561 -0.14650070575606045 0.3440006699733456
H -1.23913888478216 0.38006512203962506 1.0878318372525861
H -1.8403033399241893 -1.2142013915184453 0.580520254591099
H -2.8569344960692744 0.2376269772977584 0.37270879159263165
H -1.7572317173720007 -0.325865645572863 -1.5987585924161911
O 1.5957127309636971 -0.3686545770546767 -0.9047601111498782
C 2.031058354115164 0.26347004412274133 0.27547685761183277
H 1.5391782178562028 -0.15679592368002973 1.159302366124334
H 1.847169288788151 1.3421234589526556 0.24359790335472747
H 3.103678711627336 0.08989825751764419 0.35385404256271236
H 0.6410092302702782 -0.19884837668431074 -1.0030834515519673
