12
## STRUCTURE-ID: 645668dc86c8650e89763450 ; CHARGE = 0; SPIN = 1
O -0.6875937916797 0.5525208248635433 -0.2877013261951632
C -1.6530797984006798 -0.08161626193360466 0.45018021345571807
H -1.6245389582500338 0.23192517722072198 1.5069924866360958
H -1.5623284112933085 -1.179902580733166 0.41282676068466234
H -2.6467391454818037 0.18351976094714553 0.05943976970566989
H 0.11884375723538038 -0.18152878844936404 -1.2013159857102547
O 1.0690726537529203 -0.5524236627323151 -1.401188332475908
C 1.25733461021142 0.19448390522588851 0.4376934726185298
H 0.6964916038330395 -0.23461906543043953 1.2503825925879133
H 1.289880415667466 1.2691357367763878 0.4218045370411182
H 2.215585187642389 -0.2901329736281092 0.3077241091820972
H 1.5270718767629123 0.08863792787331082 -1.9568382975304852
