8
## STRUCTURE-ID: 645663a5c25d4344a20b39db ; CHARGE = 0; SPIN = 1
H -0.44301612729182593 -0.5361021963942199 -2.500333096632326
I -1.690207031521869 0.3214166731591738 1.955975737924188
O 0.03020811075657212 0.1286009569790894 -1.9927325094181516
C 0.30854150837359423 -0.1616926361350769 1.324752814745779
H 0.5127526278397775 -1.1800140143790674 1.6276433878612064
H 0.9839564319417105 0.5302862768256097 1.8098274242933723
H 0.35070750567316117 -0.05940174229695364 0.24741125301223343
H -0.05294302577112522 0.956906682241441 -2.472545011786294
