21
## STRUCTURE-ID: 645677e2d4479c368f530d7a ; CHARGE = -1; SPIN = 1
H -5.54709949656414 -0.3678589435995266 2.19623200239587
I -4.071756920708708 0.20598889248097757 2.260319835545732
O -1.2062933733692989 0.37977644436103736 0.43525489371025283
C -1.4422300412470708 -0.1673687832663965 -3.0700229733836712
H -1.6567740260210653 0.8128054485628166 -3.4744956086244208
H -1.7112198357017403 -0.9222908324431397 -3.7959160430383534
H -2.0247571646639977 -0.31181592711611533 -2.1688902739480334
H -0.7180623655229921 -0.03932018318512636 -0.2987345659207464
O 3.5578928065571356 0.5857810667469305 2.495269283066429
C 1.5601150506635615 -2.165813580806548 -1.4045543155027034
H 0.5381371522547923 -2.4028602823006673 -1.6397033402792578
H 2.231348765912743 -2.949137400117756 -1.1036460513795858
H -0.3828858825839092 -0.2401388819305977 -2.8501599200127297
H 4.114908137187525 1.3345168761274653 2.2747522879369364
Rh 1.4991752925271764 0.5657713023004614 1.7200590821571506
I 1.1278280289209714 -1.8208936598443755 2.698022021846287
I 1.9884956420666882 -0.2699850580514922 -0.7659303592535791
O 1.9049591399408583 3.472301828851686 1.2208206095473433
C 1.7079688719164285 2.3390337443902878 1.3223627029657687
O -1.0123111759304642 1.2326463520779127 2.4573582610233
C -0.4574386056344662 0.7288615767621324 1.491602471148003
