13
## STRUCTURE-ID: 64568c1262a1ef0e60230d6a ; CHARGE = -1; SPIN = 1
I 1.6232304265283162 -0.7793621046608016 -2.234152183112653
C -1.829810386741504 -0.19026430861379842 0.006031095446402902
H -1.7801091868153445 0.21903166645649103 -1.005184327194465
H -2.0237339443089124 0.6316395910316179 0.6994826677324381
H -2.6448611295295867 -0.9127301432683106 0.06430287555675243
O 0.3009604925778962 2.632031958689893 -2.6972799336246323
Rh 1.1036543749415761 0.2265901597723002 0.14972771019141465
I 0.7826354341002831 1.4486866776743015 2.448516914588656
I 0.4044011691848648 2.5479287060941687 -0.8378220496257464
O -0.4733048417625942 -2.020602360400211 0.7735919972997529
C -0.5676849537935276 -0.9040294872480618 0.379908504957445
O 2.9439779489224107 -1.8052579883490532 1.3397206785491504
C 2.160644596696115 -1.0936623671785421 0.9131560492354801
