13
## STRUCTURE-ID: 64566c487d10ad0e525ede0b ; CHARGE = -1; SPIN = 1
O -2.519710444432617 -0.09009560612778242 -0.3963742487316835
C -3.7636921133818544 0.035515671883964976 -0.915782752698433
H -4.216787660623537 1.03270277751602 -0.7069470100197559
H -4.464415112910424 -0.7230924335692467 -0.5008899800964566
H -3.7807221948833227 -0.09183156548566886 -2.021454521868365
H -0.9335923384186889 -0.3899385728786068 0.6362378033178242
Rh 2.3917167940483974 -0.04931127168541667 0.6512786692994521
I 0.014142570558996655 0.2146387517903411 -0.47367054687548227
I 1.3609018497837984 -1.125616983175739 2.767988133248071
O 5.007893413497442 -0.43223750741483663 2.0466757360255605
C 4.023363129550019 -0.2685618849538032 1.4864862062441015
O 3.6992906337884564 1.1782488055343376 -1.740517804195419
C 3.1816114734233265 0.7095798185664492 -0.8330296836494043
