39
## STRUCTURE-ID: 6456fbfea2a894386709292e ; CHARGE = -3; SPIN = 1
I -1.5359701563379382 -1.9057566298481217 -3.9652760705344985
C -0.31897664380966295 -2.8991355549028337 -2.539201946388728
H -0.02541344813065056 -2.1763826529484844 -1.7856359912816213
H 0.5479542511199966 -3.311661981679876 -3.040488947543158
H -0.9102563846452767 -3.6700828348626557 -2.063252517732164
O -3.3780718960123353 -0.6777802500370557 0.7541567679022675
C -1.5474562831759278 1.6371621106621084 2.3761448541684573
H -1.0941208122476247 0.6810184595243464 2.6160285545575737
H -2.6112112923470256 1.6012358395787247 2.5784428239562116
H -1.0726501750329207 2.4587999617017338 2.9051479662469166
H -3.523132419511327 -1.500750372916519 1.2622972274737105
Rh -2.597132331651421 0.614366173019849 -1.6149788500427065
I -2.3582226343835955 2.8497889130615994 -3.02562930539731
I -1.3313714062085533 1.9929390353800687 0.23201446352618715
O -2.5822095357369945 -2.144605610837045 -0.7153279637976101
C -2.8148951046509967 -0.9555332131461527 -0.4736896494834989
O -5.167269578661119 -0.6226035933853018 -2.4567415424676393
C -4.156224737949424 -0.06677331361692272 -2.262420002802991
O 0.46375479007849 -1.2350213480474768 2.6654234000332857
C 2.1961729859344334 1.8803145337184006 3.3336139782782146
H 2.96904085639887 1.6458082527768056 4.058271752422899
H 1.2650266804582206 1.368866253005133 3.555847424342953
H 2.044839158491974 2.954723672137566 3.2494585466315846
H 1.250559070965865 -1.509936546225796 3.1689878078723552
Rh 1.1201135595618603 2.438544750988394 -0.5863144748876258
I 1.2459586726208536 4.66553059439534 0.7795791817627737
I 2.9108669555555196 1.1889097165596985 1.3681294350730133
O -0.03615003758154805 0.34295175092357394 -2.2942527052435913
C 0.9301999599220413 0.7633885867959648 -1.6517469026064504
O 2.5912553307447244 2.9735800701868436 -3.123218232482351
C 2.0998340839863223 2.8926215780596527 -2.0730504390960856
O 2.092208419183856 0.0003233590874978067 -1.772681526434869
H 1.985953641630828 -0.6962100326284085 -2.450061073256834
Rh 2.5391791573124 -1.2962684940294853 0.6182494125214814
I 5.003242966425092 -1.3945758080429793 -0.251207066753946
O -0.2393527193599239 -0.7672384711093999 0.622287759526515
C 0.7326693216254975 -1.097865083401159 1.3017798383671584
O 1.3586696718356237 -4.009296873881207 0.27218614474609565
C 1.9525880635827049 -3.0133949460153566 0.42712786882472625
