12
## STRUCTURE-ID: 64566586d5edc521704609ee ; CHARGE = 0; SPIN = 1
O -1.021933808006928 0.3663842824087722 -0.8897750367153725
C -2.0714181889024723 -0.1743119089495597 -0.6586699659837632
H -3.0313287647831215 0.3087439834123136 -0.8630744020140213
H -2.1294578783063582 -1.1833509454393754 -0.23240221892436141
H 0.5558993502252978 0.02762133389456685 -0.9380477552327486
H -4.22327830196084 1.676666354896979 3.029887433511904
O 1.5731916921501503 -0.04761983571430443 -0.918771454602388
C 2.0116349155488824 -0.3719195305900841 0.42443892425871327
H 1.6462706508065585 0.34940187570738257 1.1530852386175208
H 3.098360491906252 -0.398537145961069 0.43068933811987736
H 1.629067275744921 -1.360681395066796 0.6653116427062847
H 1.9629925655776623 0.8076029314011628 -1.202671743741649
