18
## STRUCTURE-ID: 64567258c099543f2264e48b ; CHARGE = -1; SPIN = 1
I -3.6460046142483256 -0.5616997735953025 -1.7611152354506312
C -2.367346747665758 -0.1853442067585428 -0.09373511489053396
H -2.7083840513015347 -0.7905342400665787 0.7381680140407252
H -2.4257536787205667 0.8710910549230694 0.1392984099533945
H -1.3276424615364069 -0.4667074403220057 -0.3870214642370972
O 2.217390566632472 0.45607973630568877 -2.4652986147161147
C 0.7358918229268313 1.3532660331915487 3.097211042111661
H 1.652780224332631 1.6076492845876071 3.614728858947136
H 0.436234758190639 0.3329656696836047 3.313649125457213
H -0.05687655462096428 2.055372844936793 3.3242727427643315
H 2.218705968846355 0.979941531846231 -3.290656116082662
Rh 0.7754095982870406 -0.780758929844884 -0.35733367111221537
I 1.1344175895575446 1.4776110195365229 0.9397076641933876
I 0.3896060193292807 -2.2697663138361945 1.7992298222068226
O 1.0725593725627076 -2.932352944409888 -2.3985647273585013
C 0.937009540673986 -2.1419322875092806 -1.5546176522957125
O 0.013109041775536326 0.7363899150154932 -2.648276956178361
C 0.9488936049785038 0.25872904631612353 -2.0096461273528177
