15
## STRUCTURE-ID: 6456b6e9afc5232ed53288bb ; CHARGE = -1; SPIN = 1
C -1.2592905941987396 0.2088852190015716 -0.3020901074333711
O -2.132060746772487 -0.11051126031681312 -0.9836611454730964
I -0.7121962672501292 -2.178122258849019 1.84456253613365
C -0.5472955773457803 -0.4227894337889018 3.0805186214801523
H -0.9128374068204237 0.4156807615743494 2.501438068009251
H 0.49820703513999326 -0.28479329872970677 3.3250005279981476
H -1.148625366167747 -0.589100328379156 3.964199424953804
O -0.9008198902954498 2.5383889727961546 -3.577397277380304
Rh 0.7681514725682547 0.30847167828224564 -1.1075943100522228
I 1.8506057681168293 1.7038381041066577 0.8211290047226477
I 0.11425409193801819 2.679947704309732 -2.014658909776562
O 0.0879398206132179 -0.5723441694963453 -3.884542801971871
C 0.3603949115980377 -0.31406763049361763 -2.8020104889440263
O 2.2784007779002127 -2.148278552784416 -0.29274664197838507
C 1.6551719709761978 -1.2352055072327346 -0.5721465002878124
