15
## STRUCTURE-ID: 6456b708600d31179932dfd0 ; CHARGE = -1; SPIN = 1
C -1.6611967475142326 -1.3922685540300197 -0.41706070079183366
O -1.6785317420949226 -2.4775588289168056 -0.7774124178995094
I 3.3148582009846335 -0.21243458530559878 -0.36987117026188937
O -0.034827179266239267 1.9464792291136641 0.8176462214160288
C -1.4320997078407498 1.552583687144837 -1.963345958052959
H -1.2622825041891281 2.612041896307987 -2.0058345336042125
H -2.399002567051772 1.1349355300669892 -1.7531026632561195
H -0.020566152840971783 2.7809644975009107 1.3287279244938945
Rh 0.8366613899414556 -0.7755388447506936 0.5119759033187788
I 0.17548902684824125 0.32999087954910866 -1.9133897403205389
I -0.7825769365447331 -1.5095877611280262 2.5551332916564684
O 1.5629290170463919 -3.675539198050915 0.20583020112557468
C 1.1560353318974737 -2.6032196338796085 0.09210274471584227
O 1.4469556728430506 1.2763332466813886 2.3395881565600423
C 0.7781548977815314 1.01281843969656 1.3490127409004549
