12
## STRUCTURE-ID: 645668817fb0f8083456ede0 ; CHARGE = 0; SPIN = 1
O -0.24984883511681819 -0.186477405870737 0.3418321644853942
C -1.064059144928441 -0.6821410364404248 -0.687664652761558
H -1.740338784987191 -1.361851328852997 -0.16927289790042727
H -0.48982789934938037 -1.2125375683806303 -1.4500318629448812
H -1.6333556921032368 0.1291217319132994 -1.1493498709478376
H -2.8235668857885603 4.240367032747857 -0.6857245186473335
O 0.7519836848689608 0.7430458589285498 -0.14845994671815557
C 1.5758091002088164 -0.7332374010795979 0.8755997332292645
H 1.2799000452262488 -0.6087646355701217 1.910501054866182
H 2.50830430562209 -0.26160059133538194 0.5786675133609428
H 1.3916142478364872 -1.7061893686030745 0.432890472554986
H 0.49338585851104916 1.6402647125432561 0.1510128114234381
