12
## STRUCTURE-ID: 64566db477cfbc19bd304575 ; CHARGE = -1; SPIN = 1
Rh -1.6482073035773173 -0.03281888111209984 -0.008012671659147562
I -2.9592354068503925 -1.2591557172269863 -1.969837282845053
I -2.912071147759078 -1.3263195471648717 1.9414485428660964
O -0.5255168725568413 1.669077369178323 2.1728429085403214
C -0.9469039867049643 1.0108375685385507 1.324639047045881
O -0.5861058666162435 1.7442516347421457 -2.1591794702294185
C -0.9820936538076152 1.0561250275083216 -1.3226473019940248
I 0.8387568810642613 -2.0191410518781683 -0.06783045936736945
C 2.2678280997430065 -0.3973431351036226 0.012859813154582815
H 3.2591091295373507 -0.8323568668536548 -0.0012838810698080057
H 2.0925155106226705 0.15337324985340925 0.9296684034533034
H 2.101924616905165 0.2334703495186526 -0.8526676478953618
