12
## STRUCTURE-ID: 6456681d29d1de7ca77b925e ; CHARGE = 0; SPIN = 1
O -1.6443026241274563 0.4294064627853536 -0.7969805901157935
C -2.0350221970052247 0.2664924591503825 0.5457784154814648
H -1.402999225960366 0.8546158072614268 1.2203518993683804
H -1.9981758815168624 -0.7844627296388417 0.8492300295223605
H -3.0613490426254732 0.6234796283399416 0.6252234580136011
H -0.7461674402065082 0.06586364592457288 -0.8943863411522658
O 0.9962753239872439 -0.6881143141010114 -0.8122638685010796
C 1.9395535666293897 -0.07713449931479627 0.04502111779500694
H 2.760116316853829 -0.7591041538193424 0.28160076255770994
H 1.4127052083187688 0.1731817847952979 0.9639918511645407
H 2.343027917139001 0.8388742169041951 -0.395306730363572
H 1.4363380785136648 -0.9430983082871756 -1.6322600037703598
