12
## STRUCTURE-ID: 6456669db4610644dc37419e ; CHARGE = 0; SPIN = 1
O -2.4650870344201734 -0.7546989955973759 -0.9398225795758459
C -2.074224120587074 -0.03149813729990556 0.20995419390031653
H -2.288136292678017 -0.6210370068049014 1.1135897442291176
H -2.7127052706424406 0.855654209431633 0.2213095189740162
H 0.03859751022101677 -0.50242460117892 0.24417855181033485
H -1.8813255244449547 -1.5179469346401588 -1.034049392247062
O 3.94619680098661 -0.11345661758312713 -0.000696288653804972
C -0.604700934449047 0.3733163035509851 0.18783388262029774
H -0.3879225775405711 1.0164591183362985 1.0353446760115947
H 3.9810163562494907 0.8371535099118657 -0.1357160500290818
H -0.3793250145495812 0.9124721546169141 -0.7289828052828711
H 4.827616101854739 -0.4539930027433039 -0.17294345175701373
