12
## STRUCTURE-ID: 645688459d1715564b30456d ; CHARGE = -1; SPIN = 1
Rh -0.43421951894273936 0.5590221494562311 -0.22366906757804747
I -0.5636118344731442 3.001323620788641 -1.258306703224445
I -1.5702125740448114 1.246126293193165 2.02429392336545
O 0.023174915317376234 -2.2682002494381215 0.8073270900162152
C -0.4985955338607963 -1.3714632354673741 0.20794406504862523
O -2.606666043591109 -1.0152211346585935 -1.108561863707846
C -1.4656440390384933 -1.1815145843206418 -0.7885615418978321
I 0.22610772116140446 -0.6911880427882695 -2.5742034684654893
C 1.4792782696863251 0.4272674911637377 0.6252246281732521
H 1.4473282894218966 -0.007343546634261702 1.6243204184588136
H 1.824950347865145 1.465253415591152 0.6762544202434445
H 2.138110000498969 -0.1640621768856665 -0.012061900432156828
