14
## STRUCTURE-ID: 64567b4ce5043821614d91e0 ; CHARGE = 0; SPIN = 1
H -3.770326996940762 1.743399606128015 0.13647926955027326
I -3.7855476896825566 0.4130015834654099 -0.7259801841620254
C -1.2386690285316777 0.19700282635301608 -0.38365468061300384
H -1.115680205425192 1.224645545900813 -0.6996736740974154
H -1.39275868377105 -0.047385070230589674 0.6616845480749823
H -1.153035876588998 -0.5982178072911792 -1.1130718630970173
O 1.6827329871031393 -2.8659277148261277 2.44240975660946
Rh 1.2391990434040325 0.1113560648939682 0.2313007213388524
I 0.8090693138442846 2.2541308853966604 1.6229449754467946
I 1.2735959523226488 -1.057474372045452 2.542530696281736
O 2.0083217291509996 -2.596556347062204 -0.7728759195630869
C 1.6722376081880193 -1.5504237453348022 -0.4743907090640639
O 2.0960456692814526 1.68351886396436 -2.170247228672279
C 1.6748161776456632 1.088929680688111 -1.2974557080332245
