15
## STRUCTURE-ID: 6456b7004dddfb55fa1aaa13 ; CHARGE = -1; SPIN = 1
C -1.683106700695301 -0.017697386498050128 0.8925821889829405
O -2.184888761894125 0.4274856582520494 1.8364429251717773
I -0.4295713343812663 1.6019089073804138 -0.8239683594303798
C 0.0947476003706647 3.3061658731313037 -1.8062427684778466
H 0.2670525812504982 4.2071227571115 -1.2430937824406625
H 0.2158030232734705 3.28379576138159 -2.8755142159328697
O -0.3435390889495819 -1.581746856752841 -1.4570250092809456
H -0.4638872620966141 -2.2575441832240526 -2.1560133426069004
Rh 0.683537299568578 -0.6797830186975178 0.9864020950225049
I 1.28695145605346 1.0053782701310592 3.006410654047271
I 2.7455005359644895 0.02791129156970585 -0.48696760299909564
O 0.7567982727780983 -3.18069863028595 -0.35156038874336637
C 0.35303486636267895 -2.0289129933821317 -0.4082741620725165
O -0.9188241253314837 -2.42212995448627 2.801277741840627
C -0.3796083622734924 -1.6912554956307981 2.085544026919344
