18
## STRUCTURE-ID: 64568a8a75e5e43ccd5fdab4 ; CHARGE = -1; SPIN = 1
I -1.6622892752037368 1.7759514979359015 0.21502453328392152
C -1.7625735070409296 -1.5737388209766785 0.7589184405083358
H -1.5258284891156793 -2.6408016662164613 0.8100527616837211
H -2.5884103287202764 -1.441144748135119 0.05385638907762846
H -2.0972581569963658 -1.2472792031251845 1.7442912154767394
O -0.3493378370228016 -0.22679265869359028 2.9590684697734218
C 1.1805150732127085 2.3398549594177025 -2.625780319639375
H 0.9460177101659771 1.6145972518394738 -3.3977468497645433
H 1.913992053416614 3.0610300292823682 -2.9642411483835622
H 0.27941420203513756 2.828662249938488 -2.26826818901182
H 0.06505469985179202 0.035555291439566816 3.8062887284554474
Rh -0.15305633385572695 -0.40690788796356225 0.07378859278655905
I -0.7664950680236866 -1.0268751171110524 -2.5567844078361377
I 2.0520809361818593 1.2650343768925763 -0.9439600303043685
O 1.5953913208042974 0.415587553769812 2.1102003724383858
C 0.46612715222006623 -0.012678036450190174 1.9242484603529868
O 1.5243621443812416 -2.8562581519624617 0.18150326922234433
C 0.8822937037093963 -1.9037969198816607 0.11953971188030982
