12
## STRUCTURE-ID: 645667db0059a03e710b535b ; CHARGE = 0; SPIN = 1
O -2.303190803772099 -1.5314537392316987 0.05507290892044268
C 0.09122135086852551 1.3068144794783885 0.5480848362898325
H 0.46669782517298825 1.0774803080163704 1.5513910529715915
H 0.7395865508958528 2.060099015695616 0.08786269473357536
H -0.923806399654786 1.6907448415681114 0.6173297746479429
H -2.7467018649336636 -1.3879420534697322 -0.7844034860406932
O 0.032261753528482574 0.14235663725291103 -0.24727027638574955
C 1.2938370965969217 -0.4654370689956834 -0.4228491315008974
H 1.7193933551044678 -0.7697783302786821 0.5396952972566119
H 1.9896790187761424 0.21893582490983166 -0.9199782682285322
H 1.135377487761326 -1.3425187416734707 -1.0459260848717793
H -1.494355370344163 -0.9993011732719781 0.020990682207667196
