12
## STRUCTURE-ID: 645664ced14327467340f1fb ; CHARGE = 0; SPIN = 1
O -0.2964140466068117 -1.8548287499952363 -2.012059816975715
C -1.0047106759769324 0.9523692887560667 0.41296410167469194
H -0.7211415300685795 1.9229144162117922 0.8340511037244513
H -1.494172633398181 0.3556542193610428 1.190581229402731
H -1.6890091008100443 1.0999238216467506 -0.4192445747204022
H 0.06124406500159101 -1.4920859040689884 -2.826095233324611
O 0.12468896233878349 0.28062694374310965 -0.10219075613112429
C 1.1052618947342956 0.02807030088249192 0.881267949787093
H 0.7038162439113279 -0.6041283995220799 1.6809094053033518
H 1.470012637586969 0.9647455761524667 1.3163943786593073
H 1.9233877382610232 -0.48764895215668785 0.3838725728326853
H -0.18296355497344155 -1.1656125610107506 -1.3404503602324993
