12
## STRUCTURE-ID: 64566dc7cfd3421e77242a2d ; CHARGE = -1; SPIN = 1
Rh -0.5423452803378266 -0.4359251621779309 -0.006086498735826292
I -0.23120050978860876 -1.8176996622480919 -2.2816703424287903
I -2.5556958256025872 -2.2887281135154285 1.253801144736049
O -1.1637556506055347 1.147473778651496 2.4477207978946534
C -0.8841275367181886 0.5793862456716034 1.4912538600548053
O -2.594934973240401 0.9822752511004136 -1.6725450398027497
C -1.7617248417383868 0.520399544471043 -1.033355904684356
I 1.5912553170244967 -1.5796125636185796 1.1687789559276298
C 1.916620237938088 0.551447322890657 -0.24874404030770653
H 2.936172381720613 0.22847582777933031 -0.3895669453826861
H 1.8314956861018306 1.3449405983027434 0.4808712379005274
H 1.4582409952465074 0.7675669326927382 -1.2104572251715464
