12
## STRUCTURE-ID: 6456691bc83a4743277ccc10 ; CHARGE = 0; SPIN = 1
O -0.5891231677838394 -0.7021957469633402 0.14224246729452628
C -1.6672378199217857 -0.052591355697049355 -0.40024244437855494
H -1.7326850746852822 1.0006812004498635 -0.08051969759984705
H -2.594367851995638 -0.5541267285065239 -0.08518374306248884
H -1.6415507645105207 -0.0783992931169895 -1.5023585651418552
H 0.1479140384401584 -0.11253656333174869 1.2074021774344563
O 1.044840132051415 0.3315596410798767 1.4870602059065519
C 1.2505782423642364 0.11082601494401283 -0.48356545996016076
H 1.4333866264215132 -0.9157232698914615 -0.746206879955436
H 2.136994377697436 0.6815927753450438 -0.24166169372315427
H 0.5981710098591921 0.6453369873591982 -1.1527691782127485
H 1.6130802520631313 -0.354423661670897 1.855802811398718
