12
## STRUCTURE-ID: 6456670dec3e444acc1f8bdb ; CHARGE = 0; SPIN = 1
O -0.9385517817421593 0.003403774284656924 -1.718857456531055
C -0.5322411476784967 0.027816835763881987 -0.4351495762482545
H -0.6970062179693673 1.0268825411426987 -0.018637344725932488
H -0.9615174176955169 -0.7361943534262657 0.218967417003717
H -4.983168506785323 0.18860212320424005 1.327089652087708
H -1.139498533572021 -0.8889103764078947 -2.038263851061079
O 0.9532718975147586 -0.24373371326894985 -0.4269704028878794
C 1.6115342952281677 0.04403706844915368 0.8290530722462304
H 1.169988399765959 -0.5945269628882411 1.5920607254971368
H 1.4954859660184676 1.0893437807158706 1.114957809056042
H 2.663323115718218 -0.20937033291697674 0.7092330407152442
H 1.3583799311973257 0.2926496153478276 -1.1534830851518814
