12
## STRUCTURE-ID: 64566731dc07f64f0b071028 ; CHARGE = 0; SPIN = 1
O -1.2475167403811924 0.8771321692838597 0.15723601487637812
C -1.5612170439032718 -0.20630670078845015 1.0096376405749738
H -2.641861291271973 -0.3262210892245039 1.1181618697240026
H -1.1081121039488753 -0.07908970359227299 1.9968975360389045
H -1.1529196381743094 -1.1010771044307528 0.5432883051486547
H -1.633107557434575 1.683912310893622 0.5200267342154338
O 1.4967825166939144 0.9172343482315849 -0.6627234709061125
C 1.758117169431018 -0.4250898292677037 -0.9969403677007991
H 2.8062750378286574 -0.48291722049501595 -1.288363930621155
H 1.1363094738389432 -0.7573811249267132 -1.8345079533911053
H 1.5914619536550794 -1.0896866783519759 -0.14244340737005284
H 0.5557882236665267 0.9894906226682931 -0.4202689705891184
