13
## STRUCTURE-ID: 645673b2ce26926777530d54 ; CHARGE = -1; SPIN = 1
I -1.906268766474994 1.1615146294517718 0.6201352823978266
C -2.4878286877700213 -0.5226277241054461 -0.5893649218723936
H -3.356558480209853 -0.23341271622384913 -1.16553281011525
H -2.6984212921140664 -1.349495590162141 0.07821538153639118
H -1.6454922887974763 -0.7535876238290135 -1.2328215231093038
O 0.6294999179287325 -0.40577337270206026 -1.4690610599120941
Rh 1.1391119256089002 0.1559321661257706 0.5164004066471145
I 0.3939068136016456 -2.185228890554982 1.3958828661979512
I 2.11944288505082 -1.4696452218349165 -2.1861860029580824
O 2.235618436541268 2.4368286265398726 -1.0621938112907239
C 1.828483842967902 1.629752711828455 -0.3504380688705017
O 2.060493397742768 0.9037551415041526 3.2501245505577945
C 1.6880122959243276 0.631987863962399 2.1948397107912467
