13
## STRUCTURE-ID: 6456889e99d6c23db515986d ; CHARGE = 0; SPIN = 1
I -1.5419198909907088 0.44837759829716867 -2.277655003900707
C -1.2382685607457582 -0.4112683616561157 0.7971432120796201
H -0.788391256818255 -0.5308727662617067 1.7849680647133204
H -1.623315920254064 -1.3638642582638973 0.4347560493674289
H -2.054480137692038 0.30847565321018944 0.8380273291523185
H -0.9336807887806294 3.4857109088741947 0.940216071991804
Rh 0.33648257319794056 0.30424880761910844 -0.46273783857210005
I 0.2268967602628096 2.589752831825122 1.5391799267495596
I 2.4263275399714863 1.5285652261611336 -1.5735310995713652
O 1.290177651415173 -1.9313300079813223 -2.2335393353352715
C 1.1041085535375106 -1.3650982866286117 -1.2100477025924101
O 1.561185750196322 -1.7218944437658037 1.2462456975883727
C 1.234877726700212 -1.3408029014294611 0.17697462832943592
