18
## STRUCTURE-ID: 6456898d8a4c071c47662c6b ; CHARGE = -1; SPIN = 3
I 0.610651495516987 -1.3923698213491786 -4.610974451123963
C -2.1214265494466615 0.834585184795299 0.854187127779532
H -2.1755220340530093 0.12725201267919178 0.02737444382456525
H -2.941300933068598 1.5406535711459703 0.7767230908076087
H -2.1708752477596627 0.27310533355388145 1.7822987099875445
O 0.20995492340962618 0.7939257890964154 1.1382752498602104
C 1.1726504566159563 -2.2382984327704274 1.38472400472024
H 1.0031830874113496 -3.1837731589492564 1.8851191128588962
H 0.7925581986431238 -1.3991820716138963 1.9542867041361618
H 2.218424500468663 -2.0982637257980885 1.1359734219387239
H 1.0620933638126695 1.2665823828251406 1.108967638392535
Rh 0.9721303586074208 -0.33184504067404996 -2.181335178455755
I 3.25760322988073 0.3568609288582209 -1.0060547639336685
I 0.05557549054586447 -2.295594572722235 -0.4861661560484022
O -0.6719759299546464 2.715637315308765 0.4316770186917215
C -0.8140268353788555 1.5622730853076103 0.7735869894122077
O -0.3071567765953173 2.241008414014582 -2.762650009046722
C -0.1525407986555823 1.2274428062920462 -2.2060129538014683
