18
## STRUCTURE-ID: 645671dc15b3d26a98068a0a ; CHARGE = -1; SPIN = 1
I -1.258486550221851 -1.1875463509782451 3.19506322216263
C -2.668580455990273 0.5363300635338829 0.40148748396783385
H -2.8198946160611817 1.5527272681134767 0.7741959476420589
H -2.9602714335436673 0.5091231231575608 -0.6488911810724756
H -3.323741192367673 -0.13708611507979773 0.9618694161440049
O -1.0002548345275033 1.2329580999114842 -1.8537809126022464
C 3.362412671240308 -1.34971002080483 -0.37619593811774255
H 3.183793801864752 -0.4889356481555603 -1.009171977617113
H 3.1558887390704347 -2.2711110875534724 -0.9080162410545473
H 4.361161283954996 -1.3455109812777415 0.04240560867723283
H -0.5928665852317969 1.5634990761629537 -2.6809612621019925
Rh -0.6996614932746011 -0.15812320894112786 0.6574454790453185
I 1.9624350086617426 -1.219167328258645 1.2700496544772781
I -1.2942513372277045 -2.365095273228171 -0.7140745554043065
O -0.06044351895515219 2.465332187915406 1.8939032087216197
C -0.30557081005247677 1.4380539308204825 1.4394528354026193
O 1.0682547154344233 0.5904086180191135 -1.3799976203107427
C -0.10992339277276302 0.6338536466432573 -1.0647831679594044
