13
## STRUCTURE-ID: 64568c9e51b03e278a1fea6d ; CHARGE = -1; SPIN = 1
I -1.0265456897234289 2.0976786443188824 -1.2700003456030824
C -1.1088451875592649 -0.779996467646953 0.7582590966736215
H -1.0955947415383056 -0.6345618704207193 1.8414775184052063
H -0.9765801170769832 -1.8362435037468225 0.5195886894222579
H -2.042054482801509 -0.4068656364383166 0.33527361524216603
O 0.6201376221666536 1.593823504403631 1.5973807863222604
Rh 0.49654635257917024 0.3272930869057404 -0.009559374708194136
I 2.226111644626511 -1.2427654628423161 1.1874804326974755
I -0.7877767672409418 2.358886833751954 2.6786805453551636
O 2.362020667882644 0.7499350926367857 -1.9206568816444298
C 1.3534462179264564 0.11752648846296532 -1.8794703314112446
O -0.35891641844359884 -1.5864815365532543 -2.1831367842631924
C 0.3380508992025876 -0.7582291728315904 -1.6553169664879812
