13
## STRUCTURE-ID: 645673ad9081dd41d1068a16 ; CHARGE = -1; SPIN = 1
I -2.6512778862345585 1.600366625507034 0.9106490520618515
C -1.6781560645839717 -0.8415603696066415 -0.3767433994002414
H -2.200185576614106 -1.4030287464472018 0.39599372493364
H -0.88676507045811 -1.555679187687398 -0.9407148235385256
H -2.383228936599966 -0.4757180154944334 -1.1151570499270316
O 2.378138052468059 1.7080269989324655 2.0828673985204333
Rh 0.3194987273445254 -0.4407435124745742 -0.2725469383943918
I 0.6922638414536829 -2.2493749414954425 1.6316252031138085
I 0.5799333999202022 1.5727953723220727 1.625993779887373
O 0.10946154993222768 1.7096298422174128 -2.3302712448572804
C 0.15411963820318453 0.846344731690295 -1.589887875187711
O 3.3153851218082377 -0.1340812928279685 0.16614399650266684
C 2.250813203360626 -0.33697750463562365 -0.18795182371465138
