12
## STRUCTURE-ID: 6456667cf55af7372b2c50cb ; CHARGE = 0; SPIN = 1
O -0.5726831374618844 0.27432426755741834 -1.2354761946879753
C -1.2587012768484707 0.2655817319905739 -0.003908957586368711
H -1.189017479001609 1.2570563479334749 0.4705000401000012
H -1.2770047077105648 -0.744732560244773 1.8962120926078891
H -2.308668944975694 0.0784471166443757 -0.24940966597955697
H 0.38239729038416054 0.3363063000451164 -1.0396012930206486
O 2.198001727527239 0.4688653106077032 -0.6253505280063979
C -0.7371739748103149 -0.7984738880311449 0.9554729127712561
H -0.8684567308083401 -1.7886696198945824 0.52623154168742
H 2.7335340191781246 -0.06446346248727429 -1.2192643911711996
H 0.3221923535882984 -0.6371181900604003 1.1436248831724183
H 2.5755808609390627 1.3528766459395065 -0.6190304398868466
