12
## STRUCTURE-ID: 645666528f159a035f1fea70 ; CHARGE = 0; SPIN = 1
O -1.7610022503342497 0.8059310227731021 0.04488195492871656
C -1.4149441332902533 -0.5540928110242249 -0.007478045225625953
H -0.4043575192861729 -0.6941724998571468 -0.4274992206853809
H -2.110484666045292 -1.1349231765115781 -0.617928549209899
H -1.4370904687070523 -0.9286556818540781 1.013811929645433
H -1.89810757210357 1.1385098481963956 -0.8497954666864438
O 2.0602159456075824 0.2692986514935336 -0.4442794104822933
C 1.319627008176139 0.3308564100291031 0.6315618963507713
H 1.2841938234689627 -0.528318240509498 1.3110531221933217
H 0.5207468178926157 1.078949099113005 0.7157441201430557
H 2.485294230213473 0.857753239560761 0.5068097190828449
H 1.3559087844078181 -0.6411358614094128 -1.8768820500544847
