12
## STRUCTURE-ID: 645668aab83501460e111dfb ; CHARGE = 0; SPIN = 1
O -1.059406174423645 -0.5131431843932955 -0.3095249730249673
C -1.9596775321807745 0.18827675698115695 0.5722791232728818
H -2.1470659497078626 1.2095988338812327 0.24170571630754822
H -1.527770966570224 0.19002664800550484 1.5728259966984288
H -2.8799648232640354 -0.3980179970792368 0.5731901689439804
H -1.395711585707378 -0.4819321638105717 -1.247447967244236
O 0.24746136753755466 0.18332799846520875 -0.43197041746440773
C 1.2365453508992172 -0.45911615169893594 0.313770404858358
H 1.053174179223136 -0.4006523381423041 1.3888898354183816
H 2.123606376105908 0.12682944187893186 0.06425088496475823
H 1.3915143304537063 -1.4897857043520488 -0.011340554801149195
H 4.917295427634412 1.8445878602643586 -2.726628217929578
