12
## STRUCTURE-ID: 6456661f4b17600ada1dbeb1 ; CHARGE = 0; SPIN = 1
O 0.9883565988697822 -2.576572853631326 -1.4458259583814541
C -2.1726931888242986 1.0500995948289775 0.32843229329842044
H -2.74910159419542 0.13781156986259832 0.4091743955820886
H -2.5651604862000474 1.6540522915827514 -0.47916006347690565
H -2.2408157355788902 1.6016633801792923 1.2570519528243402
H 0.18198871288062465 -2.5067519962141405 -1.9627116945987197
O 1.2815432593780747 -0.0018069592290243905 -0.023664107070542728
C 2.1610394686044816 0.3954667569429655 0.6895076926344154
H 2.1448872829434884 1.4022063708921766 1.1283969908865423
H 3.0317813457854155 -0.22358011215180276 0.9445877988530254
H -1.1380642355628612 0.8053380903649174 0.12692657210414945
H 1.0762385718996492 -1.737926133427384 -0.972715872655355
