15
## STRUCTURE-ID: 64568830b285cd48a667f9bd ; CHARGE = -1; SPIN = 1
Rh -1.5417598022334527 -0.47753732858032766 -0.6417904953404422
I -2.073503015228048 -1.077316313076328 -3.161684688581845
I -0.951160086092718 -2.9492161486887087 0.04523661353201652
O -1.3621445205544271 0.2577951398342076 2.2468438820748586
C -1.267578429754737 0.061888478017633544 1.1116204927653994
O -2.583874533549226 2.2859466881982646 -1.0414470143019827
C -2.177585546752795 1.2103826499298869 -0.9419243324752962
H 0.6041261697709619 1.590950217939542 -1.68030045191413
I 1.3061925482973933 0.2079634422491192 -1.10518987165748
O 0.38523753394717275 1.398285306942037 0.5657682589803894
C 2.081786387876164 -0.8960896107786646 0.6395813207497887
H 2.877288470090894 -0.30780097629954434 1.0789214133699123
H 2.460432928691576 -1.8248271296855494 0.22771054173807367
H 1.2866350750466102 -1.086842591878201 1.3486224749913225
H 0.9559068204446566 1.6064181758766427 1.3080318560694038
