12
## STRUCTURE-ID: 64566500644dd80e4632dfde ; CHARGE = 0; SPIN = 1
O -0.47683174568974696 1.4473800036401678 -1.5493797515124912
C -1.55115099100519 -0.2954578643033815 1.350764635488672
H -2.579016730581262 -0.11188476066987736 1.6351304812654504
H -0.9013598691632217 -0.035472704992346914 2.1766232182790564
H -1.4307212191935998 -1.3430015646992621 1.105738203028715
H -0.621356114763222 1.8354466479385927 -2.415459733162923
O 2.0091325344976596 -0.05457114095206291 -1.2928558415808113
C 2.1200449682098768 -0.7114153561483708 -0.294177649884868
H 3.0216324242348467 -1.3024561898089138 -0.08415569221029696
H -1.3069886212555395 0.31219508644807364 0.48842388519462376
H 1.326802399252107 -0.7581539539743721 0.4640493937775669
H 0.3898129654573011 1.0173917975217428 -1.5847011486826996
