12
## STRUCTURE-ID: 64567b0592ab54797509291d ; CHARGE = 0; SPIN = 1
C -1.4405191562662567 -0.037948111897446436 0.5630807364902785
H -1.3570413951086557 -0.33167745002903637 1.6078605756182114
H -2.09304688112737 -0.7280746559825614 0.029699679125582506
H -1.8247274320116886 0.9822126484269745 0.4796829275211936
O 0.48588723974041226 2.089521544958961 -0.5373182668691234
Rh 0.45719283234399355 0.026595035749025595 -0.40005497983235516
I -0.6194830280081887 -0.14365626250220837 -2.791077790639734
I 2.2146719340978143 1.9786980264092153 -1.3990559581949655
O 1.7724063855686285 0.6489258824232311 2.2114208599929257
C 1.264702333462675 0.3102263547917816 1.2602298857717937
O 0.5817086433598763 -2.961058733015402 -0.5636965766255838
C 0.5582485239487581 -1.8337642793325668 -0.46077109235817365
