18
## STRUCTURE-ID: 64568a6b724d0117ae4b6a5a ; CHARGE = -1; SPIN = 1
I -1.3768027345404588 -3.3223914672043517 -2.036614225823453
C -0.6606686686516007 2.5493286288294783 1.4376802901902295
H -0.18469984405081386 2.3837255985076413 2.4087757597801573
H -1.6530293179270297 2.9751755791420855 1.6151155755560267
H -0.06518634877498203 3.2904444855957102 0.8840335069064619
O 1.3820662697460395 0.6150507171418208 -1.4280367965689056
C 1.645941270127287 -2.1843313601279553 -1.1541624035848956
H 1.7750247574071183 -2.914342188859901 -1.9469953758328833
H 1.427755994426562 -2.661013365236884 -0.20283800340694264
H 2.4990778300472107 -1.5241799341831608 -1.0564171498007926
H 1.4031391281019892 1.173962144424426 -2.2065155087871524
Rh -0.7817473778249397 0.8642838140262911 0.232032222607719
I -1.969928674430733 2.0598277054627636 -1.8194221576610339
I 0.014960751230933537 -0.8966165457797568 -1.644918302839662
O -2.6285668229320986 -0.49962844783755633 2.0300969178322426
C -1.510751397023612 -0.3240620516362156 1.5959890258675813
O 0.8286163130781639 -1.1403551006668564 1.7825750630137853
C -0.1452011280090247 -0.44487821159756497 1.509621562551498
