21
## STRUCTURE-ID: 645675bf6434bb3254092914 ; CHARGE = -1; SPIN = 1
H -3.703076730789512 1.8822975392458683 1.7290326937888365
I -3.4960165686055573 0.7002252122385275 0.4899579775195795
O -1.939715098646103 0.26580254278784693 1.7792095989028112
C -2.489903138665377 -0.9851273963513826 -0.46082537960247355
H -1.4058750767687085 -0.7741466405713398 -0.3445113987799085
H -2.801376653669697 -1.034980485639031 -1.5023876155690277
H -2.7178039508409824 -1.9109498329411827 0.056029469050528156
H -2.103782323957393 0.6222937936722479 2.6549122084441468
O 2.8607718124995203 0.02136825351060157 -1.1163503808405928
C 1.902057040541473 1.2416601809642005 1.9171099469254738
H 1.079200969695098 1.9456392317092555 1.9519613726293643
H 2.483608478122379 1.3838148885558719 1.0145199453707223
H 2.5197010561702746 1.3033840483107204 2.8033865881447793
H 3.708405090413533 0.18032575694479142 -1.5750879224011958
Rh 0.1351990188448253 -0.5011688917051926 -1.1315758473957278
I -0.4013889474658259 2.042492752949629 -0.9933059076895281
I 1.0753762540026348 -0.7458514596407374 1.8280727474183671
O 2.1082597737194897 -0.07884434566214205 -3.2088234804035873
C 1.8407125177830908 -0.15294916498167235 -2.0131659605022185
O 0.8519498532925095 -3.2057204211130856 -2.1743750974905036
C 0.4936966243243173 -2.199565562283915 -1.7037835575200728
