12
## STRUCTURE-ID: 645668fc4c360d5ec873b9e0 ; CHARGE = 0; SPIN = 1
O -0.5346322711639936 -0.5589112319291957 -0.5521743128145166
C -0.9438248993147662 0.10874159505352352 0.6435074349025667
H -1.5970372754893174 -0.5463318540639395 1.213527487854699
H -1.4127881474405897 1.0589381688873631 0.37924600493989197
H -0.026482856133752 0.5130194135891366 1.398216882980301
H 0.07326049575170497 -1.2687485447009264 -0.23404359548707526
O 0.8231383509889665 -0.2556907963782133 1.5510659514686977
C 0.21093792515930468 0.29196753229627626 -1.4578269381105318
H -0.4488217176692487 1.0968653705097207 -1.7768283140452434
H 0.49594789098969827 -0.3118058170671677 -2.316956307918365
H 1.096177849795836 0.6946289556330489 -0.9656645985788205
H 2.264124654526151 -0.8226727918296273 2.117930304808412
