15
## STRUCTURE-ID: 64566e23e20e00010c4d3030 ; CHARGE = -1; SPIN = 1
Rh -0.5203292846445771 -0.04024590882579804 0.06758772838581166
I -1.6983776771352894 1.9317081307492436 -1.2702420680115722
I -2.669361350573675 -0.5059108743487581 1.738993346118309
O 0.5476332988809155 -2.545259809334254 1.2747179590592854
C 0.19115972007303184 -1.5504838612492058 0.8196924198389101
O -1.8038134850134218 -1.8596098323162584 -1.7179444070573142
C -0.8211946053798872 -1.1735110308607277 -1.5384955895673706
H 2.205853403120285 0.39441677653877594 -1.8223318413738991
I 1.8275771277264554 1.0357677152505171 -0.3324051364998638
O 0.182915873363746 -1.1087530557045049 -2.415320136744382
C 0.6846331489787542 1.652948695522375 1.8706580733990037
H 0.7516826919376393 0.8592674980941866 2.6129034330450773
H -0.3056772058447392 2.1100929003491466 1.8561349573507608
H 1.4148041196421244 2.4218391803049855 2.088641868106386
H 0.012494224868625585 -1.6222665241697476 -3.2325906060491856
