13
## STRUCTURE-ID: 6456891ebc5f043c17111dea ; CHARGE = -1; SPIN = 1
I -2.0889440395119747 0.7510141232124581 -2.7954334307911592
O 0.625827511879941 3.2000639628081844 0.6744889204912953
C 1.2960664080316748 -1.8005347601758743 0.3226188222547075
H 2.2702819981366376 -2.2403646317246246 0.18908355781732214
H 0.7864166941839004 -1.9960117369766948 1.2449860366107928
H 1.3252229968477898 3.7601161133491114 0.32928382740982415
Rh -1.1742329905335156 -0.07861122004431066 -0.36725113096946316
I -2.4407412770625907 -2.364769677500308 -0.2483251842812128
I -0.41536869973954127 2.3697456117227103 -0.8489799314316339
O -0.9457969308030789 0.19695860082548958 2.5713119695239457
C -1.0079292353667206 0.018531119642456937 1.4334154405005202
O 0.9531941624128143 -0.6990979962984569 -1.8157824188303286
C 0.8160034015246733 -1.117039508840158 -0.6894164783045874
