12
## STRUCTURE-ID: 6456881b393dfd1d5c662c5a ; CHARGE = -1; SPIN = 1
Rh -0.9267853882153463 0.6652751154787709 -0.017323482008497943
I -0.5203364303933768 -0.664453995526877 -2.4460141620328897
I -1.2316086605802343 -1.5828628494288577 1.627061935344523
O -1.420319324019119 3.5780078411234966 0.5532404046496598
C -1.1360149170669016 2.473593297982789 0.35749309990231676
O -3.8377997718439243 0.4584202949861648 -0.5749943708834524
C -2.7133667640452614 0.5802273264014856 -0.3508182376445606
I 1.7422787322468845 0.7095207167697001 0.4585491635531924
C 2.4356731799097178 -1.3274396650409013 0.13439879663300847
H 3.5078887911452816 -1.3275644995249445 0.29180392555378215
H 2.1770634884743263 -1.6005711887162022 -0.8842862509708759
H 1.923327064387951 -1.962152394504632 0.8508891779038078
