12
## STRUCTURE-ID: 64568ee543dd6a7dc44975b3 ; CHARGE = 0; SPIN = 1
C -1.1785519503856445 0.10310142906301073 0.8968285186285958
H -1.2446237446805173 -0.6345425642547247 1.6958479686051824
H -1.948971640265972 -0.14400288950849174 0.1454862286020007
H -1.3856746305030083 1.1107706055282087 1.2629403396804704
O 0.3673939832359456 2.0253356251398746 -0.8844716273503914
Rh 0.4076093387170151 -0.01826579349907149 -0.6171754457529608
I -0.4887779701203617 -0.38379991131353347 -3.084316545626893
I 2.189642775346341 1.9202476498712266 -1.5045028442551693
O 1.1646712671986654 0.5872071409666213 2.205954064318138
C 0.7412988060819821 0.3043558613444117 1.1850667547915565
O 0.7530237147617485 -2.9966176975599184 -0.6950591573148936
C 0.622960050613806 -1.8737894557776684 -0.6065982543256216
