12
## STRUCTURE-ID: 645667a9a9604d4a5c1aaa10 ; CHARGE = 0; SPIN = 1
O -0.798659096572315 1.4027813811121213 -0.8974665507206138
C -1.3081395017436286 -0.3155469654078035 -0.024982692994597676
H -1.285173321136058 -1.1295551889641666 -0.7271622393298989
H -2.244118409491916 0.2254014509937906 0.012174573734936382
H -0.939659397878672 -0.5494756799280416 0.9592520497233438
H -1.1052598824491917 1.2974754878404708 -1.8053696823894738
O 0.7570014571631178 -0.3051411423825975 -0.4401162731181134
C 1.5263945081280998 -0.3655581143787937 0.6926015056660226
H 2.5891411774514395 -0.4124146431847564 0.411977987727559
H 1.3054100307561347 -1.270152439419322 1.2832241911077578
H 1.3919899994099252 0.5139440317963188 1.3439902353548738
H 0.11107243636306495 0.9082418219227568 -0.8081231047617988
