18
## STRUCTURE-ID: 6456712d36b47a74d32726bb ; CHARGE = -1; SPIN = 1
I -3.167676813526389 -1.5849312455632116 0.4856256530008113
C -3.5127351852740736 -1.7875347554019474 -1.6379293922249676
H -4.190527779491896 -2.618498043722354 -1.7807973700011788
H -2.545276340119931 -1.9629205632518956 -2.0914363678609096
H -3.941082748804719 -0.8560752207932137 -1.9817721245285058
O 2.2468501719618765 2.148569057915019 0.5448600249308025
C 1.606087446798706 0.21188005126679046 -1.8914261804946082
H 2.311375528233788 -0.6099704936397319 -1.889508409815045
H 2.0314152455074588 1.0795369405266717 -1.397797421925227
H 1.2790214920162957 0.45440137170895806 -2.893124753586618
H 3.2016065615254807 2.1407205933937528 0.664710786414901
Rh 1.2819453965389007 0.7661137022048591 1.7948611117817526
I 3.287658333802784 -0.9212870366657788 1.5200840964600952
I -0.08874910181174868 -0.3650627103822913 -0.7339673099943819
O -0.44573532766530927 3.1399364338351763 2.346489508659876
C 0.16739786426052558 2.180537260862118 2.164713752185683
O 0.0022985497848285372 -1.0532407199496356 3.7858387825128994
C 0.47612670626339704 -0.36217462234331915 2.990575614484626
