20
## STRUCTURE-ID: 6456b713db70852e527cab7d ; CHARGE = -1; SPIN = 1
C -3.049448027581732 -0.5071479296099833 -0.8718521259627315
O -3.428529366947697 0.46911509139360746 -0.42226861611113237
I -1.2920825718389493 2.1269390564748245 1.7511811057223792
C 2.16425279337061 0.6520744601746875 2.36866673980734
H 3.1822296474804044 0.27746059114448063 2.25929573580102
H 1.4757207654526974 -0.19932220499644204 2.476901428762253
H 2.105552286821134 1.275973646906043 3.2604059342243397
O -0.9858617753799559 0.9058615826854188 -2.0501826252891995
C -1.1407537914162722 -3.059405078470564 -1.0009537959589225
H -0.1037352813884257 -3.01323588284885 -1.3172400202101127
H -1.8011682046671942 -2.611002167805639 -1.735373570358889
H -1.433361664240491 -4.072359734343605 -0.7540597253151885
H -1.2046513430387615 1.3317647437417748 -2.901938291121111
Rh 0.334361230015041 0.6651861766011811 0.28351430526236765
I 2.0626852488251948 -0.7261139988858029 -1.105585987672052
I -1.3459445551328568 -1.8685165580769467 0.7869730787504806
O 0.3189503794111547 2.7031689097739604 -1.683574291010533
C -0.10666735965606793 1.6279517958421676 -1.3304683617153976
O 2.4061239765671107 2.511171736801684 0.8229371531397313
C 1.8423276133450506 1.5104357634980152 1.1636219292553829
