21
## STRUCTURE-ID: 645675301b2f1f6eda4d303e ; CHARGE = -1; SPIN = 1
H -0.5642624900696812 -0.9820540028200118 2.595714535841697
I -0.8571067672316174 1.9654224757539243 1.5198623350956273
O 1.0131389423657018 -3.0270380870944944 2.8037428514241793
C -4.2228434132166255 0.0377421821369827 -3.162100662641255
H -5.165554774963304 -0.45936972117360403 -2.975559557146968
H -3.407938292486024 -0.6282127908255993 -2.9078488848989488
H -4.1561652191534915 0.9262837390108095 -2.54786633765258
H 1.5984368403036713 -3.8040851882583535 2.92356850903952
O 2.585399298072438 2.232302799015311 -2.2269294172138316
C 1.743458117479568 1.9634728476082517 -1.2478591664282748
H -4.154788188915071 0.31157355151301447 -4.20612318996601
H 0.9390955460478317 1.2577398922052376 -1.4589655610588796
H 1.401388380911579 2.8707879460207684 -0.7552996243805192
H 2.7529702843942956 1.474439180645326 -2.814872248281684
Rh 0.6183574525560864 -0.34149137058402645 1.9069500896547247
I -0.1528501351888985 -1.4894197334526944 -0.3684066913015826
I 2.8114412978505126 0.8468607596136134 0.5606891577473786
O 1.5250281892565631 0.6319572533448271 4.561606932515775
C 1.1698054168650753 0.2806252157927272 3.524426834077868
O 2.8571174538320845 -2.0720786154249557 2.0168255085935307
C 1.6658720612893856 -1.9954583330270024 2.2584445869803447
