12
## STRUCTURE-ID: 64566a21a9b31d611667f9d4 ; CHARGE = 0; SPIN = 1
O -2.1619885625933355 -0.20110406765903327 0.23302473938534934
C -0.9668861837946582 0.34021280694742856 0.4021548470327231
H -1.014160515591825 1.458341184707565 0.37577821166922115
H 0.8059614855516463 -0.28084334395441324 -1.106110069823101
H -0.79508276048127 -0.660492182731483 2.4754989620311116
H -2.9389983205456494 0.3799415421578918 0.31810822268219746
O -0.7683644500611705 0.29269369926326777 2.3113504730402896
C 1.6986236636221914 -0.43778226043835355 -1.704786971545127
H 2.318207099018308 0.4487980358862259 -1.6676005536214409
H 1.419756433156004 -0.6372461345015598 -2.7315103609126403
H 2.2529044279750807 -1.2807960049463363 -1.3143663590573067
H 0.15002768374467787 0.5782767252687967 2.408458859118732
