12
## STRUCTURE-ID: 64566874f029967f89610abb ; CHARGE = 0; SPIN = 1
O -0.07323399143305313 -0.2961457572002936 0.06062201155032879
C -1.3116463179646558 0.2470366070647613 0.46507610683074185
H -1.194927735049692 1.2848940674630234 0.7957518643088052
H -1.7465570013684517 -0.34055295452622114 1.280633791122395
H -1.9678246717992256 0.21157480600474657 -0.4012970735199809
H 0.5439122634761241 0.221130498477987 -1.6923773134362299
O 0.8124592815343167 0.38967754097376167 -2.607785907767134
C 0.8812992340222935 -0.31478642516884675 1.100036976546035
H 1.7856537206283882 -0.7558427289033703 0.6876962002221869
H 0.5278585470978566 -0.9192221282490295 1.9421890637400578
H 1.095004953586603 0.6997790853942931 1.4537387152764412
H 0.6480017172695096 -0.42754261133081534 -3.084284434873645
