12
## STRUCTURE-ID: 64566744b991360b267ccc13 ; CHARGE = 0; SPIN = 1
O -1.4068898988229455 -0.6247098509305797 -0.38647542932254353
C -0.8269015306593974 0.14354900943166837 0.5496472903207594
H -1.700812333834704 0.7782865224386796 1.1166885125821882
H -1.4769379800082927 1.5537261936153488 0.3818892218025698
H -0.28411206005402423 -0.4005512296953003 1.3407969343727426
H -1.344290022524432 -1.5777038312230465 -0.23195788355535546
O -0.0244065211796363 1.2034153605016362 0.019794976595102032
C 1.060359812741625 0.7986681156189049 -0.8155722401174176
H 0.6881622399934153 0.3555325435351351 -1.7399851261938653
H 1.6856833223791008 0.07453519292815995 -0.2878565866896202
H 1.6278354216716904 1.6992517507668434 -1.02884941129726
H 2.0023095502975954 -4.003999776987456 1.081879741502735
