21
## STRUCTURE-ID: 6456794ab3c5fe0317324931 ; CHARGE = -1; SPIN = 1
H -1.1745565460922929 -2.5252242730464634 -0.7712847122914507
I -1.8202579244497332 -1.090311505574035 -0.6283533364154643
O -3.5525936329959027 1.322635872185166 -0.4721874449626563
C -0.6006772821464829 1.4398651096252697 2.352982936907819
H -1.0727948603656237 1.3496977192425919 1.376264452063169
H -0.921077779248106 0.6071133343071293 2.972316827059061
H -4.20314240926843 1.2718892364055538 0.23574075894809182
H -3.174262839988763 2.2066800430978466 -0.45000224565813807
O 2.7939792521134605 -2.666796456566476 -1.4308251760819173
C 0.9003102693121442 1.4911598438221068 2.2295831728186255
H 1.3979857176139807 1.5245476344763962 3.1946478077253087
H -0.9314908491524103 2.3719903373820608 2.8045826573273565
H 1.2276452781946317 2.3104004527265656 1.5931009552350264
H 2.9223416924384984 -3.636077633018506 -1.4421920697753519
Rh 1.0777944422656702 -0.4154834685165776 -1.3351377240446047
I 1.7324892024978131 -0.3403097426011072 1.2499406604763112
I 0.7668714058675329 2.228425549016369 -1.530256361160754
O 1.3014895299377767 -1.0797282655848603 -4.231613826347528
C 1.1912745288627078 -0.7353243158214571 -3.1199595939711546
O 0.6670151704491896 -3.287215529297246 -1.2696245926417336
C 1.4716576341543102 -2.34793394226033 -1.327723145210061
