21
## STRUCTURE-ID: 645677048ddc7733a67ffa8f ; CHARGE = -1; SPIN = 1
H -0.09070101772191398 0.5405932334649595 3.3791925537193626
I -1.6140384581124512 -0.23912165422123507 3.1674159346514164
O -3.525955732646342 -0.9081346382330537 2.5035370741452714
C -1.8149875447343893 0.9695804733869079 1.46237129853295
H -1.1447705839411424 0.5638622683850096 0.7043557771724334
H -1.5327948132586628 1.9832933196234903 1.718404522130815
H -2.843065848660362 0.9085098821109093 1.1361837436428748
H -3.8260369014660784 -1.6726961321435718 2.993584974999914
O -0.33758942051253843 -1.646375752832981 1.3108593012164769
C 0.9376834221193856 0.4839687244353058 0.44505227147510557
H 0.9080243498431646 0.38180477905763743 1.5085113530908383
H 0.8023988901068442 1.4437002272247452 -0.009846796023604646
H 2.8151545703919103 0.7784663298147865 0.5219206753562076
H -0.4444255283618759 -2.5604212451507227 1.5721689717822116
Rh 1.5805086411293867 -0.45614738564597146 -3.043219138702862
I 1.2689165795980717 -2.9765693492376113 -3.3087744619573236
I 0.8897677196549993 -1.183814541456886 -0.6706961414167526
O 1.7675980576001036 2.387694038830259 -2.156590302113795
C 1.7235952572474496 1.3048192113433768 -2.5327380654167135
O 2.398413263854463 0.0414434455540053 -5.888252924435162
C 2.082305097869948 -0.14445523430935137 -4.813440621849661
