12
## STRUCTURE-ID: 64566b80194bf506617b925e ; CHARGE = 0; SPIN = 1
O -3.0538898290770127 0.4534079984269839 1.5521542428299007
C -1.9069411416092523 0.21632240030801095 0.7659099084770863
H -2.139913246299147 -0.3997100936102248 -0.1080753061162206
H -1.2029519092274508 -0.3201926453766274 1.3998605308104077
H -1.4482270365367231 1.153422022243478 0.43583151791854285
H -3.705145096435995 0.9245893366293771 1.0189278071301129
O 3.139462697112186 -0.14689440970011988 -0.2670696480747768
C 2.0762747857230233 -0.5091140284263149 -1.1207348455114392
H 2.484400965737156 -1.2128200273229055 -1.844065927514397
H 1.6782940799412542 0.3586356927503124 -1.6554130489195118
H 1.2662513427318025 -0.9954560291536318 -0.5685297659366335
H 2.81238438794015 0.4778097832316599 0.39120453490700086
