13
## STRUCTURE-ID: 6456737a564d1659ab6c2b34 ; CHARGE = -1; SPIN = 1
I -1.4761942043800318 0.29871140146682645 1.2071502987500433
C -2.8290569382073665 0.7813904486627776 -0.44440278272512035
H -3.8177877553081045 0.45199459675404374 -0.15041779897768162
H -2.4777803026629086 0.24817569950316962 -1.3215167100985896
H -2.790015148027274 1.8536174911263952 -0.5906140977635673
O 2.168006580908018 -3.0624507048970457 2.182835439726688
Rh 1.2797949205579542 -0.32072128875197436 -0.1978030674234744
I 0.02844159605407074 -1.2638888830020334 -2.2805320444635635
I 1.2756246628081926 -2.8148981895557244 0.5507081201687143
O 3.139157060259504 0.05438117296535764 2.111241013368438
C 2.4196763572876554 -0.011817636528850683 1.2167320300807725
O 1.6168986360782889 2.4163145203809187 -1.3628855631484151
C 1.4632345346319555 1.369191371876104 -0.9204948374942651
