12
## STRUCTURE-ID: 64566a68a265456c154d303e ; CHARGE = 0; SPIN = 1
O -1.2119494645428548 -0.2220742637711042 0.1062553588656425
C -1.1552023127154423 -0.07266302651138651 1.4962139589714116
H -0.4205253888698959 -0.7359782355920917 1.956242874891728
H -2.1608855274995817 -0.3758693614015268 1.7912179309313108
H -0.9826091955736216 0.9642349318280642 1.7907369880465105
H -0.2763570834299626 0.747814394289797 -1.306297188662137
O 0.04410498377198944 0.19798851039591447 -0.5433325156530141
C 0.7872394734329763 -0.9439587191526359 -1.015657085855598
H 1.6703790428713807 -0.5340898080806475 -1.5068767013203581
H 0.20093354540461164 -1.5529344969119883 -1.703935262609088
H 1.0922137945756234 -1.5307142836701657 -0.14934601403230968
H 2.4126581325747702 4.058244358577769 -0.9152223435740964
