12
## STRUCTURE-ID: 6456681ed184d711e9242a41 ; CHARGE = 0; SPIN = 1
O -0.6746570264680862 0.5173838764510257 -0.7595794328881539
C -0.8947567212326475 -0.9111326358255374 -0.878429478884649
H -0.7719700531464836 -1.241284621038805 -1.9068909128212415
H -1.7713803814005853 -1.3008470115696888 -0.37573650187216945
H -1.2863229062954595 0.9877240894936465 -0.15618841246841056
H -3.3585912339845465 0.049225628808110614 3.439226073828947
O 1.5105411088871836 -0.4979105622795445 -0.5306494889638426
C 0.2848578968273136 -0.5337788143943579 -0.09821492720071665
H 0.21034226421147836 -0.4799069439581849 0.9838484157101677
H 2.4616921939666154 2.3910587506459966 1.0474320131143886
H 2.670112588907704 1.719321771305518 0.7147992926274419
H 1.620132269727522 -0.6998535276381777 -1.4796166401817623
