13
## STRUCTURE-ID: 64568cb70b80055bc7111de4 ; CHARGE = -1; SPIN = 1
I -2.5162885465111784 0.28218087382309814 -1.4765505357254882
C -0.5404263975882537 -0.04044439548341457 1.5202544018698403
H -0.03908275705924662 -0.48699685796234937 2.3776411406672318
H -0.9899999499504337 -0.8898119428392769 0.9019404591367511
H -1.3550699624511384 0.6151087769728851 1.824030959146629
O -0.04135695678449719 1.8596624348195974 0.18480274953033154
Rh -0.26388536995463513 -0.8387676675280193 -0.6690316974149585
I 1.1547920583549203 -2.906248201010782 0.1562746258264267
I 1.3178909026470902 3.13552140735747 -0.45070127190903997
O 1.6945401550437214 0.5785462827078446 0.7570225527370631
C 0.47533142093511593 0.7226110550320737 0.6859378507349978
O 0.7611423560748979 -1.0379527938057502 -3.441093137125676
C 0.3424130472436336 -0.9934089720833871 -2.370528097474111
