12
## STRUCTURE-ID: 64566b3f1dd6cc3476662c6b ; CHARGE = 0; SPIN = 1
O -1.40893548219287 0.7342341390599421 0.8149870868999343
C -1.659733163108046 -0.5142264352387943 1.4154650752903732
H -2.3897528294902175 -0.34605150605954965 2.2066083505760794
H -0.7502328949110961 -0.936837761176858 1.8554731820481547
H -2.0710329012212854 -1.2295071010307803 0.6962729117467473
H -0.7758593554521747 0.5958182673795507 0.08722095497354349
O 0.43710562074754317 0.1618432431266764 -1.2878730282076136
C 1.8161449727387315 0.2310067777303637 -0.9840860860399254
H 2.151259422647009 1.2674965838041408 -0.8906017968914118
H 2.4143498761396476 -0.27818429957297064 -1.743898819971614
H 1.9534498707086714 -0.2731710813935413 -0.029410537320852154
H 0.2832368633941155 0.5875791733718085 -2.140157293103416
