12
## STRUCTURE-ID: 64566a69c536aa4c987cab8b ; CHARGE = 0; SPIN = 1
O -1.366190348312517 -0.1082610061385188 -0.8195882860876305
C -0.6953481199551366 0.7772653160031627 -0.04641570089407986
H -0.46986924252810386 1.6672926933854433 -0.6411890681407382
H -1.17830618254703 1.0398899045959171 0.8993527889655503
H -2.22192208552517 -2.1055777205928248 3.7272500718593675
H -1.9084318681852561 -0.7312628127323823 -0.316637889378009
O 0.6472729720998717 0.2506026820444752 0.34600249578214176
C 1.50054754835561 -0.015971502157471573 -0.8017157628551834
H 0.9811995500018034 -0.6312447208906976 -1.5366768482274902
H 2.3980430301436666 -0.5127632885877107 -0.4421125984419423
H 1.7622828095229657 0.946440808438226 -1.2375192451243038
H 0.550721936929304 -0.5764103533676217 0.8692500425423162
