18
## STRUCTURE-ID: 6456705202b8a26cd8071031 ; CHARGE = -1; SPIN = 1
I -1.4522156769213028 -2.0755546310203736 -2.571506553060856
C -1.184652966006485 0.4957348167348578 2.050753160731296
H -2.1108606193682666 0.8684918033543517 2.4834821432272465
H -1.4100542388115413 0.07903241140138056 1.0683570484021074
H -0.7966644762825059 -0.3033358859457636 2.676675363223375
O 0.44281107672615777 -1.9479636193187329 0.38182258035556105
C -0.2004964680886713 1.634693933870804 1.9471056082062521
H 0.08352495831062495 2.02545835187489 2.9209005313215775
H 1.143780766348707 -2.5776087581554323 0.5875888326317029
H -0.5663245666071702 2.4337498084837055 1.3055906672840634
H -0.29328525543888223 -2.461583766837803 0.024378056807059147
Rh 1.1088260427063654 0.005417386076143633 -1.4261534519426131
I 3.433408593752984 -1.2246088915865638 -1.5633543554606804
I 1.6818860517354421 0.9782936968738152 1.0202302985253273
O -1.380377341968333 1.6292616576601324 -1.7134402327971059
C -0.4262970122494483 1.000833603802125 -1.551494708368515
O 0.9675539724028093 -0.308187404402135 -4.395949591686804
C 0.95943715975959 -0.2521245128653384 -3.2449853973991067
