16
## STRUCTURE-ID: 64568e1afb3a383c634d3033 ; CHARGE = -1; SPIN = 1
H -2.7157845256234676 1.7675020605877474 2.0661281475979836
I -1.8816307072269733 0.28999182670986723 2.08152862585191
O -0.6144488452558382 -1.4689516468636352 1.8075002637466215
C -0.867478090607773 0.8588122224709571 0.29695051204610035
H -0.48617192559469874 -2.0126555674324798 -1.0860546249074703
H -0.7695717524158804 1.93992801266753 0.289919940980272
H -1.5017503864539656 0.5696393678959909 -0.5514196128148464
H -0.9129557276401506 -2.2982334285689596 2.1820905501941614
O 0.6983771309491812 1.1688816005712812 -2.074484276179878
H 1.0401144733629764 1.5215295148347847 -2.92212708903008
Rh 0.417995822362672 -0.8883818280165338 -0.21841388798802747
I 2.5341104907142773 -2.4953324430067036 0.1623387931514639
O 1.251610580156401 1.2553303151003705 1.7064278421732924
C 0.889814514787356 0.5504401870211483 0.8430237904932739
O 1.8101667583962608 -0.6487467251745074 -2.7056041915757496
C 1.1076021900896464 -0.10975346879688913 -1.8778047837390237
