12
## STRUCTURE-ID: 64566a7b28a9f00ba34d303b ; CHARGE = 0; SPIN = 1
O -0.2598550779356269 -0.02970682127071595 -0.13925080776850338
C -0.8778809563175388 0.16239979612648064 1.1150606220642125
H -0.20789396703263874 -0.13080412939425648 1.9307830134570034
H -1.8028559263973047 -0.41979608580207894 1.1862343909063504
H -1.1062175336059399 1.2227616489289785 1.1931284997643217
H 1.0033035385689064 1.305467885113613 -0.7133197007672439
O 1.561877769342024 2.008395238944525 -1.0773789882997769
C 0.09042805313959555 -1.3761889589826153 -0.37635001507694055
H 0.8017664624398243 -1.734148310921203 0.3760446901482952
H 0.5511779444883647 -1.4119256264401006 -1.3607180497746498
H -0.7972995728703061 -2.017562199590855 -0.36192998962217676
H 1.0434492661806236 2.4211075632882353 -1.7723036650308859
