12
## STRUCTURE-ID: 6456685e387f5c409f6b0e1e ; CHARGE = 0; SPIN = 1
O -1.6307736554989285 1.3579962883354977 1.554528651550567
C -1.4237540912331264 0.05274199543316738 2.0489517296226585
H -1.1306978402815515 0.06875452224221465 3.10365087017013
H -0.6622639232846524 -0.4780411763974186 1.4702818089289849
H -2.373806012601195 -0.4707393831812948 1.9546737090981996
H -0.7912974992074571 1.8325113717920247 1.5788489114824646
O 1.6628829316615041 -0.07842208176907874 -0.9683388768189406
C 1.1255559071826486 -0.6078473867294945 -2.1602794616486354
H 0.6361579562115489 0.16683354050985136 -2.757799446057956
H 0.38312605456174 -1.3481316237506924 -1.8669071261589052
H 1.8958811640812856 -1.0975018303305275 -2.7640061422764304
H 2.30898900840819 0.601845763845718 -1.1936046278921533
