12
## STRUCTURE-ID: 6456881a59246543d137418d ; CHARGE = -1; SPIN = 1
Rh -0.5863249717095105 0.5041062726141309 0.05036544398169635
I -0.672703450096693 2.1242326542521837 -2.1650349080877573
I -3.17473103838234 0.9465961630894729 0.842599840318172
O 0.27897937161923886 -1.4558525079681397 2.1365599534746003
C 0.0393703370878709 -0.7178850481385987 1.286924464903861
O -1.8733579091006738 -1.3122590869194055 -1.9458032568599792
C -1.341691377371016 -0.6522522854447665 -1.1813999290579846
I 0.4157058374213641 2.3789625994715182 1.7002060975549476
C 1.4607465735042644 -0.4028693748231633 -0.08810623299672526
H 1.7468509121061413 0.24357101237163573 -0.9293128517550789
H 1.5247793272369121 -1.4405389895369505 -0.4136029729739937
H 2.182376387684443 -0.21581140896791856 0.706604351498242
