12
## STRUCTURE-ID: 645667a0235e3c381d242a3b ; CHARGE = 0; SPIN = 1
O -0.7230498756910828 0.7018567555238444 -0.6139481348697571
C -1.4141154846958626 0.1714045632467586 -1.726420260139571
H -1.149020498027259 0.6980130554107291 -2.647152270001466
H -2.4964035460002973 0.21930436155723085 -1.578778741205597
H -1.1144237691963321 -0.8709133573750938 -1.8158672131861782
H -0.9562889460923889 1.6330005929373759 -0.5164837815244845
O 1.5695022923523783 -0.6639163334467987 0.457044396823532
C 1.3855034767053098 -0.4526677270644506 1.8372811400102649
H 2.196800201030542 -0.9689761564156184 2.3491724087218513
H 0.4294767407931783 -0.8601011403637158 2.180355979917681
H 1.4285507133885953 0.6120145391823768 2.086877170945839
H 0.8434686954332214 -0.2190191531926279 -0.012080695492102599
