13
## STRUCTURE-ID: 64568c797c2e8670e373b9d4 ; CHARGE = -1; SPIN = 1
I -2.059322234941047 1.9890599235486697 0.6227306061231124
C -1.2660798612488708 -1.601184448724022 -0.46340713643693027
H -0.9667510127736031 -2.4176076552443124 0.19787691136155838
H -1.5709416459333674 -2.020394991688395 -1.4221603040220918
H -2.0973802362380343 -1.0765530854338419 0.00403267906123029
O 2.35484916378511 0.31926634565035533 0.7171902804283871
Rh 0.29247255496419733 0.8009347688934004 0.5599273997333885
I -0.07855886631075665 -0.5840740393299343 2.750685609191752
I 2.7967955835347684 1.8225143746816745 1.8661107137734427
O 1.1729815903649239 2.542214273776441 -1.687609506634463
C 0.7563624491389461 1.8702924281384887 -0.8608819230377315
O 0.7310036748196346 -0.906694588415321 -1.581457141977298
C -0.0654311591619205 -0.7377733058531676 -0.7030381875643986
