12
## STRUCTURE-ID: 64566aceb86bf867d04d91eb ; CHARGE = 0; SPIN = 1
O -1.9658675902855327 0.3460407603546058 -0.7633604134647647
C -1.2116612514455058 -0.6293050236311544 -0.28370974593187187
H -0.29042371137135314 -0.1125192815767255 0.42657909442320885
H -0.628843627230539 -1.2227154538988725 -0.9909349926732544
H -1.7520072170953842 -1.2139757261145363 0.4630001295129685
H -1.6476887852040456 0.7361845325641201 -1.5942490208614077
O 1.5491366814951024 -0.5242625610538467 1.3603046421345153
C 0.5867437189197705 0.37152769999173857 1.2083420233499391
H 0.011682778081241248 0.49008274070517455 2.128614474722397
H 0.83364898903938 1.307942897194966 0.7041316206974109
H 2.2420612643397835 -0.4964351264503815 0.6800116252493399
H 2.273218750757093 0.9474345419149003 -3.338729437158484
