12
## STRUCTURE-ID: 645668aa0539b943232abddb ; CHARGE = 0; SPIN = 1
O -0.12917533489422406 0.11679487886464879 -0.5399596226957538
C -1.2661896080482296 -0.19025444103060138 0.20744423357560435
H -1.5722949271832662 -1.230632352009412 0.08192870484240644
H -2.0191025571729173 0.45636712238507476 -0.24802957227530126
H -1.156485426064934 0.07113034961974958 1.2619541370064897
H -4.777171706468508 2.145150879952589 -3.081171333801666
O 1.0233709380463596 -0.7367135397478674 -0.15180233098592372
C 1.9443580597611292 -0.037364990483019736 0.70944967816389
H 2.313542944182061 0.8821690232800403 0.2562354612942451
H 2.759783217328906 -0.7385397182601464 0.893231745927476
H 1.4358889726502893 0.18359256983958702 1.6476087571787148
H 1.4434754278633435 -0.9216997824106762 -1.0368898582301678
