12
## STRUCTURE-ID: 64566ab112f03e5eed7c7c40 ; CHARGE = 0; SPIN = 1
O -0.43030118077482504 -0.8066344537571851 0.1612756033651731
C -1.3096807779746622 -0.27912805324171425 1.070913079654294
H -2.136615848431758 0.25249231814104334 0.5714615883477444
H -0.8248709912341777 0.4181716414533455 1.774091333526665
H -1.7564868489811545 -1.0917751600486327 1.6627285415943835
H 0.9693487155040346 -0.6472175994595971 0.34826548678266883
O 1.8349728884472425 -0.18124506288263725 0.00902896416595032
C 0.4071133981457445 0.6524858275577877 -1.1057137420184646
H -0.3563618318292315 1.253610675862907 -0.6420253450883096
H 0.057159066163868566 -0.02825096012275434 -1.8608975516750759
H 1.2683746961128404 1.2419159880016972 -1.3900589157272207
H 2.2773487148520872 -0.78442516150425 -0.5990690429278003
