12
## STRUCTURE-ID: 6456668e2297bf3b3b1fea70 ; CHARGE = 0; SPIN = 1
O -0.5823301202656915 0.6373494777495988 -1.6775427628922972
C -1.375234646915902 -0.19524335446066943 -0.05136913130910895
H -2.251663642550142 0.23979731130914358 -0.5122190885053224
H -1.07371108580638 0.2886889737426685 0.8614245967954679
H -1.414052768480131 -1.2691312455378987 -0.01455556593972981
H -0.48016013234108246 1.5686256650486659 -1.4478527488510469
O 0.6664359998431265 -0.7240657428776774 -0.20160576356053056
C 1.4040864115601386 -0.25532236782856044 0.8533950177538372
H 0.9704240304172237 -0.5655249596225815 1.818876011975488
H 1.5003304062211642 0.8444801666313728 0.8579648877970817
H 2.420668839383204 -0.6744044843520556 0.8069317734121838
H 0.21520670893446492 0.10475056019797407 -1.2934472266760082
