12
## STRUCTURE-ID: 64566637eaf3675e15230d76 ; CHARGE = 0; SPIN = 1
O -0.7060345306850824 -0.4231861626989535 -1.3745381837125117
C -1.2187511555064192 0.2520324807450127 0.5532162655032669
H -1.0132187236621608 0.8682611297586773 1.4269456036897312
H -1.4274877747307126 -0.7693990381282693 0.8222319690461236
H -1.9587258207567937 0.7155610556808121 -0.07667312226851535
H -1.151824225113171 -1.2705608709116942 -1.3810341339978627
O 1.5499071941296099 -0.8108058992968227 -0.49647065043305877
C 1.4141998948845784 0.3191326304740152 0.25207059172270446
H 0.24301137256920666 0.4446390210748603 0.36547741716917564
H 1.7380140525157985 1.2353697739401044 -0.25680983292998866
H 1.8680892808289886 0.21418225220405848 1.2387303549632696
H 0.6628204355261588 -0.7752263728417982 -1.073146278752347
