12
## STRUCTURE-ID: 6456699f672c0d6fa0623198 ; CHARGE = 0; SPIN = 1
O -1.481834768335279 -0.7860948971802424 0.8280795582870939
C -2.057298486139648 -0.012970714884116125 -0.19810062171867873
H -2.0421425780226277 1.0538834170340874 0.047122891773766516
H -3.0922455036609757 -0.33754994825240775 -0.3004858429051016
H -1.5424242601385085 -0.16767000964303133 -1.1524106605026172
H -0.5595325837957684 -0.4935919093309277 0.9456204658861999
O 1.2366042858165263 0.10173572294262699 0.9004807043753552
C 1.8192776075430004 0.2193192345094142 -0.3824001254334481
H 1.115569610158743 0.778084549801286 -0.9967674386907384
H 1.9874919692832098 -0.7624154417236095 -0.8339887950038343
H 2.764099508513949 0.7665448186020775 -0.34011313443638935
H 1.8524351987773202 -0.35927482187512355 1.4829629983684396
