12
## STRUCTURE-ID: 64566bd919341962a04ed2b8 ; CHARGE = 0; SPIN = 1
O -1.5545583700644865 -0.4630669300471516 -0.9315769408826836
C -2.0463240994131118 0.12908597613549905 0.247237223841593
H -1.919642131372127 1.2164639002498845 0.2328869328634812
H -1.5508120301864123 -0.27673756992771154 1.136017991627528
H -3.1096547442282727 -0.10210126438085572 0.300627280350396
H -0.6091585887635595 -0.23961607868420803 -1.0097638291262816
O 1.2334431207569594 0.18170642682400212 -0.8937792791567304
C 1.8324383687843853 -0.029148142993080467 0.36952366632839795
H 1.9135697435727095 -1.095649011906641 0.5975253702320349
H 1.1867437255570221 0.4446505447464543 1.106656181048317
H 2.8226120015220144 0.429895576058477 0.42125924892028643
H 1.8013430038348874 -0.19548342607467192 -1.5766138460463348
