18
## STRUCTURE-ID: 64568b8b94dc107b332c50b4 ; CHARGE = -1; SPIN = 1
I -1.4172586294683496 2.905615906423626 1.9493723178022104
C -1.725508251634037 -0.7279044558692833 0.8774017085748148
H -2.38731157734446 0.1389995187534052 0.8213326136752653
H -1.9272752914516678 -1.2461441712735848 1.818844511202639
H -1.9671214421165342 -1.4025188332314313 0.05327013389379104
O 0.44411067799183274 -1.463901093456619 -0.9870439872063458
C 0.48833872170995785 0.9597910267445064 -3.0503970939293312
H 0.5129565443064905 -0.11963737499811726 -2.9409845404998136
H 1.4906325253493433 1.3680882456380452 -3.121716445894217
H -0.13172279149554506 1.2679454589445212 -3.8826949882157495
H 1.1215026014324239 -2.140987429436948 -0.9168772593552003
Rh 0.286337772104097 -0.1292805532003784 0.6599035478975438
I -0.40317984165124654 1.7002459775098655 -1.228801511959505
I 2.943931688113313 0.5717118658283608 0.3809204285761723
O 0.5791062076522591 1.0890489902498062 3.26536273719516
C 0.09827515919603556 1.0875700282490095 2.191050803483822
O 1.18760790676917 -2.372368940693443 2.364856063809449
C 0.8065780205369161 -1.4862741661813603 1.7462009609492684
