12
## STRUCTURE-ID: 64566788d453d602b53eadd0 ; CHARGE = 0; SPIN = 1
O -0.6350806109812662 0.6020610144158403 0.3032979247698647
C -1.692391754588236 -0.04560883808475853 -0.28053373524921765
H -2.6310990716830696 0.2924019106329009 0.1831932294145443
H -1.6374039798087836 -1.1405142803320514 -0.16131184122476722
H -1.7606650879836632 0.18190836154208223 -1.3573502714533874
H 0.23472501174944152 -0.08327513901441798 1.200362311240442
O 1.188810134997384 -0.4694261327423467 1.3386831329843394
C 1.2126841235349695 0.09539332867931076 -0.5725944934407804
H 2.1656513318745607 -0.40970189302686466 -0.4901160127166046
H 1.276880466972844 1.1643490725083385 -0.6696189123598607
H 0.5595154266334328 -0.3898955797825704 -1.277536393649553
H 1.7183740092823978 0.2023081752045205 1.7835250616849452
