21
## STRUCTURE-ID: 645677def08f0a4fa15a8531 ; CHARGE = -1; SPIN = 1
H -0.6558334122570868 2.5901762547923446 -2.3932336334806616
I -2.3919179073655323 0.33340136721994307 -0.18183567684809882
O -2.2666130403182136 -1.3384852211011462 0.8911649713479176
C 0.6769649022288721 0.9172473869676768 1.909449174218265
H 1.3138847601113643 0.7845526884263125 1.032522383188699
H 0.11412202788318183 -0.0006820777880127781 2.07033645953949
H -0.03081086533421057 1.7126949435547396 1.6786062330262423
H -3.1118483123580694 -1.5417980480882643 1.3333870439247164
O 2.1367632843868534 -1.4774600077245192 -0.2748910949712428
C 1.5031727581481305 1.2687360457851482 3.137522663635018
H 2.2115529358536943 0.47556990403254723 3.3629646812584197
H 0.8513335391134202 1.408218527700981 3.995486645416497
H 2.0574680254194013 2.189276126339554 2.9680168237261806
H 2.613317887813383 -2.071569869401204 0.31520721383140654
Rh -0.9164871965839836 -0.9089739215063618 -2.4837197545232943
I -2.264171695659502 -3.1243614110564826 -2.0212975785688405
I 0.42204683380725794 -2.299832417909099 -0.8138218466679845
O 1.5460123092849603 0.6514659779595617 -3.1047202144934034
C 0.5366193583566248 0.15459688302072647 -2.892206598169072
O -2.4500452823719066 0.4133486607094512 -4.681234742817457
C -1.8955309101586577 -0.13612179193389537 -3.8477031525728322
