12
## STRUCTURE-ID: 64566a0e7bbc37262e233630 ; CHARGE = 0; SPIN = 1
O -2.850040245559367 -0.4260556493967016 -0.488315322080897
C -0.668315170495225 -0.0011382410975807418 0.23348515598200636
H -0.8360378794257927 0.7651624935601298 -0.5043418895153257
H -0.7206229959180794 -0.9929889360601004 -0.18365222440868345
H -1.285452923829029 0.12362721426363948 1.1065432069519026
H -3.35942455633926 0.39140805456881234 -0.4337815988683572
O 0.8084395153090946 0.23988681351755933 0.7453009024171386
C 1.7996548200803268 0.09327505138236808 -0.2889095253358077
H 1.603631316513773 0.856386615509081 -1.0389972933334704
H 1.751068047878671 -0.8911887548069739 -0.7536829222275282
H 2.7785087045392625 0.2618896031375137 0.15609196236975056
H 0.9785913672456041 -0.42026426457775046 1.4502595480493012
