12
## STRUCTURE-ID: 645668e1d31d4501b0671000 ; CHARGE = 0; SPIN = 1
O -0.5984054785638937 0.5855856383883582 -0.3958967857015895
C -1.6834324780398786 0.13015728583074457 0.30670603887341674
H -1.7166865468145736 0.5600144456183456 1.3215540190414783
H -1.7001141458865825 -0.968834137625454 0.39587054705357605
H -2.607495057342331 0.4355200814309519 -0.2064883125206659
H 0.19734543117321998 -0.3074287988494869 -1.1693783448105348
O 1.1178844072972007 -0.7815116308984038 -1.2517085313548975
C 1.2310424230438222 0.10314729971282134 0.5313595166614247
H 1.3676165931522395 1.1662532365842726 0.445379324440688
H 2.1466539315677826 -0.47266927501708295 0.5227200356458357
H 0.5647747654138499 -0.21061089399079377 1.3166074357228585
H 1.6808161549991458 -0.23962325118427763 -1.8167249430515884
