12
## STRUCTURE-ID: 64566ab1dce582736d67f9cb ; CHARGE = 0; SPIN = 1
O -1.9414727631358093 -0.5794047050667352 0.2965255888000621
C -2.5822778006181264 0.12170218041917989 1.3398326470156046
H -2.10434801164336 -0.07210089106855912 2.305087407190458
H -3.643440075645444 -0.13611965423333364 1.404376009944322
H -2.4905279765121646 1.1808475505441856 1.105782449809399
H -2.024800804334227 -1.526574116406442 0.45956896282063153
O 2.97584992125585 -0.3292766169401276 -0.33528969130941605
C 2.456308977720036 0.27017244164951365 -1.502600914954445
H 2.342747239865423 1.3517809123834514 -1.3790012766164732
H 1.490950958491465 -0.16354126671854105 -1.7797626574961138
H 3.174399068065168 0.07872146412586406 -2.2982525312333673
H 2.3466112664911747 -0.19620729868843892 0.38373400602935104
