18
## STRUCTURE-ID: 64568af327c53f43984d302a ; CHARGE = -1; SPIN = 1
I -1.4248303757132337 -3.1193111915755316 0.161245553096729
C -3.049258818082262 0.8137270806196694 -0.3689022000796033
H -3.9646804213942266 0.9502929006640194 -0.9344685977260034
H -2.8494067508544494 1.712156131188806 0.2174002879990002
H -3.139326849287693 -0.02664845106177979 0.32122442211456886
O -2.081196673531358 1.083287649061664 -2.502630525963253
C 3.7665429613347974 0.17061331353492884 0.3209859347075033
H 4.223977340103941 -0.5183553548702554 1.0200082728214077
H 3.132995196477657 0.879068462493301 0.8423411901701685
H 4.509114422423155 0.6766805352595707 -0.28175563934614734
H -1.3189910829679858 0.9516448923993069 -3.0980681378628363
Rh 0.015022376117506259 -0.89825202744975 0.7038371167090409
I 0.2545523392224926 1.5514822351267903 1.78778102280002
I 2.5162743880725977 -0.982537413349881 -1.0094516769589486
O -0.858617434843692 0.01908643363037873 -1.0027888323609113
C -1.899014801627578 0.5886856765936656 -1.2947498191767761
O 1.3576403937170403 -2.177092687296612 3.0083992559636314
C 0.8092037908323055 -1.6745281849694715 2.109592373086517
