18
## STRUCTURE-ID: 64567109fc1db521b56dc16b ; CHARGE = -1; SPIN = 1
I -3.165798158210705 1.6474008465287915 -0.10929792400274882
C -3.1853870744413553 -0.2086320762785938 0.9756928297165727
H -2.2146815884356057 -0.6769732017369628 0.8297724846299128
H -3.9785838348670968 -0.8216419830516413 0.5681387883757917
H -3.353164810567775 0.01766900446939938 2.0203422859889373
O -0.26449821196417206 -1.1092898043306336 -0.07334642912981444
C 2.9072853531700744 -1.490095312352627 0.5025561952437345
H 3.324585843601721 -2.464468880230684 0.28552351512663343
H 1.8238884934913313 -1.5345002348701973 0.5795802768333036
H 3.3403355230663174 -1.06143772336812 1.3971076921738654
H -0.4860463705940087 -1.7527202414342624 -0.7553296321061933
Rh 0.09352699891468297 0.7734443073365157 -0.8801367283797038
I -0.5476281001098555 -0.08664826307036778 -3.2789099359673117
I 3.3726918435905584 -0.19041910310443672 -1.1450455265572779
O 0.7936120920503194 1.6997147141229074 1.872517584864832
C 0.5172010071039376 1.3386962690199677 0.8104327520248603
O 0.6110202477003595 3.4831376523951842 -2.0233689600412923
C 0.41164074650131816 2.4367640299557802 -1.5762292687940698
