21
## STRUCTURE-ID: 64567cb9133f0210f75b5c23 ; CHARGE = -2; SPIN = 1
O -1.89879571700541 1.9860017895824724 -2.6559325964374207
C 0.3587687821170683 -1.4589898514226445 -0.37290899212155376
H 0.5992477953984775 -0.6374102445575868 -1.025756401332367
H 0.8181037858351726 -2.423067644798466 -0.5220094179163556
H -0.41789048722815303 -1.3631724694131244 0.36853639142113503
H -1.345822327940311 2.481938599604824 -3.2927160092782692
Rh -2.43703259283365 0.29146230680764934 -0.6860009270086861
I -1.6599091234582661 -1.8756771988366938 -2.0483890344401234
I -4.695596285384077 -0.6392540939489949 0.25672974089398226
O -1.2876003247470058 2.027108776574677 1.4396755557298766
C -1.8653583198971386 1.4037171816018417 0.6329825121740033
O 0.07814997725186672 1.3834324313998303 -1.8066898522115609
C -1.1446009415680825 1.286829834261953 -1.754326553287441
O 2.256423835124986 -2.266214260079227 1.918456892627696
H 3.02953765221509 -2.6991424795204444 1.5381628659904418
Rh 1.9188617619199873 -0.4339490545645401 1.2374478445232813
I 3.9902467189666204 -0.5719946479218755 -0.30029068040143503
O -0.18582794094318578 -0.03229522836117575 3.32404021934742
C 0.6175966381506562 -0.22602027959903823 2.5270683059268406
O 1.5972334643258614 2.4464004482505812 0.4988686658139427
C 1.6742636496995027 1.32029608493998 0.7230514699866387
