12
## STRUCTURE-ID: 64566728f37d3a495a159870 ; CHARGE = 0; SPIN = 1
O -1.7766235401942343 -0.18204733415716526 -0.23025413007264006
C -1.694983431218884 0.03687475983584449 -1.5707164144530468
H -2.7127359735129297 0.0473927388543452 -1.998742830628663
H -1.128693577425133 -0.7536578648779192 -2.096940635744531
H -1.2292255643656602 1.0094204508653728 -1.8141638211217384
H -0.517086333507715 0.1592782976309949 1.2684076534280277
O 0.025438153902566266 -0.16004772727645544 0.5328534857752278
C 1.8906636354121111 0.09674113265333466 1.2055939970328362
H 2.0158453818691546 -0.3313304610965392 2.1887433335239996
H 1.8272174403591115 1.1704408752031807 1.2052591090605058
H 2.5500829362999777 -0.2853331334245269 0.44331489033903543
H 0.7501008723816455 -0.8077317342104613 0.8666453628609824
