19
## STRUCTURE-ID: 64567ab128c49e3d6f750eea ; CHARGE = 0; SPIN = 1
H -2.938820055244141 0.19786623239863457 1.8873646098268042
I -1.46699878284883 -0.23591887376301943 1.2590531359903077
C -2.7390167555942835 -0.8969841324101976 -0.38361315116882155
H -2.1044153578404914 -1.3644977936098523 -1.1293746289322182
H -3.445788837004118 -1.6138142323262574 0.020222568178621916
H -3.2330042303176834 -0.020949543229819748 -0.7912924594454739
O 2.975989439771543 0.1618727056837204 2.2425492394359168
C 0.3886201999914485 2.131261466148478 -2.5908281439329097
H -0.32581217469044105 1.3288372896192961 -2.7412658199801676
H 1.1989548784366033 2.058802498617714 -3.307232353366493
H -0.08563670304628092 3.1049210171884436 -2.6257852287931973
H 3.1676061480289923 0.4961073863870325 3.1405870608277553
Rh 1.1797691327171684 -0.6164601509882556 0.22305172725787487
I 0.6085367592097818 -1.625454193359625 -2.172294101616491
I 1.2454841717056413 1.9075458555888705 -0.5915393934642947
O 0.8530439925293857 0.3665356287972777 2.896923967959036
C 1.6508169418434067 0.0572403326897364 2.0173897284752726
O 1.6433702465914901 -3.206653650467801 1.6125206798170642
C 1.4273009857608454 -2.2302578429642526 1.0335625629314158
