21
## STRUCTURE-ID: 6456788085b26b5cea4609ef ; CHARGE = -1; SPIN = 1
H -2.065198904758912 -3.8133373934836605 2.7181752816719977
I -3.070114724626335 -3.3278645770170727 1.480112843933159
O -3.7067841981754475 -2.369067528580013 -0.32695526260977403
C -1.1499327236541983 -2.365572730882728 0.6862725565011938
H -0.43950804479771316 -3.0852534136528833 1.0566490425972583
H -1.2819346644120138 -1.4410637724251274 1.2285335545949827
H -1.506868792047228 -2.4438595574082282 -0.3277244075919253
H -4.659022358331093 -2.3074761005373987 -0.36702823940826806
O 3.2415967335796627 2.877305230457682 0.9691052797904189
C 0.33664374298795857 -1.371152012172078 -0.2203919878782952
H -0.27046183025255954 -0.6066819144845114 -0.6596420586246035
H 0.8565284019884944 -1.1435116717253826 0.6882712855389114
H 0.7109303407523784 -2.1569138020580327 -0.8476430318096002
H 2.9731359089749243 2.3951938561876935 1.7593186427421446
Rh 1.721106031450458 2.94767032532035 -0.46869558816353885
I -0.07220356201775946 2.0221831962257304 1.2753394889891347
I 2.406881591548372 0.1995051969448706 -1.3389275127192848
O 3.275160223278834 5.138016428834759 -1.810206786582105
C 2.7053451667746047 4.273234294800218 -1.2869841525893901
O -0.4144226497821129 3.398998352479498 -2.4993961437734504
C 0.4091243115196474 3.17964759317633 -1.7081828046089627
