17
## STRUCTURE-ID: 64568ce99853083ea94975a4 ; CHARGE = 0; SPIN = 1
C -1.5688835474122043 0.3824913439983964 -1.6451083108883326
H -2.390167876741862 1.0176271979186795 -1.3211399542110898
H -1.4735448812307435 0.4035553971454884 -2.7297380527914816
H -1.7029905917544492 -0.6360676868928975 -1.2831694844150647
O -0.6141598914771198 -1.8539023465577544 0.5788250747224263
C 1.6441774681164016 -1.4014302151695635 2.2496742295969936
H 1.8361420140811517 -2.4559051907668743 2.4046767775090965
H 0.6938380631257307 -1.1180462069315378 2.6849348026668762
H 2.460931525007711 -0.7977473724128635 2.6270182905854695
H -0.7261153263199325 -2.8003872862762647 0.6629696433405344
Rh 0.3283262950014188 1.0059783686650299 -0.8001521723315548
I 1.7071352999903786 0.6517428256303688 -3.012149666148556
I 1.5087430206141106 -1.063648614426148 0.12732899913174298
O -0.9245602153191527 1.0622346681011992 1.905786474920971
C -0.49230621532792634 1.0875262803681744 0.8531260939841697
O -0.2877325581209422 3.7483517456465867 -1.899181679468574
C 0.0011674177674118906 2.7676270919599895 -1.4037010662036382
