18
## STRUCTURE-ID: 6456b7655470cd42a02a1575 ; CHARGE = -1; SPIN = 1
C -2.879971985961809 0.15266717699130497 -0.43054390671482684
O -2.9090396890726398 1.1896168380607612 -0.897650964865127
H -1.8010979074463704 -0.5127099897102451 2.4881428168934883
I -0.6969068998981635 -0.23835961523641574 1.2220282644981983
O 1.6917052476298453 1.6825528453927723 1.0600647838493686
C -1.253431785733492 -2.3100017035310634 0.8979593469402782
H -0.49025189234948463 -2.770751972876299 0.2786423472279279
H -2.214005372899571 -2.293682542552045 0.3859589053834744
H -1.296171104674148 -2.7792933696253304 1.8768416187368573
H 2.3702564995395954 2.2381321027158063 1.4876021691543877
O 3.7745541077728975 -0.8229863570993857 0.15060823772201432
Rh 0.5711155425193766 0.4089495211657267 -1.1811238941335338
I -0.9427111579911732 -1.313028735977535 -2.465447838142184
I 2.2032672495038295 -1.49771344949256 -0.6124595235610092
O 2.807192254360347 2.1669545055864834 -0.8149181392601138
C 1.8771289857322506 1.5636213611303966 -0.2810686682448532
O -0.5598696469888098 3.1223012992390102 -1.6585130000976198
C -0.25176244404248727 2.0137320858186243 -1.5061225553867292
