13
## STRUCTURE-ID: 64568c71fe2e2c1512224134 ; CHARGE = -1; SPIN = 1
I -0.35172104093007944 1.3106868214666987 -2.739564189937129
C -1.4644827651133316 -0.31282092921984983 0.3238754391868832
H -1.7751235163822425 -0.9878957217098754 1.1360818899654521
H -1.9746348393133442 -0.6074927079501242 -0.5952827968677834
H -1.7942875891859502 0.6980622281793795 0.5782718188080493
O 0.7701941052758904 0.5379922869874345 1.9899195970933181
Rh 0.606571505955436 -0.45949141768075347 0.26632371492821166
I 3.0801372410011796 -1.3666262189774 0.777912715529118
I -0.24187698725682863 2.042327210909545 2.7479214681080264
O 1.4007947991240184 2.046903646163353 -0.5231614276605417
C 0.7198370419048714 1.1279109138465324 -0.8168824690263935
O 0.5018495278265815 -2.3997040538413095 -1.9952505125524458
C 0.522742517093755 -1.6298520581736622 -1.1501652475747988
