12
## STRUCTURE-ID: 6456688cb868e512753eadd0 ; CHARGE = 0; SPIN = 1
O -0.7980129782699891 0.6688880252389887 -0.26842570973246516
C -1.66587025890208 -0.15349031481512115 0.496925380929751
H -1.4810947937852748 -0.05490625849436172 1.5663722957588762
H -1.506354157297653 -1.1845176196598886 0.18640273123422202
H -2.6890722756013243 0.14972604793628888 0.2626030100030102
H -0.8667793896752922 1.603153693061571 0.021890563477006405
O 0.8528055185196838 0.4322577797706103 0.21389633145780698
C 1.3754452884874973 -0.401349289625374 -0.7654616961667318
H 2.377539272209767 -0.062141688184878974 -1.0320368194422471
H 0.7652319565522901 -0.288137903911345 -1.6679536893411615
H 1.400382796010696 -1.445931349247358 -0.4424919593717758
H 2.235779021751731 0.7364488779308412 1.4282795611936463
