13
## STRUCTURE-ID: 64568c642b060876be1d80bb ; CHARGE = -1; SPIN = 1
I 0.8091509223223208 2.124183225993222 -2.6377133135275384
C -1.7617067075495938 1.2042799762743668 0.1997809435965364
H -1.5565501096262173 2.0232155495193522 -0.48783148987556874
H -1.9397982426108724 1.5959316726615451 1.201310277188117
H -2.653461234415592 0.6697628823062933 -0.13077018972356008
O 1.4744100314060464 -3.125452226850572 1.9403282444549657
Rh 0.887120246339713 0.21395503811475497 -0.8946492584798025
I 2.3466916521900094 1.5959322537158114 0.7895419918356721
I -0.19072827812077833 -1.528728930204417 -2.528273083711137
O -0.5430467519692068 -0.7046764541982863 1.0622354767808488
C -0.6474737153749415 0.2120049885340279 0.2851160077327823
O 2.0336552498920133 -1.8149304410004479 0.15035671331475756
C 1.7417369375170972 -2.465477534865667 1.050567680413921
