18
## STRUCTURE-ID: 645689da0b571e41535eddfd ; CHARGE = -1; SPIN = 1
I -2.794536806345224 0.831085329993092 -0.14600003066352557
C -1.4666749794146268 -2.4344911892540533 1.39837988416031
H -1.1494109421028622 -2.447818279172636 2.4394705323386696
H -1.3847845188665155 -3.4330627344317337 0.9756084588470064
H -2.517637357061778 -2.1343655348604735 1.3498179929370344
O 1.864364369722669 2.3204642040700274 -3.0113096420683028
C 1.1441733761185504 2.473407606507822 -0.38214862729977367
H 1.6339194134960053 3.2327280020065587 -0.9735479622887796
H 1.796888198435524 2.1059147413435046 0.4019128060517361
H 0.21019894360625985 2.8420350601235977 0.02876426170608463
H 1.8899832786555606 2.0032025154940696 -3.913672097528726
Rh -0.593902221761359 -0.7260057302299439 0.12867427587547647
I -0.9748844850521555 -2.1081916824933877 -2.135094615716573
I 0.7040173840811564 0.8685441436278821 -1.7055053453360491
O -0.06549118473313924 1.1095350054715036 2.4237395217719677
C -0.22946813239942718 0.4028092805574682 1.533822917078937
O 1.3398700791932443 -2.860134636146169 0.9537425034848737
C 0.5933755844281343 -2.045656102607119 0.6333451666496523
