20
## STRUCTURE-ID: 6456b67de6489478164975a4 ; CHARGE = -1; SPIN = 1
C -2.237854067731301 -2.062874895658721 0.018269605781311708
O -3.2086949365252755 -2.5272505068089344 -0.3622362441268714
I -0.1760168728886494 -2.5603758102765606 -2.5363724935863954
C -1.4102685948922822 -0.20968172969124874 2.692736915195048
H -1.9749445914590547 0.6081729230887912 3.1397294566566134
H -2.0273831648700855 -1.097864486211714 2.579829410755111
H -0.5824452237525364 -0.45935472250275194 3.360746167018701
O 3.8616974155490826 1.0660382594972528 -0.8974150631245296
C 1.340535564805196 1.677268404875449 -1.71232829967235
H 2.235893899470499 2.260394563083313 -1.8657745099405179
H 0.5890542906865922 2.2457441957616493 -1.1755198866142127
H 0.955196127525391 1.3073221644033033 -2.6564770396636836
H 4.580710219014607 0.5854430337172154 -0.48718896527375605
Rh -0.5776162337869095 -1.0454510373004295 -0.15386459424085422
I 0.9721741316261684 -2.5611279153948567 1.3796292128292758
I 1.8968889826514332 0.037094455253554086 -0.5082202132924172
O -1.7388448651748218 0.8700597530547453 -2.1399161275705953
C -1.2727767682231728 0.19188781458774834 -1.33853563082214
O -0.42144867444728484 1.4046213365562137 1.2543114434699691
C -0.8038566375771313 0.2699341999660734 1.4085968562223663
