12
## STRUCTURE-ID: 645688434eff880337071023 ; CHARGE = -1; SPIN = 1
Rh -1.2493031493596356 -0.9494834319840905 0.3397982407168437
I -2.3592326095412455 1.0815088670909603 -0.9134029620109397
I -3.437436391211227 -2.290283296902209 0.08043251230631465
O 0.6201028338632016 0.5973772357946261 2.059992899048184
C 0.06034980250784412 0.0020293151526687954 1.216900545698561
O 1.1521881563580685 -1.1826667030300397 -0.7690478243965638
C 0.6610720698763864 -0.15820344230994676 -0.33248927069283357
I -0.20628135466846692 -2.8518420988198634 1.903989867073164
C 1.0911369462224942 1.2001484615982572 -0.7993481428591054
H 2.165668838517878 1.2664114902164882 -0.6209971806277756
H 0.92348447868402 1.2729356308894881 -1.8742817814921446
H 0.5782503787506972 2.012067972303642 -0.2915469027637003
