12
## STRUCTURE-ID: 645668e05cc2bf311a5ede08 ; CHARGE = 0; SPIN = 1
O -1.3228694216739756 -0.8531947017828369 1.005586817503891
C -2.039343457417079 -0.3384706154664363 -0.09151529350671427
H -2.173914974023558 0.7449362851651098 -0.009902092357095375
H -3.0177487721696448 -0.8177905015171144 -0.08732179270098558
H -1.5379787355826287 -0.5652184037085352 -1.0385439304605892
H -0.45223861603446003 -0.41577208003055194 1.0293920581140632
O 1.2319494456985007 0.41819263141356205 0.8131289045633596
C 1.7575494354084793 0.41702679222526645 -0.49947740907743127
H 2.046879762626272 -0.5905627218282407 -0.8109338672172806
H 2.618957716702341 1.084042456864347 -0.5829236320616896
H 0.967064067719392 0.7787973848565913 -1.1544941978651293
H 1.9216935487463598 0.13801347380883752 1.4270044350656044
