12
## STRUCTURE-ID: 645667a123fd791c3776345e ; CHARGE = 0; SPIN = 1
O -0.03694761954557458 0.43348095403934134 -2.158642563001664
C -1.3629574267531874 0.021529719880677707 -1.9179306670290588
H -1.9701452505586905 0.41391905541684293 -2.73251994190718
H -1.7369689250658928 0.41889294684062217 -0.9688213643878683
H -1.444731217548247 -1.069628766082992 -1.9032801874069554
H -0.4314306684979482 1.1245789529264067 3.0299998751184165
O 0.9968080444582478 -0.7394012436168493 0.35163684955322594
C 1.5919923999772407 -0.5244868153268206 1.3731510482987992
H 2.2224180495238564 0.366859938960449 1.5065691858522197
H 1.5652128309267095 -1.2229441672519359 2.222065957710471
H 0.09178959937403008 0.6902337435641017 2.638819683720202
H 0.5149601837091263 0.08696568064974415 -1.441047876521146
