12
## STRUCTURE-ID: 6456666e32034f6771351d7e ; CHARGE = 0; SPIN = 1
O -0.5066300225096679 0.785376479424767 -1.1059754082239461
C -1.0608574971803055 1.1245005713385905 0.15068062747837155
H -2.1492332763659894 1.1649262335482962 0.10329897133095729
H -0.6712774256144861 2.1060591592290843 0.4135993898831259
H -0.3151039756218254 -3.063029965816493 1.90349677393227
H -0.9622994103979569 -0.0007894930016328059 -1.438381985391678
O 1.3311794150666663 -0.5550197410113352 0.3909176958482313
C 1.5099928589452019 0.023046347113104736 -0.656397819959491
H 1.8717632791966299 1.0591191714511832 -0.698143147611758
H -0.7486727535427984 0.4016056289089154 0.912957615807057
H 1.4902358314807678 -0.49720538214174365 -1.6241100879327324
H 0.21090297654376516 -2.548589009042738 1.6480573748395917
