17
## STRUCTURE-ID: 64568a4c54a4b03cc07ccc04 ; CHARGE = 0; SPIN = 1
C -2.465655990312327 0.043562284317983715 0.4715512023036686
H -2.623123242561902 0.23939485037190905 1.536395621690492
H -3.0403757713752158 0.7644993286502171 -0.122159868180663
H -2.801486694964945 -0.964946504183081 0.2301706747030508
O 1.382557497203758 0.05649138479027764 3.36965894358346
C 1.0836324297539683 -0.32609365792954925 -3.3578341782148113
H 1.9103403614601528 -0.7517652500628922 -2.799017519112533
H 1.189877210217508 0.7485903705248247 -3.4622590101125272
H 0.9596400172258333 -0.8119627045497252 -4.319949572244828
H 1.2282393199559187 0.680995160915135 4.110103731402581
Rh -0.49596194013959727 0.44699647173147444 0.07765925526629941
I 2.0166465440442605 1.4525448937903376 -0.18168047444983496
I -0.7323484802524068 -0.7025856580938643 -2.22706635952819
O -0.2526400755891043 1.1302039786132818 2.2740946674331397
C 0.6264767583637374 0.2675400938953181 2.3349541765044757
O 1.2404048648202672 -1.6819789681879185 0.9430426928664287
C 0.7737771921500958 -0.5914860745937327 1.1223360160897744
