16
## STRUCTURE-ID: 64568e2f4fe1e601ee7ffa8b ; CHARGE = -1; SPIN = 1
H -2.8004798828488022 2.112165648099507 2.4993673388068296
I -2.072013623153029 0.8116994294068098 1.8189402791420444
O -0.9768442484483408 -1.2504752458464836 0.7131224603036405
C -1.0532976257254634 2.052380218028018 0.421127708283518
H 0.619385941335537 -2.6401428447448976 -0.7033350108513415
H 0.023047084623152112 1.892331697289264 0.6226462663778525
H -1.2237332423237082 1.5510432105196525 -0.5470101592693537
H -1.5987929323072265 -1.7859666462190893 0.21117854245227732
O -0.361368171712472 -0.5758962810916877 -2.206693209308228
H -0.4412865530889369 -0.05316008287124426 -3.0342400828118263
Rh 0.9749027860992948 -1.352815137874395 0.09282950625150506
I 3.5304930618974533 -1.882272982655665 -0.16236478214044328
O 1.850172988436617 0.5975488574754282 2.1965580063789685
C 1.4506913285306084 0.027651624223547167 1.2831358172018006
O 1.4084494905185767 0.7067487646191941 -1.7370606471121632
C 0.6706735981667513 -0.21084022835799673 -1.468202033705058
