12
## STRUCTURE-ID: 64566a20396565406576345b ; CHARGE = 0; SPIN = 1
O -2.991982182153163 -0.48124453759042884 -0.630863778933194
C -0.1715506264640317 0.4566471489321978 -0.2245845717434064
H 0.0616672946429052 1.4730349504840887 0.10556214429329158
H -3.2724591257392897 -1.3716529858211337 -0.40522703792765014
H -1.2227050866374911 0.14650847794760935 -0.34762947674442896
H -3.7682195241905814 0.08254683042253773 -0.5903202176260666
O 0.6908142320186198 -0.3765010553377864 -0.48374802076623685
C 2.0770028099512414 -0.1418330767832469 -0.40952908771083896
H 2.3175087213899115 0.85822722636797 -0.0439640444122211
H 2.484239208152385 -0.313857086673952 -1.4104526795890353
H 2.5003574522312264 -0.8985545088943918 0.256722583599225
H 1.2953268267982574 0.5666786169465583 4.1840341875607185
