19
## STRUCTURE-ID: 64567a85cd4c4c79ef67f9cb ; CHARGE = 0; SPIN = 1
H -1.7403170153532472 -0.7379590823373218 -2.4925576660376016
I -2.8566617490930657 -1.845610752909384 -2.752003999785307
C -3.4881024640135467 -1.9787664168191026 -0.6821997841703321
H -4.340648522758231 -2.6541581562668903 -0.6596420598997967
H -2.6415052684529483 -2.370324103518871 -0.1250247172236735
H -3.7551482008501647 -0.968261475672257 -0.3857424715513898
O 0.9798646897256614 3.275731329730491 0.9247637372201303
C -0.23903331868795022 -1.3395275193237033 1.5421947812416728
H -1.0551977735496394 -0.6473574736706512 1.3689539785354548
H -0.46793154366706735 -2.051655244522859 2.325926181975204
H 0.06621999685115769 -1.8287891868216277 0.6245071637568802
H 0.04881915171138069 3.2798473984999164 0.6767673757911244
Rh 2.149481802802182 1.9085175002123356 -0.05086347039613282
I 0.110459943438439 0.9744550975092042 -1.324453899709151
I 1.4803290889038985 -0.14362907218696166 2.244839179104429
O 4.68814299455732 3.272041173251687 0.7629561483624344
C 3.663028479872463 2.795912420214689 0.5142192975134627
O 4.104393362304241 0.23398316296722083 -1.5488852284043813
C 3.2938063462591214 0.8255504016640951 -0.9637545463229938
