21
## STRUCTURE-ID: 645678ccfb790d3782242a33 ; CHARGE = -1; SPIN = 1
H -2.9313727743149314 1.2724597425485986 2.4877626544077076
I -1.304310744440247 1.2233593237723297 2.1938705072690285
O -0.4065303449164609 -1.7405080568184403 2.362418177417757
C -2.3456811634123045 -0.23343517743247202 0.4426814671213751
H -1.7348024944869616 -0.8072640301655056 -0.26188159679864503
H -2.9774748411223433 0.46910246629219626 -0.08397454704816454
H -2.8989958132564406 -0.9110444808838496 1.0770243349861244
H -0.26093080128160806 -2.573917743694029 2.852223575819711
O 0.5573987937450413 -1.2601703930591435 -1.2974664688164157
C 0.5706574713550104 1.3171499073901534 -3.193402948158552
H 0.7123753972055885 0.2606756300987917 -2.9848293144025635
H 1.520656769738162 1.8107412412562842 -3.359915845043857
H -0.12390509582334057 1.478573823856116 -4.007360839545615
H 1.195897188673262 -1.9585446474477628 -1.149993897091034
Rh 0.3232364248144733 0.16372491772927694 0.47672171747467423
I -0.28313585632864885 2.1365530771422505 -1.4090627835914689
I 3.4773610757276447 1.5294447080155187 -0.6214243520936741
O 2.6356108996996745 0.6603772424230917 2.181306319951701
C 2.0125954875483725 0.7136242967178197 1.1836610712744169
O 1.6240119166128486 -2.135420876959084 1.5376598428247283
C 0.6373385042631848 -1.4154809707821299 1.57398292404276
