12
## STRUCTURE-ID: 6456672919d9790e4f5eb020 ; CHARGE = 0; SPIN = 1
O -0.35824126171838017 -0.7305246855041524 0.01836916119445815
C -1.170339686982978 0.0392754873227623 -0.8590346133810719
H -1.859117442422116 0.6811047775732049 -0.30724938977827254
H -1.7184952061729422 -0.6347056553861128 -1.5170595564143114
H -0.4775161986413989 0.6428641962981156 -1.4436227243513329
H -0.9340497792395698 -1.2847229191926826 0.5860610034362443
O 1.7454352650413334 0.2078888083200321 -0.7577062684524346
C 0.646526651496611 0.34523807647146115 1.1312281844711796
H 1.5219571345907663 -0.18470877716395112 1.4552308562686964
H -0.18427842360150107 0.2876483290481724 1.8322163259793647
H 0.8360222831320054 1.3440487285451825 0.7862300522728791
H 1.9520966645181694 -0.7134063663320396 -0.9246630312454172
