8
## STRUCTURE-ID: 64566391d6e31f1a9f7ffa85 ; CHARGE = 0; SPIN = 1
H -1.7408848549500906 0.08960352744231699 -0.022729817976933665
I -3.1854341550720537 -0.1127859738099177 0.6092300779049478
O -0.0568243823402788 0.1446181406681318 -0.718828686803731
C 1.0138137726642482 0.08771794720281469 0.20640702803440847
H 1.9633577844779806 0.3201999703030382 -0.279184406452037
H 1.0758508200436177 -0.8962802315898749 0.6788474764561478
H 0.8126563387815856 0.8381653170132133 0.9686984614981587
H 0.11746467639499063 -0.47123869722971123 -1.4424401326609764
