18
## STRUCTURE-ID: 64566ff297cbbc3c7619eb71 ; CHARGE = -1; SPIN = 1
I -1.4855749520274522 -2.319250746987062 -1.7128670520742233
C -1.1033962490897395 -2.1427343715597926 0.36769880839058283
H -0.5412230343641212 -1.1982254636630914 0.5625440918195005
H -0.4965767521042082 -2.9858116598485402 0.6732351304944008
H -2.053892074229447 -2.132419389078304 0.8868402786987089
O 3.2309535092939736 0.6454463113555196 0.538527757095617
C -1.628381877286926 1.75357835956802 -2.389092115020348
H -2.197234207536524 2.15505357637723 -1.556684279671583
H -2.0867926744140575 0.8508004857724478 -2.7778891759028834
H -1.4873018706842043 2.493508714441346 -3.167208653838778
H 4.05854514632156 0.14994160799356873 0.37913814822723524
Rh 0.4204857382199686 0.6543515343193844 0.9271919687602757
I -1.9915983417674723 1.6060244478481704 1.4762424611996021
I 0.3573595621031002 1.2138914114701913 -1.6362081010637473
O 2.3492219987904104 -1.401110689084836 0.4798156285218424
C 2.15990965457162 -0.1918991401651837 0.6107704244846378
O 1.4932125026106362 0.3605641074346233 3.693529040335077
C 1.0022839215929051 0.48829090380631857 2.644415639544068
