12
## STRUCTURE-ID: 645665d1716ea44d2a068a13 ; CHARGE = 0; SPIN = 1
O -1.4774186437672208 -0.3149377126724354 0.7522365021455353
C -1.6952824244877818 0.5589425342710981 -0.26121063955353485
H -2.3242274642421266 0.19955011117072805 -1.073125182545964
H -0.6380458082601481 0.7458585573868087 -0.777722118835984
H -1.9506743084435438 1.544671294543018 0.13103889868398277
H -1.7671321855504714 -1.2309829609846985 0.5447630530554393
O 0.6949959463895007 0.4715982461260314 -0.6804497021100846
C 1.0024745971903515 -0.24150895246562515 0.3444259657231867
H 1.5342106664953385 0.28030550868856585 1.1517958494846716
H 1.3341040540585911 -1.267573787523591 0.13447323632936575
H -0.09440522606650002 -0.45502685277254856 0.8982227263589856
H 5.381400796684031 -0.29089598576734715 -1.164448588735597
