18
## STRUCTURE-ID: 64566f5531659555a62b66c1 ; CHARGE = -1; SPIN = 1
I -2.2817765317448284 -0.9628535168751777 -0.27809586570895783
C -3.0361185270940414 1.0918932050611534 -0.2406370930628872
H -3.8525649601790866 1.1099663267372506 0.47362395296378473
H -3.3649774212703423 1.3401299891940592 -1.2437186420694422
H -2.1899334183725765 1.6951661494521253 0.09110233411568074
O 2.156611375542229 -0.38546460293373047 2.552812543598145
C -0.11891514266763094 1.8311631894379377 1.018029875087117
H -0.4835788506330294 2.3958899453704627 1.8620645098186568
H 0.4715890624146303 2.370979714318832 0.2923885302402798
H 3.869742876197287 -0.3711542905057348 -0.40938091519928477
H 1.899532318580424 -0.5401031973263135 3.4665207631182584
Rh 0.6863091581326143 -1.4165354928432838 -0.7305847118024659
I 0.6260975193283527 -3.4905275035222534 0.8485841852699688
I 0.4885202593112417 -0.0324209175630049 1.4435698027489734
O 1.4924919558772356 1.0108237396199948 -2.275041772142445
C 1.1426798718459776 0.07512910103943227 -1.7144662176420196
O 1.4209896641682156 -3.20452717954346 -3.0027083669469894
C 1.0733007905628158 -2.5175546591183817 -2.1540629123861956
