18
## STRUCTURE-ID: 645670d47b01661d37750ef8 ; CHARGE = -1; SPIN = 1
I -4.3407128153358565 0.6036151394393915 2.049595716941991
C -2.9353010499980883 -0.4093283969993114 0.810170263268457
H -1.94432852318525 -0.25848624701670264 1.2287168526627694
H -3.001092576232622 0.01324944674351499 -0.18924902595874296
H -3.181768074335232 -1.4632569280987702 0.7956196595415629
O 0.45321816904808104 0.353196793866091 1.1656106522333687
C 3.24382591107029 -1.1347371870245475 0.497721849467645
H 3.2542544678819487 -2.144211842810205 0.1066637548943233
H 2.3346667819816536 -0.9489677275595299 1.0615788016695928
H 4.126281792474538 -0.9195633870290688 1.08553046582336
H 0.554659698152173 1.175861524252522 1.6492892991089287
Rh 0.013800611014374168 0.44693137582307174 -0.8635682600804656
I -0.1625197802258337 -2.1797408446176285 -0.9347579085643262
I 3.2148497396165734 0.2185534823565388 -1.1765628498428284
O -0.25149909642542984 3.3657029274191217 -0.3101963793931422
C -0.14210301305891937 2.2544368629388662 -0.6055056812895936
O -0.7823370870796326 0.5286932324368316 -3.7392924842953166
C -0.4538951553629321 0.4980517758796786 -2.6313647261875572
