14
## STRUCTURE-ID: 64568eb1cab13a0ff33ae5e0 ; CHARGE = 0; SPIN = 3
H -0.5523006338181928 -2.904355292193259 2.086465637010823
I -0.982410414742635 -2.2271472555607534 0.718919402787784
O -1.0493118524380056 0.25516510107659673 -1.5819829250509219
C 2.444929030856543 -1.0394119074037564 -0.9430988425267204
H 1.8561414053999368 -1.9374614979749907 -0.9174456306700483
H 3.294050244995751 -0.9280944090260299 -1.5882064375196274
H -0.83349737442403 0.43561477672833887 -2.5223654302839527
Rh -0.28184886140166177 0.5700847593002598 1.1281274403379111
I -0.17076274732348085 1.1277591161582166 3.696952304476134
I 2.3703618957722803 0.19951349780632746 0.7140467880615026
O -0.35525584612236616 2.3364838942797626 -1.0866016975226258
C -0.8014137466646507 1.256626430801157 -0.7616584872814303
O -3.0126915046759257 1.6255726357810663 0.4530705469220077
C -1.9259895954135653 1.2296501502270656 0.6037773312591496
