12
## STRUCTURE-ID: 64566ad62c22981cc628a813 ; CHARGE = 0; SPIN = 1
O -1.8537683623712702 0.23028875342985614 -0.6875339529187731
C -1.067192228280146 0.574519684853142 0.36855184396832297
H -1.4732508620964198 0.36485581038421316 1.353949544053676
H -0.8127395827223091 1.630587573495957 0.29284319832406625
H -0.26415764534150743 -1.0155692867827253 0.8235738610625868
H -2.3155282547125227 -0.6076380595144139 -0.5391420439601843
O 1.700415608010841 -1.1409403592541634 -0.039175649326657035
C 1.5259322825157209 0.07254866958504962 -0.4908477390296929
H 0.414468563612036 0.39612532362270736 -0.11773403621885077
H 1.467911926061866 0.16327997954208998 -1.5849369923401004
H 2.1767241079935187 0.8378035874141617 -0.043225097737209305
H 0.5011844473301847 -1.50586167677587 0.6636770641228266
