18
## STRUCTURE-ID: 64568a72c702e0501333a73d ; CHARGE = -1; SPIN = 1
I -2.0255103000895374 1.572686013710866 -1.8747301682042081
C -1.3824301872250522 -0.9448404617243499 0.3070946408960614
H -2.2231571744163996 -0.36286786832563317 0.719065224860486
H -1.8365831816840208 -1.6930612038455188 -0.35761573769972443
H -0.9622506562532077 -1.5129368493800601 1.1504136154094637
O 0.8923566728000857 -0.38982182680486993 -3.22578923440698
C 0.48396545664765794 0.6331366247103141 3.356588963350849
H 1.4078215450824703 0.12474946832494742 3.1004054385093105
H -0.3321125784044178 -0.07321306561092178 3.457314548128696
H 0.5947312322167991 1.243895914149921 4.244437797161165
H 0.9159421975107186 -0.9719884007799588 -4.013000384930632
Rh 0.025858070357509963 0.3025882526467186 -0.675870278935149
I 2.0387265348113353 -1.1971883938392793 0.23782248775255266
I -0.010218729887894467 1.9648439150538963 1.7130512710788524
O -0.5138162992272335 -1.913062156469766 -2.4143890910351113
C 0.08605887821781215 -0.8752305971001942 -2.269962110060203
O 1.6748297096292877 2.50809591575657 -1.9530249354210725
C 1.1657888099143126 1.5842147195268277 -1.5018120464543943
