12
## STRUCTURE-ID: 64566aa158c5402a662eaab9 ; CHARGE = 0; SPIN = 1
O -1.2475861097284906 -0.11869965710757192 -0.6003920156142899
C -0.1778346650366895 1.0759843838256011 -1.0693097838002699
H -0.7955933852884934 1.957412669684838 -1.1597501434639823
H 0.1576390502629365 0.6667381608113045 -2.013976301159622
H -1.710773198330846 0.23793126057399097 0.16789836748040995
H -2.3679828976918404 -1.3039697120228424 -0.7319134638394358
O 1.6799651333380525 0.14897054975646715 0.14660275348415028
C 0.6770374825007758 0.9852401302674327 0.03189571235459339
H 0.41266178702688966 -2.5755828052899736 2.3343461409597754
H 0.4765435775386603 1.5233567499875647 0.9494753503746158
H 1.0553127359420862 -2.2399789876692355 2.6148199480502097
H 1.8406104894669633 -0.35740274281758855 -0.669696564826153
