12
## STRUCTURE-ID: 645667019309a939c87cab8e ; CHARGE = 0; SPIN = 1
O -1.464251034515177 -0.1644436910604707 -0.6980833914123761
C -2.2085508143909065 0.7189636952379912 0.1801896256894515
H -3.21972188473748 0.8120631343185505 -0.2083974572939071
H -1.7379797260166727 1.6967888732838632 0.25680372542088314
H -2.242126259356603 0.24991360819916475 1.1603294923567657
H -1.4512851854673363 0.20072313161993105 -1.608411625916093
O 0.9250395326381889 -0.005235687702354141 0.3729906400464904
C 1.8440583601600014 -0.6377392864177599 0.8221885834671038
H 5.48497356161007 -0.7365507707931608 -2.01261216356874
H 1.8985546898319368 -1.7304765279389225 0.744340428744358
H 2.6829086212206996 -0.15891296766172033 1.3359433525905131
H -0.5116198609765388 -0.24509351108471378 -0.34528121012459373
