18
## STRUCTURE-ID: 6456736d71d3e31649159876 ; CHARGE = -1; SPIN = 1
I -1.7972346415045661 -1.460664261689238 -0.6414107457189795
C -2.129406778745592 1.6874199250762179 1.5893458998116903
H -2.3958157961238937 2.1650221969212624 0.6447480136283408
H -2.7353343626012236 0.8079241901423824 1.7964668377791781
H -2.1535549211248393 2.408329049893392 2.3970338681210377
O 1.9189812778960855 -2.7396067622487363 -0.611253344117999
C -0.18097396878053604 1.3892983716970393 2.018031156651848
H -0.36662515357414327 1.0283109458803255 3.026382700306972
H -1.1012071175002376 1.1995634159758024 1.2161074532971485
H 0.17825749057983944 2.4136595633393014 1.941665775876275
H 2.248804361538471 -3.65519461402984 -0.6707333333848866
Rh 0.4573709179989674 -0.5861600564640291 -1.7102787627270515
I 1.3418560836832298 0.0662946603485723 1.1445210099192578
I -0.38895311180712633 1.9359301510183327 -1.9252312254299067
O 2.9847275937680773 -0.5183694295903164 -3.2852274480152244
C 1.9925934273695969 -0.4115568452342244 -2.658998548470515
O 0.9995476319485432 -3.3073513112334556 -2.5645973035192537
C 1.126967066979332 -2.4228491898028253 -1.7065720040079062
