18
## STRUCTURE-ID: 6456736ce38c90381f12b093 ; CHARGE = -1; SPIN = 1
I -0.6741477278468276 -1.9005165964839787 -0.33911510035887416
C -1.7733191822070726 0.3126252102599201 -0.24677870358328857
H -1.9274383903676746 0.29909607257596127 0.8263842944795444
H -2.6704097986604975 0.002889373499398008 -0.7685144246291715
H -1.4804677147497065 1.3441862672880913 -0.569814147886082
O 1.4760889152359244 2.6630814683663493 -2.2781182364591377
C -0.08565894682131259 -2.0107943448617474 3.594685497807346
H 0.5933581498381088 -1.2161479596053553 3.312506671527802
H -0.09168189720359203 -2.7940874072100588 2.847802752438601
H 0.14895763333933004 -2.394894497307982 4.577711979963138
H 2.224579128541987 3.168796507244887 -2.6525342101960345
Rh 0.32367233496703374 0.3333203227728456 -1.2551323362365883
I -2.05519783973233 -1.1849100828483463 3.6723991542266483
I 1.4590515035149036 0.9874787449212776 1.0285897322082158
O -0.1273479940028591 -0.00692716821156516 -4.188587327317097
C -0.04972208780961543 0.07889897431037053 -3.035199608216434
O 2.9090309953453377 0.9631757686191916 -2.4362400865182026
C 1.8006529186188711 1.3547293466707753 -2.09004590125041
