12
## STRUCTURE-ID: 645664da4999303f444b65fe ; CHARGE = 0; SPIN = 1
O 0.7828019375096521 -0.7973260811188068 -2.6153254672310435
C 0.9883151322919079 -1.0321886400563363 -1.4822287829917584
H 1.2944131118941211 -1.9713087224419108 -1.0123010627180065
H -3.5795919430589627 2.340309586250169 1.0466478845674108
H -3.381390249935315 3.0815749474194205 1.1737825836992497
H -3.307959903708198 -1.8230978524103623 -0.07955124771193353
O 0.8138871682059793 -0.03628098219984056 -0.5139119624296067
C 1.3495103602597807 -0.14005278881578476 0.8363212627131288
H 0.7623148838715673 0.5158264319963185 1.476602145316489
H 2.4027264817261607 0.1447786963712555 0.8431231999805605
H 1.2241395828839339 -1.1663675835550564 1.1779311035280435
H 0.6508334380593757 0.8841329885609414 -0.8510896567225359
