12
## STRUCTURE-ID: 645669e2c941fe7b0e6dc168 ; CHARGE = 0; SPIN = 1
O -1.4970442463359523 -0.007267202561411398 -0.3158391182827845
C -1.516699068341506 -0.2874882950282825 1.0698650096295812
H -1.465037581386423 0.6307422458533191 1.661576808113768
H -0.6391553465104404 -0.8962132486353888 1.2800088385088555
H -2.411596507921046 -0.8492779339276555 1.3483779923221975
H -2.2840368140914737 0.5027358536889195 -0.5430667385717541
O 1.0487132131574504 0.9068207760858886 -1.261223719741477
C 1.962054458079009 0.0152481239350846 -0.667151828310548
H 2.9598414425919213 0.3337680602397753 -0.9669616258363932
H 1.7988912809368436 -1.01193728339129 -1.008834757696167
H 1.8954150924424735 0.04309523386478707 0.4258379286793936
H 0.14865407737918432 0.6197736698762767 -1.0225887888147096
