13
## STRUCTURE-ID: 64568c06d940c32fe3092920 ; CHARGE = -1; SPIN = 1
I -0.9552899923250296 -0.8293144378569391 -2.2993228659260296
C -1.57839594130728 -0.020206941271246146 1.211995004591179
H -2.3587238291200716 0.6225351747682073 0.7872652810619675
H -1.5143673818246575 0.15076816966052545 2.285095135444982
H -1.8529261067781406 -1.0618816222694392 1.0341102920190797
O 2.409428607486785 1.0208407061909226 -2.766487497556226
Rh 0.15396615826329416 0.6343379093346175 0.16790491400233298
I -0.11812128450415725 2.949791924950711 1.3066802076236035
I 1.7659607150672807 2.031707726109764 -1.3464287061147737
O 1.825423479809689 -1.4114922772840022 -1.3983740229138546
C 0.8413083498584754 -0.9179130541272492 -0.9378364561196157
O 0.8159678221843217 -2.075396734171437 1.2726837979735783
C 0.5657694031894921 -1.093776544034453 0.6827149159137711
