12
## STRUCTURE-ID: 64566a67a265456c154d3033 ; CHARGE = 0; SPIN = 1
O -1.0932961172643099 -0.2816869427574214 0.18157753226453618
C -1.2352143825607569 0.0309680135543 1.50402578517821
H -0.3975260144641113 -0.3292607741598753 2.113191535340067
H -2.143233909491491 -0.49570740076153746 1.8238448765293032
H -1.3854033758651223 1.104627410826479 1.6702658443142113
H -0.14427463932564558 1.0079319136611669 -1.1661381440341583
O 0.3678159142455898 0.507067446867883 -0.4986359394148716
C 0.9967807386890475 -0.6235887598971749 -1.1299431117054715
H 1.567141853500877 -0.3073791384512855 -1.998898645740802
H 0.21565637799202825 -1.3263351979594271 -1.4218466988431389
H 1.6568462232679149 -1.0759933681614762 -0.3938826769815891
H 1.5947073312759883 1.7893567972383597 -0.6835603569063139
