12
## STRUCTURE-ID: 64566788d453d602b53eadd8 ; CHARGE = 0; SPIN = 1
O -1.480430683275203 0.5421095193744381 1.0088841617832653
C -2.057639607531947 -0.07222013155967687 -0.11869799105110972
H -3.1141295477175195 0.19345874547321854 -0.12105818950388905
H -1.9651158832034725 -1.1621441795417164 -0.0724119426626482
H -1.6010530857166063 0.28648119622451074 -1.04757940637639
H -0.539186407812152 0.2910494771441658 1.0389468873284402
O 1.2769527483531375 -0.19647004326644538 0.8212406120508674
C 1.8042431206704994 -0.03862906792930817 -0.48119142359402434
H 2.77801217017394 -0.5251928099730709 -0.57597731911085
H 1.8978124401354197 1.0183593598816956 -0.7463837341082635
H 1.103735985523982 -0.5167073789856431 -1.1636605701011542
H 1.8967987503999217 0.17990531315782815 1.4578889153457417
