13
## STRUCTURE-ID: 64568bf32048d26ace2b66b0 ; CHARGE = -1; SPIN = 1
I -0.9599100735472147 -1.7309443835427991 -2.199746502501775
C -1.3047962998070963 0.8145628100953937 0.7200553262825353
H -2.079503216875537 0.3099989079206583 0.12639180711314213
H -1.430319042007746 1.8882981383184783 0.5910876172252881
H -1.462565400105325 0.5334604606730827 1.7609623998091481
O 0.97281278685239 -3.719510495209419 0.6807042544965288
Rh 0.36468790799654666 -0.201061636897299 -0.3698407117967529
I 2.9257087407417948 -0.926063780618841 -1.0298456421861324
I 0.22846038643571992 -2.19370485292733 1.4415866143961855
O 1.0385858373200094 1.6872814239899052 1.8515800316307887
C 0.6754036835676018 0.9848819995532917 1.0203047450564267
O 0.5754543328817058 1.584738244980861 -2.7705512191923396
C 0.4559803565471669 0.9680631636640301 -1.8226887203330358
