12
## STRUCTURE-ID: 64566bbcbb3f95071b6cd4b6 ; CHARGE = 0; SPIN = 1
O -0.7013376904897011 0.9093130424364022 0.14115744549294051
C -1.4931492196126366 -0.04078126511465085 0.7845155744219612
H -0.9987333379917587 -0.48419746582204315 1.6537212035582798
H -1.799594434376102 -0.8414865423781641 0.10291404248760318
H -2.3802323997621553 0.4973406828298867 1.1295453087442842
H 1.581512258969983 0.7032799083484121 0.7151952928578796
O 2.0128446427684086 -0.14249988164370625 -0.2823771452498462
C 1.0778383793988917 -0.43343204732630247 -1.1397094342361431
H 0.09670745817270832 0.21614506121557184 -0.6803945675189201
H 0.7076809165765499 -1.4629192815501892 -1.114278622020371
H 1.1835549521029136 0.005474798354266696 -2.1353489275728728
H 0.7129084742428919 1.0737629906505144 0.8250598290352061
