12
## STRUCTURE-ID: 6456699589791b71222abdde ; CHARGE = 0; SPIN = 1
O -1.768094015572941 0.4090177852810566 0.224100561905757
C -1.733886119533635 -0.012390063336602714 -1.1624782112809855
H -2.7292957847915185 0.1135543853993632 -1.580978213204002
H -1.4699206753300607 -1.0667515432497816 -1.1790160229923055
H -1.0053883095605207 0.5549563938490921 -1.7386454541110974
H -2.0575166145495674 1.3453690489702035 0.2857534910567527
O 0.6850844477825437 0.3331539306973894 1.1636711486720175
C 1.56844694527109 -0.4325435886428579 1.447746550435417
H 2.4822649433090542 -0.10369895991500927 1.9513046039816435
H 1.5092868049379276 -1.504607658095176 1.2229153279101024
H -0.836465593648025 0.31541795839804937 0.6299548234059418
H 5.355483971685657 0.04852231064426669 -1.2643286057792376
