12
## STRUCTURE-ID: 645668116a1820546528a821 ; CHARGE = 0; SPIN = 1
O -1.2359337807892181 -0.10913889019793489 -0.3550068329593168
C -0.0990548935558989 0.4313945781720508 0.24273383754687244
H -0.34071155326597585 1.322532852728083 0.8395168229817184
H 0.29605334373068093 -0.35848511504811303 0.8991382811024078
H -2.089623548046734 -0.5281880622098026 2.595674354626836
H -1.648685908549212 0.5562923333058624 -0.9227264903516602
O 0.8662886094295561 0.8525564418742505 -0.6732643976402528
C 1.5111448705299357 -0.20966445741507064 -1.3580229234624817
H 2.053577319612292 -0.8469058609041199 -0.6518575580667038
H 2.2083628995601092 0.2552006347856187 -2.0502192994937727
H 0.7877216444328742 -0.8180887068922245 -1.907481231585628
H -2.3091390030884216 -0.5475057481985985 3.3415154373019544
