12
## STRUCTURE-ID: 645669776df9f82ef473b9eb ; CHARGE = 0; SPIN = 1
O -0.31471423905308227 -0.04811113716503064 -0.22301659010366642
C -1.1020473734696452 0.488210955772092 0.8178564059645894
H -0.4795127070506874 1.0182259529668085 1.547681569919617
H -1.5973353466352833 -0.35172636217463676 1.299380632508498
H -1.8537780855350239 1.1801051016377035 0.42281789436930506
H 0.49683896637151914 -1.8286205466707945 -0.08311244115469099
O 1.0260456901824384 -2.623765359442411 0.07321433620057433
C 0.37148721168505117 0.9411528701068673 -0.9592594353744249
H 0.9117241398364468 0.42416637981192884 -1.7488723255265626
H 1.0777234050133215 1.4843427968861427 -0.321329337077652
H -0.3297667047695766 1.6561076632794713 -1.4022175760181792
H 1.793335043424512 -2.3400883150081357 0.57685686629259
