18
## STRUCTURE-ID: 64568a7cd78626578a15986a ; CHARGE = -1; SPIN = 1
I -1.5987195646644181 -3.153385652842849 -0.3690747435351382
C -0.6235128579098045 0.36476645657736423 1.9023503966788715
H 0.39986071071082124 0.2025517861001134 2.2612082453300757
H -1.1345163710631803 -0.6048001173322751 1.934359828822074
H -1.1098848138436388 0.99718108712622 2.6538866923086
O 1.4784238131834897 0.00506753872874681 -2.2810455537677075
C 1.4509702583336486 -1.8001420281061593 -0.16835854347167595
H 1.6361776792423013 -2.8567079883088744 -0.3316364077237776
H 1.0983128449223407 -1.6106495966939498 0.8396939653998367
H 2.322100523390003 -1.199829226704005 -0.39864876835298124
H 1.1703299368094102 0.5443192157371137 -3.0075722224201877
Rh -0.7453605903675218 1.2189649905379276 -0.05310376647723327
I -1.039045624605782 2.6496474310772444 -2.3455161316798607
I -0.028148875494020505 -1.130039307636927 -1.5582817263535624
O -3.7209109252181496 1.2308509457624635 0.29426683890692923
C -2.5867811330945405 1.1109799687772228 0.12820674423466014
O 2.0393669708304953 2.245123927171118 0.34067968536335713
C 0.9913380188385469 1.7861005700294978 0.15858546673772028
