21
## STRUCTURE-ID: 645678545be8de3478351d87 ; CHARGE = -1; SPIN = 1
H -5.619964197408411 -0.33934064605987563 1.2387461773311188
I -4.059629923205678 -0.6130812978018365 1.2154294862531472
O -0.5581339747032931 0.3914328856107951 1.2151503146020617
C -1.3790366601614894 0.22573027876117616 -2.2686345487511668
H -1.982264005959592 0.673584232347249 -1.489271421113161
H -1.1054655050184405 0.9753237733139292 -2.9986334463494937
H -1.9358477100641067 -0.57035951588033 -2.7447959677109415
H 0.40068030956405626 2.543447713454181 -0.3064491917305748
O 1.6776314247344963 -0.8785152314932434 -0.7489101052829783
C 1.400547894710536 2.3238969804326124 -0.6617176860992944
H -0.4834434650650512 -0.19067208268782676 -1.8207062072078612
H 1.3918968761644872 1.4762581164586688 -1.3378567238108228
H 1.88704513523057 3.1898538802772074 -1.0928440868335345
H 1.7484548408890583 -1.6998868727263 -1.242886851678528
Rh 1.7390752686018671 -0.9568012195639958 1.2406638298262596
I 2.5560192990766177 1.699373873598677 1.0523838944021344
I 2.4376571410466497 -3.5114102819935473 1.182981396372881
O 1.4846217020160286 -1.0863041727532374 4.205762013894725
C 1.6535962651440783 -1.0068536761033078 3.0624788662665154
O -0.8699270822460635 -1.8623718709968113 1.1180678299872253
C -0.38351363334629457 -0.7833048661941889 1.1810424276322722
