12
## STRUCTURE-ID: 64566800680a0b1cce1a5629 ; CHARGE = 0; SPIN = 1
O -1.8193019018858652 -0.2629534223126937 -0.027899441697621805
C -0.34229832863736137 0.33859566915233297 -0.5034729812609747
H -0.5065471014128579 1.3956819579835549 -0.33356663689512883
H -0.2686830183318884 0.06400626505168443 -1.5461644046170584
H -1.8102225299057968 -1.1987042588595058 -0.2662355138657905
H -3.4394746785918446 -0.329344803189803 0.20346179713588727
O 0.6904804609698896 0.015131261311666018 1.647593802412322
C 0.44913702900389424 -0.3611814840453181 0.413541643905033
H 2.592532573296513 0.3053460696419507 -0.7168498151297222
H 0.7934546397923997 -1.3680305094116956 0.21165271323122298
H 3.3203691617199715 0.49925988251141845 -0.9267085054937321
H 0.3405536939829451 0.9021933721663835 1.844647342275572
