12
## STRUCTURE-ID: 645667fd484eb5799e671008 ; CHARGE = 0; SPIN = 1
O -1.3586120228364147 0.6659469534320619 -0.6054434459102538
C -2.0645953081621764 -0.48197546497175436 -0.185408563860062
H -2.95066047278962 -0.6535303120258881 -0.8032727408967306
H -2.3631317404891643 -0.40515525468688024 0.8645780778842872
H -1.3865693285760348 -1.3264338453829891 -0.29795413532272597
H -1.9381489347977374 1.4338726730036773 -0.5322731528028902
O 2.603791824366723 -0.5770981387345575 -0.31415465969069856
C 1.8511020154441105 0.22333669753855373 0.575719767566518
H 0.848633431501707 0.4196141786708675 0.18776177965276084
H 2.3551315963259665 1.1746129737952398 0.7756160851967855
H 1.7735286623023343 -0.33588134496788963 1.5067026900683937
H 2.6295302777103142 -0.1373091156704439 -1.171871701885385
