21
## STRUCTURE-ID: 64568dbe439bc247ee23362a ; CHARGE = -1; SPIN = 1
H -1.419733860176601 -1.7158212966647985 3.6402370819094956
I -0.7693989855635005 -0.3881850007065233 2.7527209439111817
O -1.4770480170061406 0.6205281269507008 -2.3694538215667276
C -1.56197135796297 0.33344515239995337 4.8612550624508515
H -1.3527110579236525 1.4003373740876914 4.8871678561984
H -0.973545146041498 -0.21622156694791914 5.601826088222904
H -2.6345612041383175 0.12281368177763288 4.872442598797479
H -2.321233193260082 0.3143482652162862 -1.9845302310680497
O 2.7337455726482482 -1.0672963754934792 -1.1634100207279834
C 1.265773657983785 1.7850454825768525 -1.1728261101485573
H 2.1818420338084237 1.268998122362403 -1.4518871386339862
H 1.5106587038574337 2.7899734325581385 -0.8324661029633926
H 0.6069744657210355 1.8484059163114777 -2.0377342676060652
H 3.2863603640665846 -1.040017113464598 -1.9473549870429543
Rh 0.6327617274694171 -1.469642975605464 -1.621729711892302
I 0.36282440621481316 0.7085501724831159 0.2952932810269546
I 0.18094894723300453 -3.020593732058025 0.3990830792630808
O -1.2990747434013694 -1.6507573427298037 -2.635373483441598
C -0.7492339478013327 -0.5012311991623907 -2.7684748782361988
O 1.1745464585133742 0.26621962637663393 -4.116339491581782
C 0.6220751757595847 -0.3888987502677601 -3.20844574687078
