15
## STRUCTURE-ID: 6456b71493764521402726bb ; CHARGE = -1; SPIN = 1
C -1.9347252835730664 -2.713761447034767 -0.5821513252593911
O -2.7424448750887227 -2.694513726815983 -1.405871451610809
I 0.9882907734843124 2.312466382972661 0.16582393479879934
C 2.741228707682998 1.788634260845196 1.3416302145608847
H 2.7330415996883 0.7151109249932405 1.4894870228955013
H 2.6650983969249364 2.314199909224841 2.2843001551682383
H 3.6105441409570527 2.101218678200841 0.7781152655778779
O -0.4925603715700069 -0.7575849003013846 -3.773679075630078
Rh -0.8963786948640506 -0.7948641581993476 -0.09815385894226798
I 1.1693862312417016 -1.8985675920138114 1.0680189378407994
I 0.49012741545936017 -1.2401913962134041 -2.2610038379845157
O -2.533930234604426 0.949692870878497 -1.894053037648705
C -1.966365628503949 0.29127980727790315 -1.1481709977010879
O -2.150092141256977 -0.03362775258368075 2.515258906729492
C -1.6812200359774603 -0.3394918612307624 1.5204491472052064
