12
## STRUCTURE-ID: 64566a8cbda5bb57b309292b ; CHARGE = 0; SPIN = 1
O -1.2874255526834153 0.03473873879816261 -2.445840574998636
C -0.6430841026309158 -0.08495206756798093 1.2737611006237095
H -1.6673948083102788 0.25541240748599686 1.1417444042369282
H -0.2049520902203792 0.3982519561071806 2.1536710899368483
H -0.6321367266323296 -1.1706009226392495 1.4202469242622455
H -1.5302029684714522 0.9461081063813526 -2.626348344175371
O 0.05948524043424949 0.27318755263012884 0.10322122716039542
C 1.4184954339733324 -0.10524258696219654 0.14373809160020298
H 1.9332885857585511 0.3818722428554416 0.978832841476494
H 1.8614592147962687 0.2152113834954834 -0.7962513113078229
H 1.5196403623017127 -1.1912215223910934 0.2465865878341235
H -0.8271725883153433 0.047234711806782924 -1.5933620366491212
