17
## STRUCTURE-ID: 64568ce70873216f9c2648a4 ; CHARGE = 0; SPIN = 1
C -2.2253176278438906 -0.6997265694397132 -1.135514590195384
H -2.7726661080586106 -0.10035823778518854 -1.85437930817066
H -2.204368891823015 -1.7326126204406023 -1.4649397777599635
H -2.6795776799460262 -0.6375868585040613 -0.15298368277327468
O 1.7952227141651897 1.0261440887814455 -0.658684788060159
C -0.9658857907425058 1.9036010658583962 -0.46503457308261165
H -1.4850701479575699 2.3091839547016098 -1.3265906176592897
H -0.13069084966895136 2.5288941022356113 -0.17637903208795935
H -1.6466311380423462 1.7324431979942423 0.3613797991015781
H 2.3869538801912573 1.0652149687796626 -1.4097922745281235
Rh 1.3722633694057305 -1.0903861672293027 0.7890559763999294
I 2.076676912857707 -2.8486575330882307 -0.9916831913870066
I -0.16106008480762585 0.020900305132590898 -1.0350350919631086
O 0.5473566584900338 1.0556773888047704 2.6852762366545426
C 0.8529598260964507 0.18868165370514928 2.003770727848832
O 2.915941349240285 -2.6777119871865054 2.789166782642287
C 2.3238936084438664 -2.043700752319883 2.042367405020374
