12
## STRUCTURE-ID: 645666e5dd765360153d7d8e ; CHARGE = 0; SPIN = 1
O -0.6541504928022487 0.060776578959967235 -0.9829823171172903
C -0.6533631401031892 0.44948600502845415 0.36079517317603377
H -5.431626330367246 1.7182952725300933 -0.9031249019820776
H -1.358191044029123 1.2705528475859744 0.5791584289207783
H -0.9565663055189533 -0.367992458828452 1.041568900193743
H -1.5470632125338875 -0.09484566960071318 -1.3056870572108072
O 1.6285012640299346 0.8613797496558943 -0.10398305062760645
C 0.6962438048209497 0.8707656646313476 0.7192374496118106
H 2.7689835933326705 -3.4206907228451597 -0.33084673493100536
H 0.9227931989812856 1.1971614479185684 1.7339755614311156
H 3.2320390714522214 -3.0978513774607532 0.20343715223347528
H 1.35239959273759 0.5529626624247608 -1.011548603698154
