12
## STRUCTURE-ID: 645667a56d04bd066e6f2cab ; CHARGE = 0; SPIN = 1
O -0.7138521396047296 -2.1350127822748535 -1.5599853821143987
C -0.9203062654427155 0.9755381998044981 0.48554070194081034
H -1.183974590643533 0.48838353763011344 1.4307014951532337
H -1.7826352731543806 0.9778262789607425 -0.17697380695823756
H -0.6095367495521619 2.005817609860921 0.689363525683906
H -0.5585327964799499 -1.9103236256484708 -2.480513748003345
O 0.1022151860476873 0.2657440292571349 -0.18006115075207677
C 1.2946273851913768 0.19059207861547983 0.5715569865080604
H 1.127811784647383 -0.3329692302595846 1.5193007379326475
H 1.6862775567749229 1.1917457283089772 0.7808122147596362
H 2.0107377616860265 -0.36346433642614956 -0.030710302635435737
H -0.45283185946989574 -1.3538774878288091 -1.0490312715148522
