12
## STRUCTURE-ID: 64566a7e394ca9183d29342b ; CHARGE = 0; SPIN = 1
O -2.6856212794252285 0.29770919874255175 0.5827686353729751
C -1.6936764143606777 -0.4366266772842119 1.2721655903089648
H -0.6905826674080702 -0.2032899559856588 0.9057184656475337
H -1.8691099785191156 -1.5139862384186875 1.188259635890667
H -1.7660936444519773 -0.14903324507903648 2.319491607416414
H -2.611986533522085 0.10173710990189545 -0.35860931701784987
O 1.4530106181684257 0.38447258095080666 0.0061667474013796224
C 1.9099468181336534 0.14756645145004796 -1.3078597235414187
H 2.99067172460164 -0.019878024942484997 -1.3323025447152237
H 1.6582698725807512 0.9782466394359255 -1.9742523172444653
H 1.4062423197328813 -0.7524189075429154 -1.656520097053729
H 1.8989291644698083 1.1655010687717615 0.3549733175347772
