13
## STRUCTURE-ID: 645673d2a47ccc3dee67f9c5 ; CHARGE = -1; SPIN = 1
I -3.182228813132678 0.898746285308301 -0.8879385951244565
C -3.7433001927049467 0.709093913081054 1.189906919103234
H -4.346355441003765 -0.1848943814101039 1.282418464464843
H -4.291572719370495 1.6017147687336202 1.4625658968597355
H -2.804421934898591 0.6227703991645859 1.724436608702376
O 1.5483852438184733 0.4446831991348902 1.0733789609452502
Rh 2.280646154098909 -0.6794016975760427 -0.45998115610654894
I 1.4875665655534953 -2.8454159061828808 0.7973200738145023
I -0.129093088837963 0.4465897154353016 0.05535590029610787
O 3.489543398101079 2.004203137471365 -0.9409829715696058
C 3.079482896119652 0.9264807623607616 -0.8719060349030902
O 3.58384272436821 -2.2810288623008668 -2.6158857875195416
C 3.0275052078886375 -1.663541333219974 -1.8086882789628307
