12
## STRUCTURE-ID: 64567321f3d2a46291333be6 ; CHARGE = 0; SPIN = 1
I -1.1248812749472938 0.8898656671225484 1.5201757780119611
C -1.8194844305669502 1.9580657896940927 -0.04147155464187221
H -2.823466045462035 1.7906761191313914 -0.38088631583518245
H -1.1909895909365595 2.7234095632609283 -0.45386214372266537
O 1.5037102068958612 0.618297460074348 -0.3974291158268234
H 2.2623308660179378 1.0279400069269986 -0.8686690218438331
Rh 0.11493405363663496 -1.3819766206657234 0.848883369821548
I 1.2284721609596363 -1.784644699375083 3.0865501170448857
O -1.364315091622836 -2.0308369964167223 -1.6722525795880492
C -0.8074326289485748 -1.7185667932548803 -0.7221159702758371
O 2.4450334563135083 -1.4099143518611317 -0.6612763409404022
C 1.5760883186606798 -0.6823151446367846 -0.2576462222036895
