12
## STRUCTURE-ID: 6456672c9cb0912a6d399e40 ; CHARGE = 0; SPIN = 1
O -0.5835781699355329 -0.6143620873532181 -0.3765688731016558
C -1.7069142307191398 -0.04593154191692991 0.1651277593486908
H -1.696290974028332 1.0551375497577387 0.10501040938552343
H -1.8355034252330855 -0.3331720147861561 1.2219675289729621
H -2.595663681835064 -0.3997650401089269 -0.3783674101283499
H 0.3089651888732102 0.15774722669331664 -1.1759423875873005
O 1.2485368073841316 0.5972200672593517 -1.2266028091182157
C 1.1748750507851844 -0.07333540268118394 0.648983293193364
H 2.106424337802302 0.4763951820561934 0.6580019332045108
H 1.2830210729418865 -1.1421974980677096 0.6947916740021955
H 0.45449187638512745 0.3437556786057601 1.331685125046373
H 1.8416361475793157 -0.021492119458227668 -1.6680862432180976
