13
## STRUCTURE-ID: 6456888f58251a7508750eea ; CHARGE = 0; SPIN = 1
I -1.6502347438353593 0.7968328417774125 -1.9711264733092764
C -1.1885327044316767 -0.36771957928900123 1.2997810406098327
H -2.192819993912346 -0.5111351065707747 0.8881455798130986
H -0.8984927330922473 -1.1988275665645503 1.9511053619898042
H -0.29839367763351243 -1.6832916376671274 -0.6468432762154295
H 0.8607272251679459 -1.2538579903830058 -3.714782288773552
Rh 0.2726378913407389 -0.28271590392762896 -0.40750971747870834
I 1.8645821931806092 -0.7498756469583722 -2.588902246036091
I 2.205624898230374 -1.3038254312073205 1.2086810198789806
O -0.7658972320119296 1.8845420536636246 2.2421796909732437
C -0.9610188141108724 0.8457901882258597 1.8083587084370434
O 1.6759484906887736 2.389569974641938 0.042007190536174424
C 1.0758692004195158 1.434513804258949 -0.11109459042512716
