18
## STRUCTURE-ID: 64566f89e026a429e76dc163 ; CHARGE = -1; SPIN = 1
I -5.433674864383379 0.012142290343754558 -1.6001132006124077
C -2.884906639151636 0.4520897496411286 -0.43465799563259155
H -3.4434797247561475 0.5124334275290588 0.4778274068469332
H -2.9249210402704624 1.2990293582332717 -1.0898535035271841
H -2.737257896812325 -0.5205002222359769 -0.8590579802935012
O 2.3023007238595263 1.322994342647166 0.20764087978664084
C -0.01813082488898528 0.3350029236908914 -1.6113091199990655
H -0.6485357690369742 0.935369621445331 -2.256758189653916
H -0.16070317059248715 -0.7249394547604221 -1.7889640605451862
H 1.0254998570661145 0.613502179277019 -1.7013664385495322
H 2.4523186156768704 2.132502581936949 0.7051457552263536
Rh 2.073512315575049 -0.3394604743803926 1.3899561193413308
I 1.979891548291786 1.1433875850264488 3.556267866218665
I -0.5717600442777004 0.7538967793446106 0.4089182217632737
O 2.8301148958276774 -2.0201593535367106 -0.962820909770641
C 2.5093484103259267 -1.3693323320010526 -0.07005204459225528
O 1.775820818601055 -2.7221484063609465 3.166375254257338
C 1.8745627889456469 -1.8158105958402833 2.4628219397358917
