12
## STRUCTURE-ID: 64566a15cbcb630e62750efb ; CHARGE = 0; SPIN = 1
O 0.36621173502715304 -0.008601494206134907 1.2067523691590225
C -2.4854829873600743 0.025546030334012856 -0.874326414567224
H -3.2338648521467666 0.3756724753980404 -0.17554474052528002
H -2.7684362619439664 -0.9508509211615191 -1.2450524448795859
H -2.4140386794727497 0.7185509579214164 -1.7023312781832778
H -1.5275789120732355 -0.04106241712266977 -0.37422750216100814
O 1.7859503167004571 0.05723847806077447 1.3872736218441368
C 2.4227542731986182 -0.04910343182785747 0.1388392435651148
H 2.1348005913318087 0.7725242759424776 -0.5220942940794447
H 2.198219304935008 -1.0066790183074912 -0.3381806192618868
H 3.4807719664074126 0.01394515457188209 0.38415414691512845
H 0.04069350539634474 0.0928199103970648 2.1147379121742964
