12
## STRUCTURE-ID: 64566a5c6a0612289373b9e0 ; CHARGE = 0; SPIN = 1
O -2.083990965063392 -0.17352641696923163 -1.0972035692569957
C -0.33918872859137406 -0.0064060634913488375 1.0537431668122206
H -0.7753636841673271 0.6598782687478019 1.7833027201049851
H -0.173478419449894 -1.0494397483830022 1.3125845996848573
H -1.4619624197339836 -0.11290091850946346 -0.2787486538311489
H -2.8488963171301824 0.35890952869561266 -0.8752610853858056
O 0.9437695698397024 0.6880534294583673 0.43290385396804437
C 1.3737699709444713 -0.011090404798964433 -0.7232035461218631
H 1.6989456097066777 -1.0249505351461516 -0.4813843012129054
H 2.206879657002358 0.5546691451501163 -1.137582869218373
H 0.5517079094201458 -0.06530776245809672 -1.440068793088832
H 0.9078078172228026 0.18211147770436537 1.4509184775457724
