12
## STRUCTURE-ID: 6456677aaca450302b248ae8 ; CHARGE = 0; SPIN = 1
O -1.4869672482456582 0.8417363011638627 0.7574015890637567
C -2.0511634023080116 0.03505727851353482 -0.24907395680704286
H -3.078613820572794 0.36986152211661544 -0.3872873143686069
H -2.0575212314568514 -1.020813664319364 0.04018216581466055
H -1.5136568223019384 0.14287167730893174 -1.1975029536095223
H -0.5730536446295773 0.5390999467301495 0.9099294435559393
O 1.2149898204831528 -0.08048709898732441 0.9355020675260064
C 1.8231257884430825 -0.26245646829376773 -0.3279780278826743
H 2.016784814065025 0.6962908104726876 -0.8172922731486508
H 1.1237459941001284 -0.8363792684303571 -0.9332830019018952
H 2.757593871030175 -0.8222823853020977 -0.2413264387033898
H 1.824735881393301 0.3975013490271243 1.5107287004613814
