18
## STRUCTURE-ID: 64566e28a0025674116f2c94 ; CHARGE = -1; SPIN = 1
I -2.3247651468634265 -1.045254887305304 -0.12217168977684222
C -3.4170191803402896 -0.9066173607246806 1.7575006486551286
H -4.457573385816372 -0.7407151517043896 1.5090052457484133
H -2.9980995231621907 -0.07461387006802202 2.313858887183766
H -3.2729403860661175 -1.8425210590570462 2.2824678606701325
O 1.4782843542416264 3.4848308818470803 -2.0649438454578095
C 1.7489351328069 0.7773229796082287 -2.399720731140866
H 1.777387135683193 1.5768080153637611 -3.1232213656705
H 1.0934647443435177 -0.02339949368120142 -2.727131087428379
H 2.749494615059286 0.39997906773186936 -2.2159678507545686
H 1.2484125900086764 4.308897037380403 -1.6360164893822446
Rh 0.5937009723219279 -0.5490257943438203 0.8791108676635472
I -0.2775649769009209 1.3433225016315085 2.463798343272707
I 0.9914407741394994 1.5988679277603477 -0.610235749662574
O 2.2724087233235375 -2.101339963402506 -1.053346665881481
C 1.6014236358969154 -1.5254773836715803 -0.30804128120717755
O 0.6422952255888761 -2.772076205662779 2.902662758975111
C 0.5507146957354891 -1.9089872417017328 2.1523921441936618
