13
## STRUCTURE-ID: 64568bf9f4f81630cb2abdc4 ; CHARGE = -1; SPIN = 1
I -1.642392640225129 1.1709736973866072 -0.4628273971673108
C -3.373175354843366 0.29333605705451 0.6341724906469888
H -3.8948293350838443 1.1184419819541267 1.1095884531612845
H -2.9709650098489857 -0.40692845110556913 1.3621887049442647
H -3.993557655726841 -0.20965570177559217 -0.10079645844299871
O 3.325391347019703 1.134086404227014 -2.333112488758111
Rh 0.6591488658086859 -0.17227055647283826 -0.18571537002851696
I -0.27636001864690435 -1.908514932174407 1.4738021804037187
I 1.497519656071442 1.3791263105590212 -2.104042339750158
O 2.9068091900730617 -1.956617318241667 -0.9869848458148127
C 2.3771665922822027 -1.0710347855733207 -0.35261452605698335
O 2.9171903612296224 0.6924728124514864 1.384116598370646
C 2.46805400188989 -0.06341551829031558 0.5622249984959508
