13
## STRUCTURE-ID: 64568c7697bd4c0d7164e474 ; CHARGE = -1; SPIN = 1
I -2.108259184726441 1.9570513205812512 0.5707368140745175
C -1.22495296465681 -1.6152842837858794 -0.5215246085362375
H -0.9286010318553009 -2.4385675596159624 0.1326157279191552
H -1.497489169890638 -2.0222244274686547 -1.495234271382318
H -2.0770510312795993 -1.1131949958675957 -0.06699656622434971
O 2.3209447794470646 0.34458845999208404 0.8017953149935503
Rh 0.25986077535072755 0.8013377034608453 0.5757684107559706
I -0.1680614873608139 -0.6091743500015944 2.740225111287868
I 2.698118744775261 1.8369914579764377 1.9875538400055082
O 1.203397054204392 2.571749896467799 -1.62299557112355
C 0.7619988725587773 1.8895877618165706 -0.8177931536071658
O 0.7927923145877479 -0.8741662082691534 -1.5698723899875955
C -0.032697671154378063 -0.7286947752861215 -0.7142786581753633
