18
## STRUCTURE-ID: 64568b95361e7627ac2b66aa ; CHARGE = -1; SPIN = 1
I -0.7981941931234299 -1.3763129057939396 -3.0960778895574723
C -3.1451878050805293 -1.2419851895031502 1.3168354155612416
H -3.9463611688029068 -1.165224697433936 0.5832113366810137
H -3.2649569553363182 -0.45349281486211457 2.0585702192922564
H -3.191406243742297 -2.2101095114945726 1.8054465844228456
O -1.6501090021461629 0.06376845432682665 -0.03719870418076196
C 3.526814133921894 0.8324073119699595 0.7349755179438219
H 3.67242331557191 1.1353424611538454 1.7639298761780633
H 3.178239545760448 1.665214217182984 0.13455413993806253
H 4.429637434544304 0.4086196098865397 0.31411398096526655
H -2.4142046954935963 0.6670211034403413 0.03365817506556743
Rh 0.24027810324329552 0.4444730454019288 -1.3925859686580864
I 1.9935446769843932 -0.6919957420253854 0.7016115046834204
I 0.07627638641518321 2.97192778868561 -0.48490278465630304
O 2.46423539880878 1.108703778422339 -3.217295635525495
C 1.5777981617359882 0.8438931515320024 -2.5086697933541084
O -0.9266850058184556 -1.9036791254730825 0.6515305885599093
C -1.8221420874425707 -1.0985709354161148 0.6382934366406915
