17
## STRUCTURE-ID: 64568cfe3a66595294610aad ; CHARGE = 0; SPIN = 1
C -1.4778615919616316 -1.4376706059089794 -0.07212467853330978
H -2.0740286126984233 -0.6468897813090306 0.3789342637297702
H -1.5824341898317804 -1.407207965009978 -1.163876602326175
H -1.8261693487035648 -2.4104390620121277 0.303693520719003
O 1.3742378960892907 2.407152260148656 -2.3544134931713145
C -0.5912769988109983 1.9013082089731144 -0.5032148312777801
H -0.3807767668625329 2.8985616216731764 -0.8754086777276673
H -0.6067941339687957 1.8728728752769355 0.5797023132576372
H -1.4893165978840246 1.486138638937105 -0.9443719571669398
H 2.087873173181165 2.266714640920823 -2.984903187087699
Rh 0.5433578044529138 -1.452554819996735 0.3131317690793496
I 2.442023974358025 -2.7676284648332294 -0.7998362120745753
I 1.0634039944834568 0.7463773711420711 -1.1640316266531998
O 0.8658150686407469 0.8920818356167943 2.1154531792340405
C 0.6423895880470541 -0.26815127470957584 1.8710552760362809
O 0.4197284433380678 -2.5177852860858634 2.996599203176947
C 0.5898282981309996 -1.562880192823265 2.30361174078563
