12
## STRUCTURE-ID: 645668902216df764e092920 ; CHARGE = 0; SPIN = 1
O -0.9603079960978308 -0.19913658686878918 -1.5729730472541625
C -1.20288243190468 -0.45519163294965487 0.38850325626655574
H -1.5779021157079252 0.4336972322116408 0.8633468783645032
H -0.4565213843085709 -0.9930189811520274 0.9476837269754707
H -1.965265613517194 -1.113447551349904 -0.0059022293003120905
H -1.6486686884191966 0.43317898133179117 -1.8096372336796438
O 0.43994879084019506 0.8134330430699006 0.027342803750392948
C 1.621572283170469 0.28995417590485056 0.4830261822921066
H 1.583288856289891 0.08971702440316234 1.566790260816997
H 2.4327808892358447 1.0139425247038993 0.3149180330157064
H 1.8980105013542306 -0.6454168547054389 -0.03156350099169666
H -0.16405309093522524 0.3322886254005778 -1.1715351302559258
