12
## STRUCTURE-ID: 6456686b2515d070eb7c7c40 ; CHARGE = 0; SPIN = 1
O -0.5371333645846381 -0.6750432773473851 0.3368101439929412
C -1.6412619947032552 0.1227059494544297 0.48687029838280027
H -1.3962877879310402 1.1109842752362948 0.9104703190212782
H -2.355203219646279 -0.36325019079590654 1.1685099961638667
H -2.1613084880103095 0.2774275396541071 -0.47315645794450445
H 0.7031989501775041 -0.3305544699712169 0.9500768348592977
O 1.675790985471604 -0.005951555919518809 0.7869932354919795
C 0.8593906764726295 0.11816994491435327 -1.0266591877024087
H 0.051328365478252015 0.8081406181910092 -1.2000437333865306
H 0.7348712396853286 -0.8528848828317218 -1.4713260526722238
H 1.8248270783431024 0.5746311679194502 -1.1987903866877103
H 2.2417875592470997 -0.7843751185038895 0.7302449904812284
