12
## STRUCTURE-ID: 6456690aaba243621e61a6e6 ; CHARGE = 0; SPIN = 1
O -0.9431983147279803 0.04778933430975837 -1.2942336890036594
C -1.096239654961075 -0.09043441627073773 0.8021931960136476
H -1.9585589524367668 0.49303836025780057 0.5280523398786002
H -0.7461091230409806 0.18048217269921205 1.7968532369891563
H -1.215753997574096 -1.1550343949011672 0.6941514105799726
H -1.3619243447823808 -0.7752921862472948 -1.5472038424839314
O 1.4472936413767257 -0.4187362118108349 -1.0156864931721608
C 1.4267652960527772 0.3409390533770008 0.1147143982617762
H 1.6228158503163936 1.4063521761362356 -0.05781987400239301
H 2.0631245591954834 -0.0729046629425617 0.8984840851278068
H 0.2955950461878145 0.30295930161387763 0.4607162899807343
H 0.46618999439409503 -0.2591585262212871 -1.3802210581695518
