21
## STRUCTURE-ID: 6456756ebeec2f483d2fdd94 ; CHARGE = -1; SPIN = 1
H -1.053454946220185 -1.8143694824669958 -0.23497245012355075
I -1.4618495887022667 -0.2543851708554185 -0.631256418940226
O -0.8823866063964769 -0.40049157673445557 1.3970017521841642
C -1.536386423599054 1.845491046489307 -0.08552168442946419
H -2.395420733001234 2.037570116119487 0.5473979520134712
H -1.596610406459432 2.42826759776158 -0.995983913057504
H -0.6268288119297883 2.089375583298257 0.4525163290733951
H -1.3149816378304875 0.2678575425161848 1.9271850647232474
O 1.2978544144725792 2.0200081831538674 1.9736503767909175
C -0.5842378712656546 -0.9909487464098935 -3.994884929197001
H 0.21682827510432193 -0.814882895142158 -3.287866495833466
H -1.185814460391157 -0.10214623025874697 -4.120981928306613
H -0.2185356794666446 -1.3797791265308808 -4.935455971352128
H 1.715864044885834 2.516322062900273 1.2620652808361008
Rh 1.6691022558928645 -0.006071033212638886 1.9203027862952509
I 2.1001444711392967 0.10732939266855179 -0.6444678129475353
I -1.8673444437190416 -2.473083927193531 -3.128057295584122
O 1.9062583602076433 -0.2490873695568771 4.891887160806295
C 1.7928022572401965 -0.06671076010568837 3.7532266595803208
O 2.081935326413471 -2.954769404788202 1.9997414047910607
C 1.9430622036252634 -1.8054958016520255 1.934474132677313
