18
## STRUCTURE-ID: 645670c9d8a73746a41a562e ; CHARGE = -1; SPIN = 1
I -1.184962356254725 0.10215532486662907 -2.3803433748985117
C -3.178753251116186 -0.03195910911218747 -1.54256365325653
H -3.487690114746876 -1.0691798998377682 -1.6040861760810028
H -3.826144697272154 0.6207377890462805 -2.1144237727917834
H -3.1080911540316434 0.2871145372307336 -0.5043442829175041
O -0.6184591411315733 0.8400830800222482 2.8212437290171826
C 2.623609533700499 -1.1583766694495263 -0.81242355035664
H 2.3909126327242327 -1.7548229153253814 -1.686242701305481
H 1.7251987772351327 -0.5970185737750395 -0.45505515534617846
H 3.0143766027179533 -1.7739462022893289 -0.011634655735442413
H -0.336710595537119 0.8877585236895861 3.755871171469309
Rh -0.12125638926975048 0.1879828620177398 0.14985814080401658
I -0.9090562009153775 -2.249723997817561 0.661872743489257
I 4.117663500946891 0.2647000617526061 -1.3505297916978622
O 1.4629609329312445 0.08859991246661887 2.5271411358333733
C 0.3756824071748046 0.3595271317940194 2.0256777710783163
O 0.6974036161687356 3.047529410439566 0.3551585134718065
C 0.3633158966759136 1.9488387342807605 0.16482390922368106
