19
## STRUCTURE-ID: 64568de18061cf0d9928a810 ; CHARGE = -1; SPIN = 1
O -1.351660656090563 2.1775811626793673 0.7603309346290655
C -1.5251366472881078 0.6798834534426567 -1.4238353032129691
H -1.5179563522246162 1.2683594155359006 -2.3387642604136007
H -1.4745495364407637 -0.38427420371315063 -1.7112140346598397
H -2.46505173433015 0.8239412652796824 -0.8954036300407773
H -1.475483010806624 3.125226076315121 0.9541221947609662
O 1.0264758058321148 -1.94420360754876 -0.742476464896231
C 0.3759006591305349 -2.4060510569648 2.3255735853199635
H 1.1198703579732479 -1.9869792547181435 2.994304597556423
H 0.8249061081736352 -2.734734527669124 1.3917833593260664
H -0.20630946115724033 -3.1879933611991333 2.7958463499559083
H 1.9123704176618612 -2.0420294068866816 -1.0958714440942912
Rh 0.38905062111205 0.2600432648815898 -0.33965830716218715
I 2.479805239276381 0.8498511555136876 1.2902621364417513
I -0.9649745269541736 -0.8069666893700941 1.760510867225138
O 2.20864612910226 0.7202541338442511 -2.619515365809989
C 1.4558908231228809 0.6051610591453102 -1.7548630352841808
O -0.21913669018543958 2.9800206817097568 -0.9942053877035897
C -0.5926575459071624 2.002910439722737 -0.3569267919373244
