18
## STRUCTURE-ID: 6456899b473e3c01ef5a8523 ; CHARGE = -1; SPIN = 3
I -0.5299039307720649 -1.5093668093795334 -3.219797261915179
C -2.0913844488170357 0.7936134867012857 -0.9395951651207503
H -2.725300916344441 0.9047634156169745 -1.8184914937893366
H -2.311095790295138 1.589828618412752 -0.23108049819047066
H -2.321864915610232 -0.17900096323054174 -0.48595948157954033
O -0.0956974907318775 0.603507874326014 1.610109067576642
C 1.7591413143439218 -2.341016128886691 1.6934509434606995
H 1.6810074362506517 -2.962642455384707 2.5762731513391595
H 1.9471394004337323 -1.3054723248607705 1.9495318383871636
H 2.51707616777553 -2.706502022170248 1.0100459390186416
H -0.03783746798738584 1.1833179001869312 2.3972117220128246
Rh 0.1047147246965555 0.1040235076559358 -1.1372458649990673
I 2.745708896564921 -0.02270480235923157 -1.1844219244272658
I -0.14084878977059262 -2.424954949982265 0.6669027145267394
O 0.6789187956474108 2.3709199873020066 0.5008540132108328
C 0.2849662259081534 1.2226387550282631 0.4848956892024359
O -0.8331402135651048 2.915330677639673 -1.8687667764146663
C -0.6315989977270313 1.7637162333840457 -2.003916612298794
