12
## STRUCTURE-ID: 645668589e0ce5458d493a7e ; CHARGE = 0; SPIN = 1
O -1.3591962615640703 -0.5072017190420627 0.1722956775296283
C -1.9833227662905721 0.7253979797489579 0.6170530785386052
H -1.6046420862085884 0.9373058667839622 1.6136534377415839
H -3.0572182995182287 0.5648418240288543 0.6657690270051325
H -1.751552703618612 1.552935481851737 -0.049784947017070064
H -1.707281671475032 -0.7623150608455762 -0.7078994826855924
O 1.137415271026979 0.254160435290689 0.013537912010753756
C 2.2556110818775523 -0.048617154234258324 0.33793163566331463
H 3.1039967711764493 0.6235218630020841 0.17754870944799964
H -0.3510856776829841 -0.3546947194239161 0.1148267520683876
H 2.487816181762197 -1.0083715406143823 0.8148149843786091
H 2.82946016051493 -1.9769632565460846 -3.769746784681351
