12
## STRUCTURE-ID: 64566ae82a65017f6f5c71b3 ; CHARGE = 0; SPIN = 1
O -2.0915358833485493 -0.03915038107361868 -1.50354649358511
C -0.914994592590512 -0.6769490307432546 -1.296613598545096
H 2.7258945469389757 1.7274564026692338 5.071870969993629
H -0.7629188813920679 -0.9575939166236213 -0.16942543862907805
H -0.9401507295225796 -1.6577037720189576 -1.7834944643776183
H -2.034550885067362 0.9170143967797875 -1.3530115901335469
O 0.49029593307335867 -0.05948396409262444 1.1519587192945597
C 0.3179209864427969 -0.024558135765221246 -1.1179061273433146
H 1.234448063616112 -0.5918280938234775 -1.1483081500282648
H 0.28632954704620667 0.7360247979786024 1.6569939370139106
H 0.40162784370654825 1.0521867530250415 -1.060009048479273
H 1.2876340510967523 -0.42541505631192966 1.5514912848195397
