12
## STRUCTURE-ID: 645668f3877c1d77296cdb48 ; CHARGE = 0; SPIN = 1
O 1.0036789892696207 -1.3180006415369043 -1.05290867614691
C -0.08591063880490982 -0.5690462507078902 1.4814496879170231
H -0.9150028652886634 0.024056846342452986 1.8607641691840506
H 0.518694703448225 -0.9602064722978855 2.298484587797509
H -0.47169074181453646 -1.3908873736790979 0.8799177240370044
H -8.74845757700538 5.119613040434118 -4.834863579164012
O 0.6944215665818713 0.2815473872589411 0.6043426514483656
C 1.6889673958574334 -0.49202801659512824 -0.24408097795564634
H 2.304710244750211 -1.0985803863358452 0.4273295664775714
H 2.2693249030916722 0.2863419560497188 -0.7499395708148003
H 0.5937683406165919 -0.8600911239001129 -1.8023412178221856
H 1.1474956792978654 0.9772810349676243 1.1318456350420603
