12
## STRUCTURE-ID: 64566595f6964b52d94b6a6e ; CHARGE = 0; SPIN = 1
O -0.41200055176087375 -2.3666463938797304 0.5191464050126209
C -0.7241601439995288 -1.2981082860650266 0.8807296798465987
H -1.601495967993808 -0.9792757830989139 1.4485217081848176
H -1.8325382779790393 2.78075706664018 -4.660007244151823
H -2.138742093598383 3.3028511326672896 -4.172339305493154
H 0.33717241401065023 -0.2427318385790197 5.28291989211101
O 0.049848253596487715 -0.1582996569425767 0.517718676371292
C 1.3477573477937073 -0.37428820955070247 -0.11511549704853016
H 1.229199068207899 -1.1801412754056797 -0.8387953320286409
H 2.0954023675098115 -0.6517794122106765 0.6273203938256016
H 1.6192869783283355 0.5502871009405121 -0.6189932396496618
H 0.030270605884700874 0.6173755554843781 1.1288938630199206
