18
## STRUCTURE-ID: 64567274dff6684364630f0a ; CHARGE = -1; SPIN = 1
I -2.4116227775315213 2.3658152896874123 -1.1482774078862983
C -1.9177077761486045 -0.09661703703952833 1.405770243663221
H -1.5550008226981613 -0.2800885800368692 2.422669578787999
H -2.818112605052971 0.5191174901169457 1.4912434032509938
H -2.2177637965947428 -1.059948370080902 0.9819486406270509
O 1.3718726911291854 -1.2289668801036455 0.6346253788262854
C 1.2362717886061985 -1.3766673187978107 -2.746296306083889
H 1.99882408000542 -1.4722778979823319 -1.982235972364665
H 1.4099714501731497 -0.4965069347356562 -3.3566154129818595
H 1.1506160264695917 -2.274039675665253 -3.3486147466264042
H 2.03665527923243 -1.6922133986091905 1.1847752404016036
Rh -0.4691147406827909 0.8621322880048553 0.18567385183744395
I -0.6636225520452155 -1.105586089707119 -1.7253588931130133
I 1.6561466711899173 2.011676647791399 -1.122941106097033
O -0.44654569586514875 3.1130824968035724 2.1082098887245717
C -0.4527372650571917 2.2215194348854004 1.386572321914064
O 1.231021930240645 0.14357536621437456 2.375221755844344
C 0.8608481146298032 -0.1540068307456434 1.2536295412755791
