16
## STRUCTURE-ID: 6456797832fcec287664e47d ; CHARGE = -1; SPIN = 1
H -3.8654774620956056 1.1833417661124428 0.18131512889490112
I -2.3246546800094934 0.7817797503834075 0.6807195401407576
O -0.30670477987957934 -0.17011115179079564 1.4143794083575856
C -2.357659875718451 -0.741944647763906 -0.8043831677497484
H -2.3628749822211375 -0.24882689272061542 -1.7690255563804678
H -3.236784795034245 -1.3533132091095517 -0.6374016761037763
H -1.4466694913113618 -1.3148437101496246 -0.681509367695905
H -0.45694121073849997 -0.6503617214225914 2.2348980395324647
O 1.7184674810269556 2.3967429819447137 -2.4033896801731642
Rh 1.7906312471880443 -0.12693177895322397 -0.04531647350183234
I 1.4809161905764028 -1.812218942316839 -2.031636511578776
I 0.33528003901305714 1.7533616885652172 -1.2900897045787278
O 1.4906610864394747 1.2572477523735024 2.6075069310523094
C 1.4742043748929645 0.6970469546108424 1.5892375520281006
O 4.597723847915419 -0.9407985558638687 0.5550827412808819
C 3.4698830099560576 -0.7101702838991113 0.39961279647539916
