12
## STRUCTURE-ID: 645667316131a74bba351d7b ; CHARGE = 0; SPIN = 1
O -0.9067185227011255 2.671942492403929 0.1308661679164631
C -0.4372844327638753 -1.0192923687932447 0.8644781166645026
H 0.24331580464548247 -1.7717992608329869 1.276744152582308
H -1.1267303650704783 -1.5076851973460388 0.16642128705509868
H -0.9988892802075154 -0.5552606543245305 1.6719352185155603
H -1.6573331256341854 2.468964720533339 -0.4331710471871276
O 0.2809507642723601 0.013297984947822479 0.22472509832596546
C 1.0944095581050068 -0.45383399436012317 -0.8292006682268767
H 1.6077838645113214 0.41429834105957075 -1.235809971475296
H 0.4897411236329473 -0.9256992521621562 -1.611975716743202
H 1.8306887381024881 -1.1776540682698304 -0.46332091244939105
H -0.41993412689244825 1.842721257144218 0.2383082750220021
