21
## STRUCTURE-ID: 64567bc0b3a8a3638c6cdb54 ; CHARGE = -1; SPIN = 1
H -4.4698205794718495 0.4046459246304563 1.812448376724002
I -2.8494938159550744 -0.026164964476156547 1.694016003246604
O -0.6383384956603817 -0.2764690979977985 1.340767524074004
C -2.74101035363947 1.3333078233731461 0.07097626730027326
H -2.9627648089930014 2.324281145733843 0.4446140284814104
H -3.444851948760979 0.9920121752421697 -0.6789891481826301
H -1.7251540745264757 1.270258724388895 -0.31189763728216274
H -0.20582937983155203 -0.6110807076168612 2.12372057329308
O 2.0908321996330774 -3.8526038720432565 0.481892945123826
C 2.3455239196494078 1.2491640233821715 0.2073959148385846
H 3.24895047617646 1.227823887037351 0.8204549398786817
H 2.491723161970774 1.9305424705236938 -0.6302131971005974
H 1.4994444211838431 1.606749791289345 0.7930540069797778
H 2.706839264984959 -3.1351724694278134 0.3395883173059241
Rh 0.2544609467304029 -0.611348628205076 -0.9887643133653039
I -2.090371840480787 -1.931097657260885 -1.4980263352363472
I 0.38731803033225176 -3.1426566008876633 -0.3393341891607743
O 2.9275286333954678 -1.009587198529765 -0.24021116562011688
C 2.0462956023259604 -0.13958863590508153 -0.3472670090130142
O 0.7031917007662513 1.6223384241582233 -2.922883534826487
C 0.4255269401708355 0.7746454425910817 -2.171342367458758
