13
## STRUCTURE-ID: 6456887f044116743f39081a ; CHARGE = 0; SPIN = 1
I 0.45798737382708293 2.0720575537668267 0.22733137782051321
C -2.5649102084321536 1.04435085095309 0.49676368017922734
H -2.59302877733702 1.796820101312847 1.2858237835417188
H -3.3012616455640833 0.25796688035866067 0.6721846721086502
H -2.7911930322268956 1.568833000571577 -0.43571032490109113
H 1.8810317135238253 -3.1974214535689303 -2.1752774580489542
Rh 1.7930557939493137 -0.23326316550388315 -0.46797747497973075
I 2.430201324596171 -2.818643208311178 -0.7321768362846492
I 0.8630273470880452 -0.1008491971064326 -2.8986658748501575
O -0.7986169365153274 -0.6248929378346257 0.36124181306629843
C -1.254695729197312 0.4529180315088415 0.39892406693862364
O 3.231445820286006 -0.05848519224988913 2.1281589282851705
C 2.646956956002341 -0.1593912638968987 1.1393796471243702
