21
## STRUCTURE-ID: 645675d902b1205c303eade1 ; CHARGE = -1; SPIN = 1
H -4.642531363189985 2.596996184893052 2.8057407391194875
I -4.288447447203574 3.1839982759451853 1.257760958318623
O -2.997536886370953 1.6413577321721828 1.8308314713763345
C -3.0779260508448036 3.1203727990432872 -0.5700209770893335
H -2.038776027912106 3.2847552478092825 -0.3180591969492247
H -3.450558324109814 3.9060071855661804 -1.2129896941292477
H -3.1870526248084943 2.1509158376147033 -1.037842822706441
H -2.3374612206015537 1.3942645300555843 1.1858327226069763
O 3.818121901540293 -3.2235445604315753 -2.1110766755467516
C 0.3982248297234647 -1.653860386319147 2.5095400695174943
H -0.5638513085904321 -1.6378450021394406 2.0105063694931946
H 0.7105631961418193 -0.6471351141880255 2.7624410774455592
H 0.3869834773461302 -2.2986272644925494 3.3796368174449074
H 4.752529248298432 -3.5034312988208667 -2.1856065837428873
Rh 1.9571936046234448 -1.2213575742981193 -1.1697911940760062
I 1.8734227771447909 -2.480833864335516 1.1086637524588103
I -0.05946774160714041 0.36771673283215656 -0.6572254771278192
O 2.2155531621770552 -0.6394077712683941 -4.083358947279822
C 2.0828450167376267 -0.8410327284426182 -2.943353853274492
O 4.737410624354738 -1.4683155983367944 -1.0875551695310572
C 3.7107611571510746 -2.0309933628585863 -1.474073386328324
