13
## STRUCTURE-ID: 64566de7ad48b25053111df3 ; CHARGE = 0; SPIN = 1
Rh -1.4476330689856742 -0.3782631475294053 -0.04753924510989076
I -1.502616879441048 -2.117511279174827 -2.028524476923034
I -1.3645971120511797 -2.192094225712153 1.8582380773505676
O -2.009255534211372 1.535392613206286 2.174416010523405
C -1.7204954424534131 0.8337473230900716 1.319135753899176
O -2.058387601498674 1.5900490284795719 -2.2101430161649773
C -1.7586643088918443 0.8697017212711047 -1.3744198083738717
H 3.7620846197262123 1.151369364931821 0.5378882427084732
I 3.66020721593462 -0.3177057469262925 -0.06252376020864224
C 1.1786877916924103 -0.2396355698873879 -0.04172427194230038
H 1.0736560488324824 -1.2811791011323048 -0.32279253556417603
H 1.096447549324908 0.024873955041304255 1.005257278601483
H 1.090566722022581 0.5212550643422195 -0.8072682487962031
