13
## STRUCTURE-ID: 64568c04232bc53935051b80 ; CHARGE = -1; SPIN = 1
I -0.7748958459015292 -1.3753554390677856 -2.2292975389632184
C -1.8613611490006006 0.23292538419341086 0.8164573503833353
H -2.663214751182043 -0.4145866198794537 0.49109768821032473
H -1.7527831488306962 1.0968209930765587 0.16404485748419423
H -1.937638581087366 0.5134653097236557 1.8569547726621862
O 0.23257824842573419 -3.2333985456687815 0.7514589688015898
Rh 0.5741667265808518 0.0687837707317851 -0.425267174041348
I 3.129696320031718 -1.3376119409904688 -0.49896249439549484
I -0.2404593590775565 -1.6106444876558021 1.4635690892889301
O 2.018241793599449 1.815767042526833 1.5156552387509268
C 1.414756628079931 1.1846333515747478 0.7769189699277783
O 1.0462391513633846 1.8184023184655642 -2.8209184743171978
C 0.814673966998745 1.2407988629698012 -1.8617112537919205
