17
## STRUCTURE-ID: 64568a99e674214643351d70 ; CHARGE = 0; SPIN = 1
C -2.425746484631678 0.05076985274490059 -1.6844359048757194
H -2.460044440773463 1.060280637946293 -2.1224841095197853
H -2.324149995821927 -0.7161279203186814 -2.460714987666293
H -3.3153450391778567 -0.13925428496420883 -1.0883865545693832
O 0.7657934416208251 0.4706847285435512 1.9335983271526098
C 2.762794227483883 -1.5068564339135802 -0.4588962082146327
H 2.981232647028348 -2.158854683077601 -1.2964575667814278
H 1.9702726622755855 -1.9118617205761228 0.16188427943835842
H 3.653101493695918 -1.2897048150942279 0.11858066269781031
H 1.1346627868620305 0.2659523996695903 2.8183124068409655
Rh -0.6417156307902516 0.1919520059823666 -0.7228688958166017
I -1.1469494594916283 -2.041159780161876 0.42179447565131833
I 2.054699745882087 0.3852657100616115 -1.27134110051389
O -0.6845435703766148 1.8478540926768983 2.951621629206286
C -0.23489361809388434 1.321317925946289 1.9658316989831792
O -1.2960392617636285 2.590486331584315 0.16146884454339822
C -0.7931295039277072 1.5792559529504773 0.5724930034439206
