18
## STRUCTURE-ID: 645671649fda3c0d6a07102e ; CHARGE = -1; SPIN = 1
I -7.052477389030567 -2.0849501037993834 2.115278724417346
C -2.153000860476629 0.225370231237089 1.4898202514543508
H -2.8607370138799815 0.9519213585576122 1.8823408885026973
H -2.4675908628884113 -0.04814087830055039 0.48392653114658274
H -2.199091259328173 -0.6672397346115828 2.1102786028764045
O 1.4860334220575135 -1.418660369512627 -0.051978918534174315
C -0.7443302070223569 0.7980551949178271 1.4782830363261426
H -0.424465584408801 1.0608631499864434 2.483532218246914
H -0.040340161621959345 0.067417974488004 1.0807273139562301
H -0.6962999234142129 1.69498897446123 0.8632408241745001
H 2.12702562605483 -1.9562109934855658 0.4274684746121255
Rh 2.1522644912711595 -0.3790725312536317 -1.6035815902309374
I 4.423646166819627 -1.6848856901035902 -1.5169280682300113
I 2.8466445434147905 1.8013444518299042 -0.14337988245690242
O -0.7323552276902943 0.3907645387154154 -1.895437425768254
C 0.36989776854980105 0.12812720999252486 -1.8283082838165055
O 3.203461770158402 0.7565690993189182 -4.174695996222395
C 2.7617147014352876 0.36373811756196184 -3.2005867004541093
