12
## STRUCTURE-ID: 6456685ef4738f432e6cdb46 ; CHARGE = 0; SPIN = 1
O -1.0353702387594088 -0.7775175437768675 -0.3043016894312506
C -0.9714314524403597 -0.8619037509653021 1.055446570731397
H -1.8510484970371939 -0.42704757063214227 1.5382019155197613
H -0.07203056857461439 -0.24648677909170474 1.342803449108407
H -0.7800621255658576 -1.885834451008268 1.3895690056929388
H -0.23962851031384666 -0.07998226898572608 -0.6369048379698964
O 1.324635964832687 0.5113350819618669 0.7367537721908249
C 0.3880133854325318 0.8767880220093369 -1.2947262845915186
H 0.3387602101478883 1.8258209095186264 -0.7889925899142888
H -0.3407066668767821 0.7678194994064085 -2.0953010553735396
H 1.3836558841445248 0.5771217311669976 -1.5735660400290281
H 1.855212615010427 -0.2801128796032285 0.6310177840661934
