12
## STRUCTURE-ID: 6456662daadad8316641e58b ; CHARGE = 0; SPIN = 1
O -1.6462235171488862 1.3676542078279517 -2.096946259998453
C -0.3330764849753532 -0.7966745576352068 0.44741493093107904
H -2.4115923866902502 1.1379935264517107 -2.6300769400330424
H -1.1992046077701832 -0.7106677937091646 1.0966417096398784
H -0.2106808855535042 -1.8334497167085189 0.14641581538762133
H -1.3235245850981232 2.213418035621704 -2.4181676046337635
O 2.0406360733640887 -0.5072053059425041 0.347980916782984
C 0.9114019137124785 -0.32539472292174826 1.1839311658457463
H 0.804468260078449 0.7358138401391887 1.4487907699681748
H 1.035742244476966 -0.9036122894392368 2.111645977223375
H -0.4944479239648204 -0.19297145578373287 -0.4415398127405102
H 2.826501899569151 -0.18490376790043742 0.8039093316269221
