12
## STRUCTURE-ID: 64566794231c572cc65a8531 ; CHARGE = 0; SPIN = 1
O -1.2299414464762046 0.02270593440008587 -0.42050367805356126
C -2.2887233774625604 -0.22207500147292467 0.08838874088547137
H 0.8193501827495816 0.6215512888173815 0.8895997724666379
H -3.007276311510237 -0.9193463501999994 -0.36324565399457653
H -2.6000910568096294 0.23745071045183128 1.0363908348956592
H -0.35721992751878096 -0.6790428431763567 -2.0768398588311987
O 0.06121001867850186 -1.0369182960630903 -2.871419051777087
C 1.7034937007784656 0.6362188722005874 1.5129748789226984
H 2.207008792185924 1.5876982559914472 1.4039134083647256
H 2.3697304433017856 -0.1609964962100794 1.2106723313927745
H 1.4198139621639068 0.4948783910153013 2.547594212210951
H 0.902645019919255 -0.5821244657541704 -2.957525936482498
