12
## STRUCTURE-ID: 645665b2eb78f343ca351d70 ; CHARGE = 0; SPIN = 1
O -1.6067179821237665 0.023975040400146558 -0.7984085673606303
C -0.5817029285858232 0.06499180508433289 0.9733828442056023
H -0.5273819346835671 1.1473163126869346 0.9757843258632648
H -0.9330924221757915 -0.3636370242069344 1.9104753992533334
H -1.562306330458271 -0.3727061659623621 0.23559568264799458
H -2.3242610820512626 0.08306776578238177 -2.223452366781126
O 0.6472673601260677 -0.5692225778753252 0.5988367999953541
C 1.298730822603691 0.03426993411584823 -0.5428350091643461
H 2.093533581911729 -0.6351457886169518 -0.8617429380837497
H 1.6803079228660582 1.0267210988277138 -0.3083105893117359
H 0.5379173626337729 0.1137417371475173 -1.3197295466466343
H 1.2777056299371645 -0.5533721373832892 1.3604039653826496
