12
## STRUCTURE-ID: 645667486fbbbb6e4d351d73 ; CHARGE = 0; SPIN = 1
O -0.7367589934729246 -0.874218721718851 -1.4827330285305123
C -0.5125290438183528 0.16434571080907523 0.9575205276545875
H -0.030088115192191008 0.03717187526907837 1.924260342617199
H -1.3921552592477802 -0.4984640119865753 1.1038813468684887
H -0.8776121500990463 1.184445075051649 0.8658899160488669
H -1.4366714208721136 -0.37582302122175176 -1.9146213771651095
O 1.1488577780954672 0.5711454981221756 -1.0947151431795268
C 1.1434643112544496 0.2501488828435772 0.16689164239014811
H 1.550675522210784 -0.7474762109817341 0.40720049352941223
H -0.6131723516935128 -0.4430782180515499 -0.16187264090609818
H 1.5869306603047806 1.0153238847546637 0.8169097669474564
H 0.16905906253043598 -0.2835207428897541 -1.5886118462749559
