18
## STRUCTURE-ID: 645674d8e4a30a682c4975c1 ; CHARGE = -1; SPIN = 1
I -2.095024852411158 1.9745636605327312 1.6858217779051339
C -0.999987666278814 -2.90501130588433 -3.678425230383123
H -0.023514681762312757 -3.381479012874851 -3.713632779923746
H -0.9520427947789472 -1.985134297836976 -4.255960326925399
H -1.726917679938686 -3.568684517923547 -4.141097718899478
O 0.744920084300536 3.941892574905604 1.4390606218449915
C -1.390408761070671 -2.6063100552605034 -2.2386609280541343
H -0.6642949319812373 -1.9420582998726361 -1.7725664114049895
H -2.364483557259345 -2.1245923251298606 -2.194437881480877
H -1.4356094429591288 -3.522873282349103 -1.6545173886978404
H 1.217023537467517 4.758905244487392 1.1640043593370712
Rh 0.3410326028873829 1.515173959651249 2.541950154756597
I 1.0310274487404354 0.3099787192592548 0.2925410113687333
I -0.1616921694425477 2.5783041483257922 4.918863148624888
O 2.572215572767412 0.04126114656510126 3.852318408412511
C 1.7667371757774912 0.6646026208033953 3.331838011053988
O 2.6533716132006915 3.1824772391249896 2.3450481433302577
C 1.4876485027413804 3.0689837834763147 2.07785302913538
