12
## STRUCTURE-ID: 64566b78015ea42c702eaabe ; CHARGE = 0; SPIN = 1
O -2.7316024050260066 -0.4939703417782458 1.360558843871915
C -1.552774520283393 -0.41697504752788495 2.1317626831227305
H -1.0673797067052198 0.5578875574481743 2.025395294743345
H -0.8453985940348396 -1.206592801469745 1.860958682061541
H -1.8501273983891977 -0.5507945782430658 3.170478145144656
H -2.504708692903221 -0.378085057662179 0.42994997328466417
O 2.7371473978467895 0.49771005665118634 -1.3728668304114782
C 1.5492672551937168 0.41292412906744336 -2.1291598170249633
H 0.8464402881790108 1.2078102388600251 -1.8616336581329163
H 1.063770731350552 -0.5597546084365906 -2.004680236640958
H 1.8352703000060815 0.5319586328587734 -3.1726823977531464
H 2.520095344765724 0.3978818202321048 -0.43808068226538155
