13
## STRUCTURE-ID: 64566c033a260039d028a810 ; CHARGE = -1; SPIN = 1
O -2.506685855629883 0.02062491452240315 0.3837192719954177
C -3.7960801288413957 0.12192682559673973 0.7844120849392887
H -4.077685950347042 1.1639884641706237 1.0613331639991455
H -4.019712701642154 -0.5118864453872042 1.673587672768806
H -4.503542270353002 -0.19416549221788354 -0.014106213331265768
H -0.9453375167672895 -0.29228815155260496 -0.5450605723935965
Rh 2.413186887085627 -0.11070006306871871 -0.5736599697223734
I 1.3379170865762107 -1.0771837282646108 -2.721607598520198
I 0.05145027828928851 0.2291595770240056 0.5692589219435746
O 3.7655254491957093 0.9965810748804312 1.8517233153503494
C 3.2360481308347517 0.5736237442743832 0.9292753586399612
O 5.012495025283665 -0.5492762976928642 -1.9809744450348055
C 4.032421566315454 -0.370404422284697 -1.417900990634286
