12
## STRUCTURE-ID: 6456671930f60620977ccc13 ; CHARGE = 0; SPIN = 1
O -1.350174573517032 -0.5699184510746005 -0.8344093279173196
C -1.1036822155414212 -0.18282481787022006 0.3838191602421769
H -1.4219947981832617 0.8448760078896509 0.6315229056769333
H 0.5917481496257804 0.40111119166058345 -0.2968018280048038
H -1.4512898804684795 -0.8896797375457293 1.1482271836885263
H -0.44119851078690053 0.20467482143490778 -1.5479676597373466
O 0.49264311576555353 0.7507629454371898 -1.6439194938781125
C 0.669965293360348 -0.13556371632189435 0.8594963200896929
H 1.5849572871604858 0.49265802093532274 0.8060610399254947
H 0.9744590347132688 -1.1755054723146035 0.7688976792132932
H 0.37463621897618804 0.06709044700465538 1.8867619116999714
H 1.0799308788954773 0.19231876076473778 -2.161687890998505
