12
## STRUCTURE-ID: 6456658753adc5199107102b ; CHARGE = 0; SPIN = 1
O -1.2717896718711714 0.7324472858138246 -0.9668527970848857
C -2.305444573082504 -0.1848064630842961 -0.5236253028289485
H -2.4379181319903007 -0.036978966650519286 0.5451607742998777
H -2.030603392166479 -1.2189102128367075 -0.720258428280889
H -3.229206210664616 0.06908885871713356 -1.037291988890974
H -1.1667622670418065 0.6688148094049116 -1.940626497223871
O 0.8148950047147014 -0.3963058919744898 0.16221750997139278
C 1.6694442767913027 -0.32892909079071875 1.005269521329649
H 1.8627483909103524 0.5851999677121807 1.5789964182511804
H 2.3132527603017796 -1.179045633802442 1.2529639054110304
H -0.4002669476702807 0.4745988497344383 -0.5126289792443824
H 6.181650761769102 0.8148264877566506 1.156675864290783
