18
## STRUCTURE-ID: 645672ba8baf9758fd5a852e ; CHARGE = -1; SPIN = 1
I -0.5861528816340557 3.930451854137705 2.308034076955313
C -1.7730737916574257 -2.0121265027656112 -0.9024187017678523
H -2.547038355910438 -1.6196045786972255 -1.549162207354329
H -1.3580949277018517 -2.912817814117542 -1.3318448039184865
H -2.192203511979035 -2.2272058230582332 0.07280679366538677
O 2.3094861216775633 2.18464260766413 0.8231416916846114
C 1.7344048427647556 -1.834380989948929 -1.370685843922126
H 1.418209565968249 -1.8241400628707185 -2.3968747075321715
H -0.9877180441159568 -1.2689996666016319 -0.7982062130407279
H 1.5945574825535833 -2.7229646549595374 -0.7845533189875485
H 2.535482249665575 2.951780068783906 0.28625729508301606
Rh 0.24888341449638637 1.6004654580720856 0.7569578224107546
I 2.1947914450739017 -0.08343801449319345 -0.4509943241031924
I -0.12619303523182457 2.711071727902704 -1.6320921996409683
O -2.631494925983458 0.8295860015954339 0.5556713891356068
C -1.5072945119054753 1.033958538046216 0.628536302636061
O 1.027114215407787 0.45839059418521344 3.4030968950418132
C 0.646334648511729 0.805331257125212 2.3823300536549015
