20
## STRUCTURE-ID: 6456b7f740c94b0c3c2726b0 ; CHARGE = -1; SPIN = 1
C -3.106498759131005 0.6347243731928678 0.41562837427864563
O -4.057562830908995 1.2054242414828134 0.6898306830748957
I -1.5988603140235083 2.6568627676251952 -1.295908929032188
C 1.8341382588944184 0.852505928286791 -2.2599025826792896
H 2.616642578217613 1.4498581372701234 -2.726429567723655
H 0.9806916585406257 0.7607420674490748 -2.93196076139376
H 2.201470678690515 -0.15024238336924875 -2.043947648878374
O 1.2765296822619216 -1.2417486074755395 1.4850018720160532
C -1.662971889485982 -2.46790066781286 0.5687497011416971
H -2.0885430532369718 -3.3393236246837468 0.08452911010139579
H -2.428256798004849 -1.828869859272312 0.997127860375839
H -0.9132979986697592 -2.7335866713764143 1.3048533515796898
H 1.9888727948707265 -1.582688123572199 2.063692461826333
Rh -0.0071298977752102975 0.9818625745500494 0.24097332205314156
I -1.2157644626643596 1.2410197707479431 2.731800653280848
I -0.6703593061229484 -1.2989773249244567 -0.9518262721838346
O 2.2296893826682904 0.7594927967474061 1.7956218386568523
C 1.3455701215338416 0.07757843451139701 1.3156687934622828
O 1.8691746609099318 2.507853706899758 -0.49048199208986687
C 1.4064654934357277 1.5154124637233428 -0.9930202678666633
