19
## STRUCTURE-ID: 64567aaed6dc680ff528a81b ; CHARGE = 0; SPIN = 1
H -1.1559180421689335 2.0023900614220684 -1.5391158091910127
I -1.738679482792319 -1.44297509966832 -1.1406144193038013
C -3.358531029583686 1.0836430506269623 2.2826130755687215
H -2.5659045869288537 1.7957196936597841 2.4660434862996685
H -3.620226332549849 0.5857842762260103 3.2068491616679036
H -4.227680265316159 1.601503111593862 1.8992588126764827
O 3.678209936214957 -0.523462633894307 -1.509555734023074
C 0.3417681482072973 0.537792074344566 1.9809720863840246
H -3.038444565152137 0.34629939318758335 1.5576404260972323
H 0.4261657149296669 1.609157458389224 1.9823427860700944
H -0.4376846738963428 0.021176083522927106 2.5097974260266893
H 4.534027221556852 -0.37977499725535513 -1.963604093961165
Rh 0.837447269975646 -0.8788307878847419 -1.5694543366673406
I 0.3684064381432772 1.766255508670591 -1.9451950929447035
I 1.7447089863347236 -0.5385454665994972 1.0056857113216071
O 2.754033035851977 -0.5431150927251386 -3.5487210142711905
C 2.6441143855913247 -0.6114571930297803 -2.3377476474834915
O 1.5435911676970897 -3.770583594220298 -1.7096090958264354
C 1.270596673885293 -2.660975846366366 -1.627585728440307
