12
## STRUCTURE-ID: 645668fc4c360d5ec873b9e8 ; CHARGE = 0; SPIN = 1
O -0.22493379526915944 -0.20089570429418194 -0.11636005616694994
C -1.2893952876454868 0.4902943536119817 0.5007725167723344
H -1.552648913447012 -0.0718918478100503 1.3934835845355618
H -2.155820037621726 0.5467958795828335 -0.1667980283279213
H -0.9877061223705071 1.5055532949447765 0.7808077059187161
H 1.1827951776495944 -0.8825349660675238 1.0127202430711824
O 1.9056372570180746 -1.2931544856708224 1.5102673016378925
C 0.2109185344409674 0.41753189298284193 -1.3081270548363015
H -0.601121539579769 0.4655616378901928 -2.041548234117921
H 1.0211726976889886 -0.192151051243018 -1.7007631006885153
H 0.5758104194945678 1.4316740225718017 -1.112201363702581
H 1.9152916096414723 -2.216783026498819 1.2477464859045126
