12
## STRUCTURE-ID: 645668aa376d1f04145fdacb ; CHARGE = 0; SPIN = 1
O -0.9203771353622683 -0.5409554627686437 -0.46722244830651716
C -1.7432306503321289 0.3099929259717386 0.35595954245936834
H -1.7186617088935086 1.3484797432407405 0.025632923995969076
H -1.389267144121654 0.23980796331495108 1.3842953273880378
H -2.7507016845328196 -0.10334052856993761 0.28508982504640007
H -1.1801624598770974 -0.45157979637090695 -1.4258710656062212
O 0.4936910216963662 -0.0829976992162736 -0.4905912416921161
C 1.2998429198503667 -0.9046399191755667 0.30041032993586575
H 1.3202123904740513 -1.9321189104008747 -0.06850503706663265
H 1.0298150514819415 -0.8609178271528202 1.3575910804118991
H 2.2816077337899148 -0.4478110900323701 0.16402122978054146
H 3.277231665826847 3.4260806011599634 -1.4208104663466028
