21
## STRUCTURE-ID: 64567c4c2025bb55ec3d7d85 ; CHARGE = -2; SPIN = 1
O -1.5836071702287409 -2.232280023532012 -0.6216379957698671
C -3.8697184974858305 -1.3486460884607048 1.4278996722549857
H -3.5539236418942464 -1.2418050605612851 2.4589617654430618
H -3.30215570675815 -2.127069178570712 0.9305920268617689
H -4.9379661921086075 -1.488647554348561 1.3288969974577811
H -1.2549059317918947 -2.830667144335372 -1.2948882043163392
Rh -0.5646558115752768 -0.3795835904753875 -0.34049022660950684
I -0.03459181436472472 -0.8778689348592554 2.3002347254542186
I -3.355516066154549 0.49341567787650936 0.40074775192407097
O -0.14396480026342534 0.22906197148327045 -3.2170733430178604
C -0.3173768666916294 -0.06474428405191028 -2.106021366333887
O -0.0949182732373621 2.534845292370809 -0.22592168508740001
C 0.21227020001206023 1.3994289372522508 -0.02563426769320529
O 2.5224928037842758 0.8642869677157362 -1.9758056391867174
H 2.9962932450787116 1.3882581780292143 -2.652824822732906
Rh 1.7715418494271729 0.39540107470475133 0.6838871923448212
I 3.1612632155456537 -1.9328167627942383 0.021347366663393843
O 3.209952793652969 2.513156490302134 -0.663338129615172
C 2.631562779392406 1.43674797583688 -0.7482722917518047
O 3.604749451047283 1.970776661008468 2.4747632529207158
C 2.9031744346139807 1.2987493954093998 1.8445772207898865
