18
## STRUCTURE-ID: 64568b03c466761d6e4dd52d ; CHARGE = -1; SPIN = 1
I -0.5135911880137918 -2.796075593352209 -1.3811252329019619
C -2.3520702100764272 0.13162340278730134 1.2684299896511808
H -3.0919521057181965 -0.5479139661369005 0.8462602193137433
H -2.501628058951325 1.0966206312077862 0.7692331885498993
H -2.5498238620878735 0.26707234807209035 2.334174531803749
O -1.7189157751555286 -0.04953329678429462 -1.655014555583065
C 3.4840289516998073 0.6851191393032089 -0.42596199376024485
H 3.547510289808697 1.6551485052569876 0.05428932787404562
H 2.8882008097037755 0.7373294874040747 -1.3312109166083195
H 4.46190806407702 0.2589682088710228 -0.6118698548966555
H -1.7002801165480477 0.46928230530964093 -2.4791351872652325
Rh -0.21562622656861663 0.05108643813032667 0.7137386451450534
I 0.30309012446253547 2.664840513996772 0.47859308096439457
I 2.4316411974399212 -0.6527854391177986 0.9172873144622716
O 0.538625368746331 0.031159817896065287 -1.8336596018898346
C -0.46652409954376334 -0.3785817892127133 -1.2663612520517993
O -1.453878535869072 -2.2632199762815812 2.1181968286648254
C -1.0907146274054356 -1.360140737349787 1.484135468527914
