16
## STRUCTURE-ID: 64568d74bcdf1a0d7d73b9d4 ; CHARGE = -1; SPIN = 1
H -1.8194714220219224 -1.3196803146702265 1.8742587319631745
O -1.2048705410311182 0.8749067415727769 2.362725598525241
H -1.273491043730048 1.3483485577786352 3.214414687867968
O 0.15715310228612328 -0.06974547157338597 -2.2934226261703983
C 2.1686361291352267 -2.037194922891328 -0.896627129257622
H 1.528347306891809 -1.8001643644166467 -1.7404771192550321
H 1.7829173515847632 -2.8748825993209306 -0.32776106721409326
H 3.196440932268767 -2.1873962104452644 -1.200361994244582
H -0.22093282627757352 0.3908418294326588 -3.0431118117972336
Rh -0.2544109717406282 0.7882558578111565 -0.32362177895901373
I 2.0912716479307014 -0.2742138597206541 0.3793288684795738
I -1.564131620219382 -1.8472463688861607 0.40986303075783426
O -0.07493407412429251 2.711585253371817 1.8368985006767617
C -0.48749743325107336 1.6180953168159145 1.446537576328888
O -2.437181100646538 2.7342305186257145 -0.9277276833670803
C -1.5878454370548158 1.9442600365159397 -0.770915784334397
