13
## STRUCTURE-ID: 64566df3f77c97188373b9d4 ; CHARGE = 0; SPIN = 1
I -1.6518213761516995 1.2649169834126073 -0.34880270598544233
C -2.578122812415238 -0.7015915714969297 -0.37725703073162453
H -2.3338415010541875 -1.164311903595221 -1.3265470188335178
H -3.6456976446843044 -0.5532587558766834 -0.2742662975182832
H -2.1809197451798803 -1.2643734721939603 0.4604766953532551
H 0.721422338697632 -2.820392212310345 -0.8597538600688364
Rh 1.32497155906168 0.41302963794790065 0.28083345510109603
I 1.176888077001588 -1.509846605637501 -1.642364770685839
I 0.5635936943783306 -1.2508305258592485 2.174720266297256
O 2.121006206883703 2.070297113793769 2.633598275494541
C 1.8258635455223733 1.4595119140778436 1.7121083582526428
O 2.571430999466637 2.42429667180891 -1.551121888611815
C 2.085226658473347 1.6325527259288546 -0.8816234780634191
