18
## STRUCTURE-ID: 64566ef79b9df1592f1a5623 ; CHARGE = -1; SPIN = 1
I -3.179570019127018 0.08417852256888528 -0.283785963437379
C -0.965219236831292 1.8491327003963605 1.6081328744859562
H -1.102591115484233 2.6369433752308162 2.3171565105978487
H -0.8832123901286464 2.0967417220149667 0.5719946244902134
H -1.1105625527057785 0.840628781115351 1.9287327619212904
O 2.329250179622732 2.1221387097016158 -1.2067983140149363
C 1.567594111442947 0.31844310023731615 0.648232256128245
H 2.6396764179564225 0.452364117039821 0.5807615027252915
H 1.310491021877499 -0.6505038629254098 1.0638307973211603
H 1.0912753690191 1.1226150075281596 1.2194808121656167
H 2.3112826067358725 2.633653101741575 -2.0161054502763074
Rh -1.2236849934594718 -1.5768932739429133 -0.976105657608352
I -1.5804255096761888 -1.2211454224974267 -3.5927482131886666
I 0.7810273255777594 0.41970998566422624 -1.3330915776610779
O -1.1460671286917823 -2.226394483041656 1.9410159744361866
C -1.174085947225547 -2.011551451634575 0.8086114424636045
O 0.5144856948459174 -3.872315233231836 -1.8063822869403663
C -0.1796638337482787 -3.0177453959652656 -1.4729320936083306
