12
## STRUCTURE-ID: 64566a5a98320b3ae73eadd8 ; CHARGE = 0; SPIN = 1
O -1.2209072831333005 0.33605498329806494 -0.8553870328352751
C -1.814795496890941 0.20094882858851168 0.4206217126227842
H -2.0287784405758362 -0.8468693342095331 0.6500655844786731
H -2.735772343132444 0.7846688512898876 0.49331611304848944
H -1.0965892721076744 0.5842482367347919 1.1432980590698107
H -1.8491067410859896 0.04047753539579312 -1.5253535816488017
O 1.4653888402165414 -0.6623963385745415 -0.9718086845108073
C 2.0530065991134325 -0.1289727247024179 0.19108814310936864
H 1.5267256225669747 -0.4600787164470266 1.0928597675247338
H 2.0664956488110717 0.9655379950375848 0.16818326856759383
H 3.078393100351644 -0.4953373690586016 0.22690825023472522
H 0.555939765866516 -0.3182819473525252 -1.0337915996612823
