23
## STRUCTURE-ID: 6456b7a8d2af9719a75c71b3 ; CHARGE = -1; SPIN = 1
C -2.344178705386244 0.9083454290256486 -2.216847376568284
O -1.8179845953325557 0.3638686200325727 -3.082425082765876
H -0.7842618379897072 -1.2798080419938302 -1.769417947945336
I -1.6930221570757407 -1.0150285458036001 -0.3585037226929709
O -0.026334650355880167 -2.152178638312387 0.0880462108458402
C -2.1606703213450227 -1.267000545201507 1.7658059448564882
H -2.354110780344256 -2.311502290000782 1.9744596436584763
H -3.05072016313383 -0.6650758586927007 1.917595813733999
H -1.336190877718506 -0.8813444286794107 2.356494584400711
H -0.07776245710192994 -2.609817758168191 0.9269966217608705
O 2.6290857633267946 -0.7781211343789646 2.5609302588695573
C 2.6744034164701365 -0.3549478735924971 -0.139648250180451
H 3.3356500241715854 -0.929530482677518 0.48990345879640135
H 3.2144979205127333 0.44150402391420485 -0.6416160571397109
H 2.1831669824311435 -1.0001294565259835 -0.8613525461393781
H 2.383069750210337 -0.645019467845266 3.4764213752565643
Rh -0.2917580062175579 1.8165584141696085 -0.6036813180270891
I -1.5595261202150663 2.336304286242056 1.5894344287213047
I 1.2108972271937841 0.49155167334126637 1.1059889220352137
O 1.5939926034002727 1.0014684931144957 -2.773233870123636
C 0.8770385095140801 1.3426439583484115 -1.933008525827898
O -1.4641028234291154 4.040467924951532 -2.2539706214306348
C -1.1411787015854797 3.146791698732845 -1.618371944094148
