21
## STRUCTURE-ID: 645678fd840d4549cb67f9b4 ; CHARGE = -1; SPIN = 1
H -4.022861813880411 0.6460771529813283 -2.5702237022350807
I -3.066063845335975 0.4955400735765425 -1.1833989482661127
O -1.83036702605997 -0.018256526554846837 0.5912632406509053
C -2.235563355305887 -1.218989575117387 -2.1042633865983404
H -1.8839425985526368 -0.9291495005141431 -3.0852695862615476
H -2.988739723444914 -1.994893336204093 -2.1489139479485373
H -1.3918962300985622 -1.5298616554629059 -1.485366205887524
H -2.401073169672454 -0.26834366041919866 1.324291359727806
O 1.782547748458561 1.297971481008619 -0.7135309581336973
C 2.49325200081186 1.5438394899982315 2.47952826842665
H 2.583965071191113 1.3345498710758306 1.420129756013555
H 3.340090144700226 1.1502482719994356 3.026725739574836
H 2.3628588411717466 2.603139219346204 2.660058931848527
H 1.7796539872695019 2.0387654822384973 -1.3537289356920283
Rh 0.23723939030253322 -0.8616616207337788 0.4951678282946476
I 0.7259008342577277 0.5363071911946711 3.1911354838966193
I -0.6583095954401103 -3.188519046047821 1.522688938503499
O 2.97286750275676 -1.9162064413558022 -0.002504001183449283
C 1.899027454166502 -1.4870921738552856 0.18035544305112394
O -0.2634998924074596 1.1072934986242207 -1.52291605570281
C 0.5649142751117703 0.6592418042216562 -0.7212292620791592
