12
## STRUCTURE-ID: 6456673200c0d30254610ab3 ; CHARGE = 0; SPIN = 1
O -1.642487937480053 -0.1753516839651409 -0.07831727512535086
C -1.518547488507538 0.3359124109820384 1.0894660838856869
H -1.687008194694825 1.422974215675442 1.188271463757221
H -0.20439641834714925 0.2734338808103218 1.4507745231579925
H -1.9555900162255562 -0.21792233958807922 1.9393291525086518
H -0.2732593755391238 -0.8142408661976815 -0.41309419555123933
O 0.7428358676890846 -0.8978631132344947 -0.28807600377981657
C 1.3706802762956836 -0.07512849337304908 -1.2662280866971474
H 2.4203857994887277 0.0212438057636846 -0.9927212684239867
H 0.9060825688100642 0.9090221811858437 -1.3199286530256302
H 1.288048130202658 -0.5642266018761448 -2.2368821517464177
H 0.5532567883080294 -0.21785339618274494 0.9274064110400244
