12
## STRUCTURE-ID: 645668776d2bad62b41a5620 ; CHARGE = 0; SPIN = 1
O -0.7040116229189496 -0.5530358142591391 -0.24140874661075976
C -1.6451077973662105 0.15162426075639665 0.46312842150079103
H -1.5282579159134164 1.2425456579234337 0.35321452083124044
H -1.6118019941055992 -0.09317946064515267 1.537815045104446
H -2.6494021834614334 -0.11355446532038209 0.10057398591887842
H 0.10738833829240332 0.09714873837100133 -1.2123103397303916
O 1.0634400870742664 0.43001331359276174 -1.4480414159840362
C 1.2585009495957062 -0.19432749092672605 0.4350629903959955
H 2.2251374600795693 0.25923783368989833 0.26214514998179517
H 1.2677221654796265 -1.2681317298972186 0.49008956371776474
H 0.7179404264051515 0.2997961609268887 1.224264340571684
H 1.4984520868388973 -0.258137004211757 -1.9645335156974033
