18
## STRUCTURE-ID: 645671d7e4ad9972c032492b ; CHARGE = -1; SPIN = 1
I 0.14944540486747504 1.274076141456879 1.2608960149314687
C -1.472037504411799 0.12692602813430487 2.091681523247518
H -2.214243647582582 -0.007813923756350908 1.3129567217463742
H -1.8765237852459196 0.6825239852010073 2.928066275508764
H -1.0667034401822444 -0.8279575611726202 2.4073975786768314
O 3.211921719973761 -0.8591221348434789 1.012069035069051
C -0.8411047332042407 2.4773121824698343 -2.4444386481976745
H -0.367713928590257 2.8782271122892076 -1.5567481394588611
H -1.2782525099620605 3.259627541991014 -3.0496823263434654
H -0.13746767452803357 1.8831546644207013 -3.014101964238224
H 3.7828573161053116 -0.36482336586428527 0.4156954099559728
Rh 1.4293337479117962 -1.3971627493810523 0.15488863083224869
I 2.136964176707704 -0.33226244057142335 -2.1451788723040552
I -2.4246759872837766 1.1873498882409945 -1.8051863028971111
O 1.004748231354999 -3.148181507906215 2.541079102342162
C 1.159129263980746 -2.4470647587898844 1.6358758887485998
O -1.0754909689248846 -2.399938396667897 -1.124379888838064
C -0.1201856809859584 -1.9848707052507213 -0.6208900387815656
