17
## STRUCTURE-ID: 64568cd6f6ab1843323dae50 ; CHARGE = 0; SPIN = 1
C -1.781768115033648 1.0665789871909697 -1.7324528852735408
H -2.444078316001716 1.7473804467571525 -1.2051341513787177
H -1.7140763755897028 1.338033399650141 -2.7826296359245295
H -2.1309586199832586 0.030640012228756203 -1.6390868092329611
O 0.4825791468988886 -3.4154336333583775 0.9327372558217728
C 1.2778507165616853 -1.2156313857839216 2.274979927031244
H 1.888940320178226 -2.0378009918377913 2.622175808241624
H 0.2749441769661718 -1.317411070814814 2.6696992499872603
H 1.7216589142228464 -0.2573754655100015 2.5175220792171746
H 0.42934858768975465 -4.063663697001344 0.23214560078960128
Rh 0.18272662194803752 0.7736530690299287 -0.7564231927252912
I 1.348286644043433 0.01957246717005637 -2.9964087307177794
I 1.1661675539107972 -1.4005967249704294 0.1547609326226844
O -0.6404346158370443 1.472329169953438 2.0451877622706354
C -0.31130175351281547 1.2421603078404322 0.9795092117319839
O 0.12186160277617371 3.5322401288576497 -1.8795059896692359
C 0.12825351076168368 2.485324980599261 -1.4370764327908647
