13
## STRUCTURE-ID: 64568887414f8f11a02cdf74 ; CHARGE = 0; SPIN = 1
I -0.9320723296569526 1.9709514048877839 -1.7274834469918368
C -1.3516529387309217 -0.6810811519315796 0.7273284984124169
H -1.3913258798201538 -0.22029622982495867 1.7138120706620774
H -1.2677167672597593 -1.766273967834236 0.8160039187701363
H -2.216104660493663 -0.39853715487490604 0.1240382845710451
H 0.8817413985794449 -3.3004022002400513 -1.6362078783261451
Rh 0.3446086626720623 -0.045061792101116264 -0.3186917715440499
I 0.3179186714730509 -1.9893599243166225 -2.3292532521398925
I 2.0341702157988477 -1.2769487527010617 1.220092990970947
O 0.06301817806357846 1.9693298857506663 1.8821494176621594
C 0.42489549647511865 1.5575231138502306 0.8290282701201146
O 2.0661771253500136 2.1626673713186504 -0.9317165100201983
C 1.0263428275493416 2.0174893980172044 -0.3691005921467743
