14
## STRUCTURE-ID: 64567b2b5cb3545a0f750efb ; CHARGE = 0; SPIN = 1
H -2.2094462285135466 3.180798611906065 1.8972986433919832
I -3.4856858298035243 2.5146449197964 1.2738942906704058
C -1.0206850219396195 -0.1030635295106629 -0.6590078309307112
H -1.3434796958550694 0.9391757370840581 -0.6868916847098334
H -1.537416647171177 -0.649020724843199 0.13888648119914423
H -1.1709290277752504 -0.5785612954075703 -1.627313855453581
O 1.6537375802347307 -3.370057656963783 1.813422240494136
Rh 1.0156062807614348 -0.19945362770159134 -0.02690744413332779
I 0.8416805443824349 1.7740855104708675 1.6315428715821123
I 1.3481680114193022 -1.5809840601772431 2.1284545556117207
O 1.561324430349849 -2.8466091861136977 -1.3230261897392863
C 1.3238682227389529 -1.820127989914304 -0.9138246029489856
O 1.6591940716721365 1.7418068699811353 -2.220903834959598
C 1.36406330949934 0.9973664213935209 -1.4256236400741855
