12
## STRUCTURE-ID: 645668594f4baf39ba1688f6 ; CHARGE = 0; SPIN = 1
O -1.4409428690423631 -0.3948958205972026 -0.5711207030719156
C -0.6892192283487671 0.5353529032538119 1.354126518544905
H 0.042349967773670096 0.9326275960145292 2.054695964989512
H -1.0920068307696507 -0.4203545011369966 1.642670606151778
H -1.4320029137805192 1.2535473808253201 1.0517513015749231
H -1.551217697581286 0.3371202896456314 -1.1802371620221308
O 1.2841321130116434 0.3448202572745793 0.007722024215588921
C 1.2121854706346429 -0.5682756692016461 -1.0027769779937572
H 0.12178953488295273 -0.8465876645529268 -1.0656938569667482
H 1.7837195594853519 -1.4742732473086975 -0.78271507603485
H 1.4874883624637925 -0.12929332929119747 -1.9661941722406002
H 0.273724531270545 0.43021180507480106 0.45777153285327965
