12
## STRUCTURE-ID: 6456672900db6e3a1d1a5628 ; CHARGE = 0; SPIN = 1
O -0.9775854482584437 -0.519949341389686 0.4745745864166367
C -1.4511157914865922 0.12574935048176894 1.638912985586845
H -0.7649565627678481 0.9443450942022844 1.8472888545658197
H -1.4631084007927062 -0.555097602482141 2.49418327334361
H -2.4540895006139145 0.5327670280236825 1.4841374186206215
H -1.5552051522605537 -1.2669219750473202 0.27611754063545124
O 1.7330189510780072 -0.40552489111074647 -0.46583372587426913
C 1.5424468667532996 0.2762376400689585 -1.6835936309055204
H 1.0967931693410342 1.2628879238575612 -1.523594541182988
H 0.9044982362021327 -0.2945942271655051 -2.365901502253073
H 2.5251544296614843 0.39999244089202496 -2.137302707147242
H 0.864149203144102 -0.49989144033088534 -0.03898855180588084
