11
## STRUCTURE-ID: 64568d6774219d142732dfd0 ; CHARGE = 0; SPIN = 2
H -1.620623983581822 -2.13222635973511 0.270386353575802
O -1.7248682719788797 -1.21045648187645 -0.004261623923435155
H -2.4761342737643703 -0.8496230659568236 0.48651085218113366
O -0.9943944497016406 1.0443014729471978 1.4405920772363374
H -0.7682458407361191 1.7277589221503253 2.079023762435053
Rh 0.17205610377734054 0.24375677921385702 0.15797545513465852
I 1.5772340248448913 -1.525646231252624 1.4777494795534565
O 2.526664925223237 1.7780943126672468 -0.9401740634703452
C 1.5242970065375414 1.2330499788887725 -0.6877266052081195
O 0.9236670601632027 -0.27157356419355566 -2.7098358384649845
C 0.8603476992166312 -0.037435762852836556 -1.57023984904956
