10
## STRUCTURE-ID: 64568948c72962682a4dd530 ; CHARGE = -1; SPIN = 1
I -0.35829576498874327 -0.7513647673414957 -2.806242437544023
O 2.2835575124419027 2.4188880577663148 -0.25265276013397486
H 2.5117935644863576 2.990769283805373 -0.9917148274852629
Rh -0.6964743805577396 -0.3340706192991475 -0.18873888836654376
I -2.7375237451229024 1.4740699688652756 0.06757762247459367
I 0.2898252000932827 2.1584402159262677 -0.1718678609508987
O 1.0684011807047546 -1.5800796737007774 1.9062101884646638
C 0.22444325622008396 -1.250342854524825 1.1565975090191638
O -1.4726487109541846 -3.102584036878339 0.7946726265688329
C -1.1130781123228424 -2.0237255746186666 0.48615882795349463
