12
## STRUCTURE-ID: 64566aff4bf8cf0dde7ffa8b ; CHARGE = 0; SPIN = 1
O -2.0010843975918546 -0.28911081538803796 0.12204719063377413
C -2.6014987895540043 -0.6017368895930547 1.3600441464396607
H -2.095635806250276 -1.4891715398368173 1.736499141730415
H -3.666680605958384 -0.8229390424002098 1.2449752735345287
H -2.477798975368732 0.21182492722224724 2.081571661951392
H -2.4410004535028285 0.48353120973615044 -0.25251695882068526
O 2.525617081940363 1.42447477468907 -0.6473763930954454
C 2.69956100780773 0.17050118730418762 -1.2703993659817976
H 3.5463603140134006 0.2737902747639637 -1.9468247717758727
H 1.8146831208576641 -0.11656052646631229 -1.8461356077505628
H 2.9217297646038833 -0.6120964221451597 -0.5385460136961914
H 1.7757477390030159 1.3674928621139264 -0.04333830316916883
