12
## STRUCTURE-ID: 6456690adf1ebe23745b5c31 ; CHARGE = 0; SPIN = 1
O 0.09098021713123075 -0.26269344708732295 -3.2469315551889464
C -1.6788123141286466 -0.17786630120415228 1.8151592958912803
H -2.5812814336509815 0.17338677721392104 1.3321613990127465
H -1.4187649017173334 0.49419399396247604 2.6226323039889072
H -1.8462096784261592 -1.1706610348407165 2.2119448963691033
H -0.7702389205812399 -0.6752188979753595 -3.144877593886288
O 1.120879731914142 0.070409573910212 -0.4857108703506813
C 2.1680859804511305 0.49356124694160153 -0.08061207916585468
H -0.8726168845611538 -0.207859463332949 1.0938507568046487
H 2.9478325725475356 0.8695986891745856 -0.7564516371117159
H 2.406624138089772 0.5294271607501168 0.9907614139171043
H 0.4335214929317094 -0.1362782975124157 -2.3519263302802997
