16
## STRUCTURE-ID: 64568d99918f3f3c074efcb0 ; CHARGE = 0; SPIN = 1
H -2.805203293700269 0.9042042310004275 1.5014065037369209
I -1.3467585010038265 0.7509979688309105 0.7239208648606135
O 1.4085953471994344 -0.47495970940109433 2.0567218746111604
C -2.603194264396551 0.07448598165474503 -0.9151880555783352
H -3.388945977665529 0.8123201838226427 -1.0395300831710022
H -2.99285779894166 -0.9039170526396234 -0.6515522645826329
H -1.9846019255936285 0.028708314182380155 -1.8069920586743164
H 1.1393612872860863 -0.39464942006711456 2.994849641744244
H 0.2271343569796186 -2.768337199541763 -2.734163980580189
Rh 0.8875831846592239 -0.13070118590114913 -0.5707393187640419
I 0.07262905515818652 -2.6628072283651507 -1.1638216020209469
I 0.571119277156254 1.7978097466470457 -2.3248050122418817
O 3.6140051272419296 0.5235183795353895 -0.3191353464370096
C 2.524480558099914 0.4300532962116829 0.20790770855498708
O 2.4944228351305706 1.4667999475875801 2.3835973364296765
C 2.1822307323902463 0.5464737464430844 1.6575237921127606
