12
## STRUCTURE-ID: 64568f106df5083acf068a0a ; CHARGE = 0; SPIN = 1
C -2.6667132869985393 -0.11307121592536723 0.08946896205710243
H -2.5370824292639056 -1.0357813857714935 0.6437324104091063
H -3.6428143950552054 -0.06272004864286401 -0.38090272713265844
H -2.478482207901258 0.7565533441888739 0.709021267057914
O 1.0071995618330507 2.098772398642441 -0.39050154214539273
Rh 1.2127520251518282 0.08830739214968157 -0.22888756173316285
I -1.1856409570575348 -0.09014898696520932 -1.5066063965356025
I 1.9974934106828213 1.986509162801484 -2.066273874996482
O 2.976746320008706 0.6135575180083543 2.1414838376144987
C 2.3005972249929125 0.37097199145019294 1.255500638372365
O 1.5736931633608422 -2.8739380127185252 -0.10221544026303592
C 1.4422515702462833 -1.7390121572176174 -0.16381957270459271
