12
## STRUCTURE-ID: 6456673889c49b342428a81b ; CHARGE = 0; SPIN = 1
O -0.1913353255250285 -0.06683250728890824 -0.20288771816181367
C -1.1768201664771407 0.4196447799493323 0.6826161897452969
H -2.013808967904333 0.8594241349573493 0.1295806692091782
H -0.7588490585429728 1.1747098632597364 1.3574147472586395
H -1.5273503045996517 -0.4322953767393408 1.2604209487699032
H 1.011581366375294 -1.4107961494214414 0.4804732807171286
O 1.5579672679066803 -2.1589056693667907 0.7638484006663248
C 0.35444948014478156 0.9438856700366359 -1.0228777488492249
H 0.8417117824698965 1.7175498459890843 -0.4193017073533901
H -0.4238588171389897 1.4084392556869711 -1.6377699807775632
H 1.0899048909510807 0.46431361891244166 -1.6644680964328873
H 1.236407852339802 -2.9191374659751697 0.27295101520825826
