12
## STRUCTURE-ID: 645666af3d4ef817bb4efcb8 ; CHARGE = 0; SPIN = 1
O -1.7486588365456313 -0.5190479504542863 -0.3897124881432909
C -1.8560754420505607 0.02096235318813685 0.9060226856760882
H -1.7908278904872053 1.1137650301119977 0.8924054372093976
H -1.0803198498177693 -0.3753009323880967 1.570273231324301
H -2.832085641641173 -0.26973627771021225 1.2929937683747246
H -0.8914535617522824 -0.24159652101216236 -0.7615389456322453
O 0.8648149126861187 0.2708000966449353 -1.2390669017871243
C 1.8521463653192651 0.052302558092157926 -0.2507184412831372
H 2.7919540920032473 0.5440473958228864 -0.5129971660167714
H 2.0308516913531003 -1.0155502258247031 -0.0966685903872717
H 1.4733707291173868 0.48632649161849667 0.6729021131329525
H 1.1862834318155127 -0.06697201808914643 -2.0838947024676244
