13
## STRUCTURE-ID: 645689d74e041603de4ed2ad ; CHARGE = -1; SPIN = 1
C -1.3517121697763954 0.762024506484688 0.2006335752299629
H -1.8156317472937265 -0.15670044355615229 0.5920267409705869
H -1.6517072746145804 0.8712318005434596 -0.840936736558494
H -1.7287428238917721 1.6023712540757526 0.7821857495283445
O 0.1379476733646668 -2.196013088670771 -0.527553724089546
H 0.0744192709290612 -2.8752380725531106 -1.2290887323695103
Rh 0.6514869232424736 0.04231035607945484 0.691257944927128
I 0.21127102638888054 0.39488741822090284 3.2995663261467207
I 3.0907921822643427 -0.8990009427764681 0.9858556730317739
O 0.8710416796007163 -0.7936230958927444 -2.122099614099752
C 0.6134046941325901 -1.0160907570764395 -0.9639571831753133
O 0.461264150683918 2.656613606607354 -0.6781382963478968
C 0.4361664149698294 1.6072274585140736 -0.18975172319400582
