18
## STRUCTURE-ID: 64568a9bd5dc0301c528a80a ; CHARGE = -1; SPIN = 1
I -1.8647276669739346 0.46794467824334046 -0.3745220279036272
C -2.9326457431396156 -0.8978487847100893 0.8728409779653323
H -2.700580989005576 -1.9008185440839092 0.5334379686865033
H -3.987856114739954 -0.6751346627733078 0.7852428287793283
H -2.5664547699032236 -0.7487826312848478 1.8820629294769946
O 2.0974178177887164 -1.0314323798296476 2.22269412690869
C 0.975158929133507 2.4437613270352614 -2.8341579684955356
H 1.4479979714043183 1.5848767045547105 -3.299346071144873
H 1.31050943068947 3.3727718187252727 -3.2771023763274214
H -0.10613019899959775 2.3511555224623306 -2.849574091600953
H 2.299402114794846 -0.4177138726371415 2.950920381300246
Rh 0.8101176172500688 -0.07710170040113333 -0.1196448611727463
I 2.733053879171608 -1.3023662672080991 -1.512956260248186
I 1.5872912482538617 2.455872052956383 -0.752125085414111
O 0.010768986374214449 -0.21034785001349654 2.5705185303489864
C 0.7752825562401408 -0.9201920500592915 1.8824079098829096
O -0.22357467047675228 -2.785515893620388 0.6040050626111177
C 0.33496960213790955 -1.7091274673559362 0.7152980263473366
