15
## STRUCTURE-ID: 64566df2cbc10b67fa6f2c9d ; CHARGE = -1; SPIN = 1
Rh -1.8635735088108702 0.27409222589977983 0.13282001672297053
I -2.3354555514727746 2.4459441985729775 -1.2728456424172185
I -0.8191900854380071 1.5588913918813085 2.1731544762065407
O -1.462161116736079 -2.2863575833826104 1.6030627834027784
C -1.6353654345388142 -1.2768945217571628 1.0666880176858717
O -3.309886839026146 -1.3254874076339516 -1.9300088519067826
C -2.763538908204446 -0.6796182990720723 -1.1423695807070071
H 2.5304149404275202 2.3540999953693666 -0.2659288586814209
I 1.484816557436768 1.1472599892791955 -0.8146352216985338
O 0.3243801016318951 -0.7161827214073134 -1.2047466393176707
C 2.3085856107838922 -0.013626782950229814 0.7672057399580904
H 1.695615860882952 -0.9019217767066999 0.8494270271308352
H 2.2553746901824567 0.5802970073647397 1.6723783593997177
H 3.32842141110315 -0.2667328074731589 0.5074275621564764
H 0.2615622717785315 -0.8937629079841497 -2.141629187934621
