10
## STRUCTURE-ID: 64568d9d69c5771a430b3f60 ; CHARGE = -1; SPIN = 1
H -3.1738339880827215 1.929364776919254 -0.3931068484380045
I -2.7624653081537103 0.641693253779582 0.4532085090267235
O 2.0055242830606104 0.2532176532407638 2.8810406818485736
Rh 0.0073105371375285656 0.2311619930752464 -0.1719528529279519
I 0.0593033595057891 2.3965015950303306 -1.6925587185685316
I 1.2708171040973055 1.526999084356578 1.7257181514753623
O 0.2622209162543732 -2.7362310952571125 0.5101843409467974
C 0.22824463766286324 -1.6044317424244758 0.1638845385563276
O 1.3953216875956707 -1.5555662197007354 -2.1535615523814826
C 0.7075567709222863 -1.0827092990194167 -1.322856249537814
