21
## STRUCTURE-ID: 64567728594f5702222cdf7a ; CHARGE = -1; SPIN = 1
H -2.109322641549983 1.4537332354445602 0.28646396375904243
I -1.604698433629874 0.05461359858559595 1.1243066628737062
O -1.052927121907296 -1.8598568080143976 1.930266755503003
C -2.6129665335882 -0.9523715177390848 -0.4637701658601722
H -2.5094453217231 -2.017169467836279 -0.30249632733382115
H -2.130753530450167 -0.6620287524637983 -1.3911193672732995
H -3.6480176432155904 -0.6356456072041776 -0.43788539442516083
H -1.7141514975802394 -2.3385565790888014 2.430408655572716
O 0.8596215407154053 2.5018021904197956 -3.1070841758928833
C 1.3039833048316067 2.421045689988526 -0.3910364482590426
H 0.9901706445408148 3.2491422867438646 -1.0077716591607746
H 2.3602915996930416 2.50092817777819 -0.15957571487066793
H 0.7128779377084876 2.3482437181523013 0.5176368372989716
H 0.6673110844768444 2.165758335750194 -3.9819009173743867
Rh 1.2299176620945003 -1.145520238259774 0.37626846735643676
I 0.3941048992957008 -2.7530993022325374 -1.5106581574541467
I 0.9989186681815302 0.6548794112692665 -1.5229678620020928
O 2.848167115036236 0.7312520742679418 2.050260506535908
C 2.1888985167768302 0.036335258589140364 1.3991765348996033
O 1.4715242737848293 -3.2659184932646563 2.498845424174097
C 1.356495476508662 -2.4875672108858904 1.662632381932964
