12
## STRUCTURE-ID: 64566ddb604f7e0d232abdcd ; CHARGE = -1; SPIN = 1
Rh -0.6035100664397045 0.2903587938518659 0.18806090010549212
I -1.030938333867357 2.1606318522362726 -1.683500204428869
I -2.623295488586845 1.3197016482917387 2.168498008489277
O -0.4066507401604317 -1.879653880746344 2.2292454106638826
C -0.4373270995626173 -1.0716108813482215 1.4156717051146097
O -2.646950784102237 -1.1764209249405735 -1.447418261167966
C -1.8036750194265174 -0.6808012437688481 -0.8479242748440213
I 1.47244216156695 1.6180972280076678 1.2695857604809722
C 1.8926088160732637 -0.02930516950257463 -0.6722683200663162
H 2.094917657767351 -0.9646806240937853 -0.16867287092953206
H 2.791106619490332 0.5333913807924097 -0.8714175768168589
H 1.3012722772478214 -0.11970817877960706 -1.5798602766006706
