12
## STRUCTURE-ID: 64566dc53d3de168e76c2b40 ; CHARGE = -1; SPIN = 1
Rh -0.8625788599822573 -0.3285891481341075 0.10938497634146048
I -1.3286972816705696 -2.5602020650124406 -1.3196530302624467
I -1.0730293702462905 -1.474578566067187 2.5241387872286896
O -1.3786626327572893 2.160676175218279 1.6883116757465526
C -1.1352162769796614 1.2286302293496205 1.0696574000658874
O -1.5341249324088873 0.9789654601057799 -2.497153397366281
C -1.2330193783894348 0.5022125871355382 -1.5008928743907026
I 1.554027723302263 2.123466713862492 -0.6988591172242131
C 1.5842510797731606 -0.47341408833913856 0.0990149237416557
H 2.0688743511665137 -0.15189875824913288 1.0101572139765675
H 2.2747952408813754 -0.5697837571762502 -0.7239583972239511
H 1.0633803373110813 -1.435484782693468 0.23985183936679208
