17
## STRUCTURE-ID: 64568e666fc343573d3dae50 ; CHARGE = 0; SPIN = 1
C -1.939772824267838 -1.7382169635529765 0.7234932233919901
H -2.271088791599175 -1.5323266271342852 1.73735628804715
H -2.120133434965267 -2.7789996357880575 0.46788446260132527
H -2.4532439171158154 -1.0860092780705548 0.005919013812609965
O -0.013785054385161071 2.391985546739564 -2.627825716219336
C 1.6087302902905265 2.3507208982410757 -0.4724944241124497
H 2.1079834559828097 2.9549882708284936 -1.217905012119765
H 2.294316994492861 2.0206628934119424 0.29897702468020965
H 0.7648799032634875 2.895900480321574 -0.06915900685031798
H -0.405800392905265 2.1152294048280176 -3.4546591576825096
Rh 0.11864240035128225 -1.0519845929913647 0.2743620086787078
I 0.4336700039580461 -2.7955727670223505 -1.6780111233807378
I 0.8517452550561405 0.6379692960654638 -1.4907852588784687
O 0.28863668642241264 1.1422292620057786 2.3165493010719325
C 0.24413094607820277 0.28662406450532196 1.5661848820644826
O 0.28100195311687315 -3.3511698496765123 2.162478607723611
C 0.2100865262258822 -2.462030402711142 1.4576348871715468
