13
## STRUCTURE-ID: 64568876a3165e026d4d302a ; CHARGE = 0; SPIN = 1
I -1.844712026395494 -0.6379146752731047 2.0490364445756506
C -0.6238578396253408 0.46159136027827274 -1.641077037978366
H 0.12796202991312916 1.2410831617107552 -1.7898065073371747
H -1.4964315120128728 0.9014487770932188 -1.151688487403791
H -0.9230626339305128 0.06770795450932626 -2.6144178233342577
H -1.2692695790354236 2.8398261104110634 1.5537819677981353
Rh 0.5427418512843577 -0.17314026706952387 1.0277651033394344
I 0.24866313279216504 2.538679497915525 1.1803211968335638
I 3.0623726977921018 0.143672860181691 0.26772544662041964
O 1.2352186765392028 -2.9814568972780617 1.7230094880901434
C 0.9586344130196744 -1.919528963675746 1.4224215737662778
O 0.05694215318157418 -1.8078482390168913 -1.1685007821824176
C -0.07520136352259012 -0.6741206797865176 -0.8585705827876026
