12
## STRUCTURE-ID: 645668614896a12ace41e58e ; CHARGE = 0; SPIN = 1
O -2.1335824537146455 -1.1560364800493517 0.15375412805568672
C -1.2692897265316976 -0.9061161596991476 1.24380517860762
H -1.7018204965010244 -0.07507040648823676 1.7982759550714857
H -0.2670000517180877 -0.630622108426022 0.9066253889275891
H -1.202275351069813 -1.7759815335656217 1.9048107637872174
H -1.7512670966067412 -1.8590279456518604 -0.3843227595597718
O 1.6197326945300656 0.2145150322772141 -0.30975775287693463
C 1.1395180025184934 1.2887376604305585 -1.0894450546519254
H 1.525943137418165 2.247448233774558 -0.7307490005462992
H 0.05476816929681583 1.285975743537404 -0.9926861172244369
H 1.4020425432040813 1.164264494642098 -2.144485902624012
H 2.5832306291744396 0.20191346921841177 -0.3558248269662339
