21
## STRUCTURE-ID: 645676a82520743d8a4d3044 ; CHARGE = -1; SPIN = 1
H -2.383578690892041 -0.13242411971967225 2.0913410168753392
I -2.344162610277878 2.8056111754450193 -0.2911122715415726
O -1.7257164604136834 -0.711887447234821 2.48510481766877
C -0.6683251809228304 -0.2581040908956046 -0.8800213152329871
H -0.7031918993575623 -0.12020533026724613 0.20512418451152772
H -1.673958770737392 -0.1779030797465103 -1.2934116071953583
H -0.2559232306989562 -1.2428324677359965 -1.1153218347505354
H -2.033026895064634 -0.8974560704832164 3.3778211683121993
O 0.8221767537771666 2.213516732250126 0.10152181309493756
C 1.3076112808952145 -2.1287125931416897 1.8349071381029354
H 1.5314482372325728 -2.3229118866334897 0.7948107942024379
H 2.089781283812015 -1.5293315152999791 2.2806354731553644
H 0.34062456750817927 -1.655741982232834 1.9483880323511322
H 1.537071542257135 1.9673509088642722 0.6980594082269677
Rh 0.6101317887912474 1.2172631712766038 -1.5862775754756304
I 1.2476896015976375 -4.003101881842514 2.8551040808629606
I 2.968310147366082 0.04209035445357345 -1.2626358646504203
O 0.4065148587995339 0.3794549150695871 -4.437633844144646
C 0.4519071488162665 0.6075382740599022 -3.309821078827032
O -0.7398204406580963 3.403961729227894 -2.659033501713208
C -0.7855630318299548 2.5438252045866037 -1.8375490338332383
