12
## STRUCTURE-ID: 64566714a0acfb4d14399e4e ; CHARGE = 0; SPIN = 1
O -1.0892185872383908 -0.35770113077241533 -1.0183287479285041
C -1.9294696079483236 0.061685014182463846 0.03975166105752058
H -1.9193149877611366 1.1500981301194246 0.14479337641496948
H -1.5342890771156734 -0.3866029765344402 0.9495182095919311
H -2.9559327124634645 -0.28117739125418234 -0.1087778993340547
H -1.4534169613585204 -0.03558791049719702 -1.8519762301928389
O 1.496241607596672 0.6833284649292517 -0.4495920053889651
C 2.062377252447535 -0.1279854697595527 0.5515617636298612
H 3.0111474732546912 0.32833210049427775 0.8319995361654487
H 2.2490871311661946 -1.1430417507976725 0.18595094953560434
H 1.4196196646858257 -0.1806748481519342 1.4367603819366235
H 0.6431688047346017 0.28932776804197535 -0.7116609954875989
