17
## STRUCTURE-ID: 64568b341f7c0704a273b9d4 ; CHARGE = 0; SPIN = 1
C -1.4019170755360422 0.48730332806383425 0.44026998779097215
H -1.7320212988098362 1.4911051858390516 0.14126098553510755
H -1.532101806765669 -0.1923680807369549 -0.40252126651775344
H -2.049640303197896 0.14240730521847916 1.247659026289097
O 0.7532733387352955 -1.8033477624847 -0.06260815868211023
C -0.14524307498161795 0.28366348512065837 -2.9342112895416674
H -0.3105341275280529 -0.7631390949659553 -2.7052018222148666
H 0.26308438283196706 0.4083765280092137 -3.931169584291871
H -1.0454606533193742 0.8736874309271994 -2.8041609301790342
H 0.8961145028190256 -2.7747948036655607 -0.059577479591773716
Rh 0.6009974858867732 0.6961902754476654 0.9875888007827827
I 1.3492275117687667 1.0223395547906553 -1.5378382461534332
I 3.09535619840206 1.4220700129672061 1.7299954590973692
O -0.20753228127214499 0.9904705254859466 3.8336736470045074
C 0.0793542714643535 0.8468011113892754 2.7412957935767572
O 0.7148082979500284 -1.8606756561716282 2.1799202714508623
C 0.6722346315523762 -1.2700893452344015 1.135624805645053
