13
## STRUCTURE-ID: 64568c08d8fa383614333bdd ; CHARGE = -1; SPIN = 1
I 1.4510493610805393 -0.6660619323597369 -2.5006841495536163
C -1.3259968951347008 -0.11509914720075999 -0.07161667603488198
H -1.5985361358384809 0.1807948294379138 -1.0867450674034262
H -1.6997302462506068 0.684098607129163 0.5927094644606382
H -1.845976001592236 -1.0306992651579283 0.2031268088298966
O -1.2266397876879735 2.466271535956012 -1.794287855273946
Rh 0.7268032110875511 0.32951702575775965 0.4894501149614597
I 2.929201020118306 1.4992691101849245 1.305934257522512
I 0.33931361087786 2.60761856339123 -0.7838835496438209
O 0.039551461460996674 -2.358110940702873 -0.4901029771646116
C 0.29085461143143176 -1.2098279898067963 -0.5749987619973189
O 1.0077751622753177 -1.5249277356272182 2.8175002160455622
C 0.9123306281719922 -0.8628426610017058 1.893598175251565
