16
## STRUCTURE-ID: 64568e0c38dfbe2839630f0d ; CHARGE = -1; SPIN = 1
H -2.598797966681313 2.4536413954148952 -1.3861787693904573
I -1.4759689191584275 1.5779015696779806 -0.4929614392173487
O -0.20256115321524176 0.2779113578786041 0.9194712541433812
C -2.7908695890784774 -0.07699306911270125 -0.7173957132009191
H -2.2126618352012124 -0.9684967009751771 -0.5038950521728993
H -3.122820106188366 -0.08612971689885872 -1.7477452123601647
H -3.6093067227706768 0.03616975821052951 -0.017679104551613256
H -0.3608634551122918 0.5275207227523568 1.8334843781642054
O -0.5609385019990969 -2.5004060382399698 -1.0430035271858804
Rh 1.8245846976686104 -0.47142924225232424 0.2778335015022221
I 3.833815915526873 -2.0935961662375995 -0.34128533155043816
I 0.47351103398526834 -1.1612654552248292 -1.9034445928151285
O 3.2074575136127703 2.017405315345386 0.3508621366799019
C 2.5869196169790905 1.3529061686131574 -0.37328893107573297
O 2.6263701134678312 -0.45799421508994875 3.1393515910309873
C 2.3821293581646836 -0.42714568386152224 2.005874811999897
