12
## STRUCTURE-ID: 64566a7a9cf2005def1fea78 ; CHARGE = 0; SPIN = 1
O 0.08696566426824752 1.334073943399215 -0.5474783928194936
C -0.6735738966423965 -1.2621582682743704 1.4703172494763006
H -0.7978605673532462 -1.928878350601557 2.3228592509758497
H -1.6571856212284402 -1.048025253469083 1.040071973268661
H -0.0558400078098909 -1.761320039286521 0.7166384744975282
H -0.5451475691138955 1.9666935628956441 -0.9092295634298238
O -0.05566008070546401 -0.09101886469073565 1.9505886633977016
C 0.7667154119642591 0.7009216901981749 -1.6117561929064312
H 1.488229575891556 0.02054295901081249 -1.162914560233753
H 1.302456583484487 1.42630712794624 -2.2296189762333487
H 0.07753195275878903 0.12802188462185268 -2.2389949423997
H 0.06336855448598595 0.5148396082503224 1.1995170164065163
