18
## STRUCTURE-ID: 64568a53c91eba516a1aaa0d ; CHARGE = -1; SPIN = 1
I -1.2093053625387151 3.401106174124165 1.0446050772285245
C -2.425472359847671 0.24337808202647165 0.04621486988067237
H -3.0636000523433116 1.0613547360832483 0.3807081676698434
H -2.6847308171765585 -0.6612191907237819 0.59948620449693
H -2.66537141234441 0.0998867249675208 -1.018046858653026
O 0.005244975597527573 -1.413059875994513 0.7851199907503227
C 3.131595340126189 -1.435338180292049 -0.026562292044379605
H 3.4161556965514928 -1.5805220495353955 -1.0624845089965684
H 2.2536081541221322 -2.023382708917347 0.22469102114737236
H 3.952890754819657 -1.6212117333205425 0.6541592589296665
H -0.3559850945244119 -1.396791140238091 1.6742567709061635
Rh -0.25560153273428804 0.23081768240339612 -0.39143807082310605
I 0.3316467148151803 -1.2639540791667514 -2.58999367630862
I 2.537025924080863 0.6305737978528724 0.2065526669935297
O -1.1668008960712615 0.6771275622664089 2.322013230493222
C -1.0786526112979797 1.0186980416423252 1.192050399907214
O -0.36001150514911406 2.413193846997147 -2.4347122330466484
C -0.362635916085357 1.6193423098248088 -1.606620018532227
