18
## STRUCTURE-ID: 64568a847098a412836cd4ad ; CHARGE = -1; SPIN = 1
I 0.06063681563910624 3.3339438649667406 -0.36454052909644297
C -2.146791553457738 0.5961076691741017 1.2595231216562426
H -2.456314774511489 1.6123506620776944 1.0163072744173025
H -2.3179132494974906 0.4023769796641788 2.318197533133408
H -2.734664959714464 -0.09641928271958308 0.6572006797161372
O 0.024721879804971158 -1.379418013936728 -0.987564353420962
C 2.6836526943958114 -1.5450725580968578 0.8575421198391601
H 3.652280927660519 -1.9840516267632309 0.652388679192386
H 1.8765020506033472 -2.103664284595763 0.39346273562239137
H 2.5050675744756994 -1.419932375096076 1.918894633345046
H 0.08404377242537285 -1.6915876614389695 -1.8961534022633806
Rh 0.01286924455201004 0.7066729267407716 -0.9151372084936367
I 0.8936791568708878 0.9058661107314971 -3.6139806894693254
I 2.64397741898545 0.4109955599928139 -0.037094467747352
O 0.11568763909522962 0.06971183796478657 1.7877005294947041
C -0.6838869236018331 0.41353184696954276 0.9569575468940197
O -2.602206771580499 0.9299499039456621 -2.2875913109750012
C -1.6113409421448794 0.8386384404194213 -1.7161128918446773
