15
## STRUCTURE-ID: 6456b7e6bc8f8317594f7334 ; CHARGE = -1; SPIN = 1
C -2.909582060553871 -0.11080381192488892 -0.15976684604640667
O -3.933054731642522 -0.4204110558621303 0.2181952235837366
I -0.9644997012953842 -2.6332070101090066 0.7202417747128986
C 1.886367485874154 -0.17044590805362653 1.368680376711365
H 1.3863479179122784 -0.7690427108848609 2.129520919198644
H 1.8885542114534386 0.8664622246090693 1.708623022957547
H 2.914301364737979 -0.5081951811545361 1.238199840098577
O 0.16145552825909493 2.4703107723237276 -2.6122145052218473
Rh -0.8542558366152986 -0.08408704330878441 -0.14403481747783625
I -1.2334526578300513 1.1005019743884288 2.201392876748238
I -0.27463053314736485 2.4243327709690723 -0.8140498883759947
O -0.4464940767979435 -0.8617487312087548 -2.99945878972575
C -0.6168803148642019 -0.6068107695662124 -1.904826284287848
O 1.802523172102032 -0.4409933475769595 -0.9899216062416046
C 1.1933002324076447 -0.2558621726405638 0.03941870336625454
