18
## STRUCTURE-ID: 64568a505a3b2b45302c50ba ; CHARGE = -1; SPIN = 1
I -1.3987411141275852 -3.3696849427256863 -1.9502301295712845
C -0.6345946126006486 2.573156867169616 1.4002473605931758
H -0.13953054501495443 2.4257899749524636 2.3646947096067774
H -1.6223971738628256 3.0045188050480927 1.5889586237788913
H -0.04895015732336316 3.301621117235168 0.8198650249169693
O 1.347987799006981 0.593708711463254 -1.4660497855281416
C 1.632454238135302 -2.1982954766347085 -1.1420263955692123
H 1.7470433035163713 -2.9479617796882103 -1.9185833161848795
H 1.4371602154344207 -2.650872442070372 -0.17402106740104445
H 2.4846763134785577 -1.5326675709940487 -1.0798164120201414
H 1.3522809780436595 1.1366928262598002 -2.256007345253848
Rh -0.7817233644030092 0.8651976630076031 0.23028779378249103
I -2.0174563872759665 2.016503865412356 -1.818225571210947
I -0.014445804136521438 -0.9293806804218689 -1.6287035667191
O -2.5935906714767873 -0.4607406808818579 2.0920917970667734
C -1.4850255247677042 -0.29516909692027554 1.6311425574684824
O 0.8563172481406108 -1.1124317265528578 1.7864508721584096
C -0.1214647407665176 -0.41998543365844127 1.5199248500866154
