12
## STRUCTURE-ID: 6456882ae83374111932bad4 ; CHARGE = -1; SPIN = 1
Rh -0.3811639043839151 -0.06377688351997171 0.2540922718170722
I -1.7543277638006844 1.4657483020319455 -1.521220817180856
I -0.3137456188015096 1.8708589085488456 2.1440172155695554
O -2.9848578259252303 -0.5667172087542481 1.805780625132063
C -2.042720951799174 -0.4739710113995905 1.173354131647189
O -0.15442048549535434 -2.057347696696253 -1.9444176603135916
C -0.2671876467710823 -1.3070675527550832 -1.0925419183301475
I 0.9431817149764963 -1.864761314886708 1.7920246464591005
C 1.4700668354975752 0.6337832047285795 -0.549969535481063
H 1.3784496746431776 1.6821079259818879 -0.8579212452534928
H 1.852686736825787 0.08447129337933748 -1.4188983893898326
H 2.2540392350339222 0.5966720333412612 0.21570067532400305
