12
## STRUCTURE-ID: 64566b41df1bcd613b6b0e10 ; CHARGE = 0; SPIN = 1
O -1.6806394712401347 -0.8726504521878345 -0.34353718458506866
C -1.3168162006423847 -0.07456186230655534 0.7537813731602052
H -0.22395377568185904 -0.07041641555380092 0.9023560092685816
H -1.7759400004873607 -0.4170073174677288 1.6841464513514819
H -1.6573114852153048 0.9362652456311351 0.5394141459710928
H -1.5326146435035308 -1.800877822467336 -0.12917383488939582
O 2.0842314903151262 0.05502558129257602 -0.4070052382085447
C 1.0227969335722806 0.6578951930140703 -0.8748296099532136
H 0.7742870964009 1.6644383531017137 -0.5195139790074815
H 0.22886349921456084 0.08367863410122235 -1.3697835205679616
H 2.1563070844688377 0.5742000453120156 -1.4789162974778634
H 1.9207894727988672 -0.7359891824694509 1.2430616849381817
