17
## STRUCTURE-ID: 64568aecd05b615633230d6a ; CHARGE = 0; SPIN = 1
C -2.9515523364438785 -0.980737484401975 1.0998694055427285
H -1.9525680119138529 -1.1869040875824763 1.4778296810465024
H -3.603953620128377 -0.5803260076954871 1.8670432798830696
H -3.3853686468279096 -1.845258684008921 0.6116951715605321
O 0.000990705423668984 -0.17826738052173252 1.2317581709864454
C 2.9577687447135586 -1.0207709047685578 0.4412795943445298
H 3.1620498201393294 -1.559407592628245 -0.476738901993634
H 2.041037965674029 -1.3630336493331736 0.9135528231322049
H 3.801339844815844 -1.049022511186122 1.1206699405037377
H 0.03755716207720243 0.3496027571202473 2.0360020417717632
Rh -0.03508476484970176 0.9162740561388946 -0.44164935570560704
I -2.672598739094119 0.5636464748177694 -0.40893568573528344
I 2.6077278028560746 1.0578256211328052 -0.09129490614868678
O -0.26042545463945255 3.4648837700089024 -1.9620200639744676
C -0.11621709662239386 2.2610598778952395 -1.8682812034005467
O 0.27747659829731974 0.07538625620117403 -3.0948513636231785
C 0.09182002652265989 1.075049488811655 -2.4559286281900974
