12
## STRUCTURE-ID: 645668519d51a069593288c1 ; CHARGE = 0; SPIN = 1
O -1.2722782874468317 0.05295002732726104 -0.22414244573190759
C -2.265815044572533 0.19619437430270903 0.433363259607978
H 1.0089493711693953 -0.6493047434588625 0.7380305502213961
H -2.432838705309896 -0.36096300875482645 1.365080786960483
H -3.064438640344369 0.8918494690666923 0.1422248087170493
H -0.7287419709170225 0.9178178821788688 -1.9289852104688945
O -0.4751810301955826 1.3342466290789285 -2.7640351787197046
C 1.9769337396548616 -0.7912839069452723 1.200458582420785
H 2.6521937064924495 -0.013696082974456143 0.8680110914059188
H 2.373584023291399 -1.7579081573966042 0.9188141334656351
H 1.8752056387846643 -0.7431243826874466 2.276778695366403
H 0.35242719939347905 0.9232219002630206 -3.025599073245151
