19
## STRUCTURE-ID: 64568e092e92970e58493a64 ; CHARGE = -1; SPIN = 1
O -2.2669167801329775 0.9926061725280474 0.9158279333371426
C -1.8177942823991105 -0.40886430800631085 -1.6200729744095723
H -1.3331924155324664 -1.3611753851486965 -1.36798773873214
H -2.1545106347629557 0.06254624885470758 -0.6695591059377421
H -2.6740473601380526 -0.560952191567429 -2.2661058192916745
H -2.914578207713108 0.8386190616048793 1.6025703662685258
O 0.35375147827454817 0.5130449845093049 -1.604837619413504
C 2.096622812628013 1.1202757301592807 2.4694170412717114
H 2.669777196925542 0.4780476190183251 1.7983324390821371
H 2.160551776978362 0.7327634761497844 3.479112525762505
H 2.4852191471937624 2.12981859651715 2.4300284567918125
H 0.9498927667906891 1.191870947966055 -1.9738984682644831
Rh 0.5798851557721092 -0.9497876463232391 0.31945008555145277
I -0.019622596424507362 1.1103148264344995 1.8090843143105761
I 0.8350591760318713 -2.555338399169051 2.345678904527842
O 1.7080419329679937 -2.9706760670354573 -1.5349926640821137
C 1.2462959338536896 -2.2118252940087597 -0.7933002905745884
O -1.0527344456305006 1.3078074363000807 -3.125772238687046
C -0.8517006546828961 0.5409041912169434 -2.212975147510948
