13
## STRUCTURE-ID: 6456893c008cd838f05c0b00 ; CHARGE = -1; SPIN = 1
I 1.5291793242443439 2.2009632393905125 -0.7504776856737722
O -2.7721418942174614 2.0815879235602837 1.4795503753539587
C -1.038916465665582 0.05810243071143605 0.18860805857627727
H -1.6753510764077784 -0.7898601627571604 0.46891302143613706
H -1.5961101472079755 0.679073539626222 -0.5202448254317446
H -2.7195679549545337 3.0388607375046135 1.3954711991911943
Rh 1.016782357018832 -0.37792636285001396 -0.3457272382888608
I 1.5415713504861122 -0.18161156444173476 2.4790867689075213
I -0.990485610618432 1.2843745239977464 1.9401313052617326
O 1.813079232845288 -3.300962544757901 -0.6431354992252927
C 1.4806959942935474 -2.158708670698754 -0.6742371027055906
O 1.7973314433306655 -1.3814725055622166 -3.0853220729377284
C 1.6139334468529298 -1.1524205837229475 -1.9326163044638094
