12
## STRUCTURE-ID: 64568836bccd851a741aaa0a ; CHARGE = -1; SPIN = 1
Rh -0.5146675041892292 0.4792234190420226 0.4494168813151924
I -0.50772222331383 3.020847550324138 -0.18209177052783085
I -2.9436152348099296 0.5991503852569683 1.6859923853978178
O -0.21959904883774328 -2.0580610956115226 1.9803856066784102
C -0.3271780549754999 -1.1121324517591786 1.349240210824598
O -1.7516710689724486 0.09044855651185811 -1.9661770193903
C -0.9546691184989928 -0.37458141050603405 -1.2282732241815504
I -0.06358887700378084 -2.29780531822724 -1.879947818800975
C 1.5343663056398298 0.40637092147499143 -0.0023870922864597283
H 1.9430072075670033 -0.6066555276641952 -0.01401825324578971
H 2.050993032940325 0.9842780649863779 0.7751932502451383
H 1.754344584454302 0.8689169061717964 -0.9673331560282714
