12
## STRUCTURE-ID: 64566a5d9e361c2e172cdf88 ; CHARGE = 0; SPIN = 1
O -1.6752377571222934 1.4596071344035038 0.18635790528843701
C -1.437648260152087 0.5072196498525766 1.203619220321451
H -2.376105752504911 0.13662174079216893 1.6275101453896845
H -0.8760667061284564 1.0188457745318047 1.983522609473792
H -0.8495899265949611 -0.3354647803526185 0.8308589605013599
H -2.1580251468335114 1.027299008329721 -0.5278516693147888
O 0.8273286046825583 -1.3832403732429075 -0.606770393469896
C 1.65588226171997 -0.28398221656554745 -0.921235265012907
H 2.5596336559882853 -0.2761208827696625 -0.304668457140418
H 1.0789442333772679 0.6155173799973569 -0.7122985171441377
H 1.939106676637215 -0.28716069742706274 -1.9779852878366928
H 1.3117781169309617 -2.1991417375493336 -0.7810592510558874
