13
## STRUCTURE-ID: 64568ab8eb67fa3b057ffa83 ; CHARGE = -1; SPIN = 1
I -2.9154696725764144 0.699323906989021 0.4597215392063878
O 0.5875763712035065 1.993129104126633 -0.18892211328370098
C 0.2956072900782754 -1.1706733729650782 -2.9053425334750145
H 1.2652128765232633 -1.4219524441287865 -3.2920763997452003
H -0.3707302668718373 -0.49696009236512195 -3.409489934848428
H 1.4167919787276098 2.3950836748859183 -0.4578155052437979
Rh 0.4646645312822822 0.16886781268552276 0.7351532620644387
I 3.04742481952279 -0.12635754757240472 0.48767231879021106
I -0.17111569791472933 -1.7457480031797623 -1.0147100640557003
O -1.2181847795009542 1.4479272960174123 2.754935673588547
C -1.1883426096685414 0.6455449963764812 1.8644317041261582
O -0.8282892303536752 -1.5501892326113358 2.906749528119358
C -0.3851456104492619 -0.8379960982549921 2.0596925247537547
