12
## STRUCTURE-ID: 64566656a97b5c78e9610abb ; CHARGE = 0; SPIN = 1
O -1.9012134496995166 -0.5141016555695395 0.8195173250623901
C -0.9824130405434254 0.4361686216720374 0.8834964745450449
H -1.084217458692431 1.294022878306035 0.21582927338233882
H -0.7544302550224131 0.693021792290608 1.9195455847912148
H -2.329133221272397 -0.6088757274727201 -0.0475129191331246
H -1.0146842965452176 0.4719463113419929 -3.993803648911966
O 2.0985138496606526 0.4196436424270602 -0.07006866360146953
C 1.2569363966858471 -0.5618956023395817 0.21039106474628078
H 0.9842218870621358 -1.2485335381584286 -0.5933372167571525
H 0.1261468408999139 -0.05247654159645214 0.49769342473816036
H 1.5179960135136181 -1.0466130263717381 1.1528006623574563
H 2.082276733953229 0.7176928454707135 -0.9945513612191744
