17
## STRUCTURE-ID: 64568a1e485dea2c8e7ffa80 ; CHARGE = 0; SPIN = 1
C -2.4654528290959465 -1.6231560231828575 -0.5845491343338812
H -2.875559913462043 -0.6975378186198928 -0.9812837350061798
H -2.3162602027178907 -2.320830256441069 -1.4048772300258356
H -3.1949239283386426 -2.053525506757017 0.10025339330661427
O 1.6357336523724115 1.8885883149566423 1.5816724948431022
C -1.1760123799581752 -1.393735322193474 0.17737868630376274
H -0.3844464013503656 -1.0231261630755628 -0.6073251599266188
H -1.3322533787239772 -0.6797281546512561 1.0097011885229574
H -0.7891419661090058 -2.332481390717617 0.5778576204649382
H 1.5931907236663088 2.707791813010945 2.1263619499716317
Rh 0.6167809319613269 0.21980325767081854 -0.14116542851993347
I -0.9970030736184456 1.875750319073686 -1.328588783425468
I 2.2055433979918697 -1.4322866655128652 1.166102185924102
O 1.9921999514261837 3.159063985424454 -0.23285112877502015
C 1.829256932994384 2.0995513194331217 0.30165159730019614
O 3.3257542027422016 0.8001307221598287 -1.1873662437150512
C 2.3325942802197734 0.8057275694221074 -0.5729722729093065
