18
## STRUCTURE-ID: 64566ef0050b246bf2230d70 ; CHARGE = -1; SPIN = 1
I -1.908099093707487 -0.3537524417439983 -1.5658272683103853
C -2.2653237001671918 1.4290167783728902 0.20257100677711107
H -1.9894615602031904 2.476810126435171 0.10064796524829699
H -2.0240645730277267 0.9944252180462481 1.1674208930801981
H -3.3212723203912913 1.3282826124362561 -0.0011812818255816076
O 0.86641220494842 -2.6272947170777075 2.496025883298931
C 0.8123942909012408 -2.409149741469933 -0.17187439125171547
H -0.10186852964837313 -2.981867785046564 -0.08827991674581381
H 1.6503615282939297 -3.012110903608286 0.15038967928610458
H 0.9522340231858493 -2.0384477762791895 -1.1817676041476446
H 0.8009916873292574 -2.3965563868549453 3.421884598593523
Rh 0.1584990740512234 1.1913292480826834 -0.6094197298861099
I 0.713093329578952 2.601138081455678 1.7859859027492806
I 0.6931636967950197 -0.7664084792011931 1.1601912050451042
O 2.918971651114223 0.09504849407960367 -1.2596746809305148
C 1.8471942124670286 0.4928055107501324 -1.0836950236625675
O 0.1574147218199081 3.393986820481755 -2.664870898957518
C 0.03935935666022159 2.582745341141396 -1.8585263383606703
