15
## STRUCTURE-ID: 64566ea37d31cb371a41e574 ; CHARGE = -2; SPIN = 1
Rh -1.0527825317006754 0.053966494386934585 0.6429678828223335
I -2.7390439631869103 -0.16731917088110854 -1.5713991733547477
I -2.8097593488338686 0.21636733994818624 2.545839221617635
O 0.05783421375527157 -2.5424721653072306 0.1867511255274027
C -0.008140093044473865 -1.4201138386293057 -0.17275981369027243
O -0.28223932531823925 2.5981577376704714 -0.3362098090467044
C -0.15055224319383417 1.4462732415032058 -0.5315570564964182
O 0.6148378751324439 1.4793253273666631 2.3388280827698384
H 1.2759509135159355 1.5335875897272888 3.058843715541982
Rh 0.3735843608433651 -0.11004052946313182 -1.5745704673951553
I 1.357729660384747 1.4883401697886471 -3.4087928284863644
O 0.89387569816126 -0.7259788504552974 2.565386077525689
C 0.31983786794236463 0.20212923355767282 2.018618446514753
O 1.2361737889706095 -2.4813585432515386 -3.1940315972101456
C 0.9126931265723077 -1.5708640359617898 -2.5679138066396034
