19
## STRUCTURE-ID: 64567a1daf03ff4dc4242a41 ; CHARGE = 0; SPIN = 1
H -2.2852418611838257 0.7910239132679732 -1.5329766081243286
I -4.220142467124233 4.525471690636217 0.252752513549366
C -2.4621724221570407 3.564400151771119 1.0570033179827856
H -1.703745610308088 4.324733224365807 1.189982591815236
H -2.7360056173968754 3.119557114264387 2.0045680446796443
H -2.1413554630472427 2.810386499731141 0.34771715667780567
O -1.5120785472275555 1.2723751763434885 -1.2229388341393
C 0.44291069132629896 0.031776067073658654 0.9412419674611194
H -0.26234096737292945 0.8483551030467311 0.8374007379487353
H 1.4473333506453645 0.39677205687738887 1.122777799900576
H 0.12944210418009 -0.6657978775001604 1.7094088689607434
H -1.143800495017278 1.7215114201621022 -1.989921380006102
Rh 2.0617390908979467 -3.04064866663175 -0.9188138313779914
I 1.346736613552651 -3.547909638677763 -3.3621531039430974
I 0.4440801459646962 -1.0170048861839913 -0.9472307838531323
O 2.9507260835144358 -2.5009460290080225 1.879879020069364
C 2.603933309312595 -2.7070650789280584 0.8077340015777956
O 3.86031463457285 -5.418159462491151 -1.145600850589575
C 3.179667426868153 -4.508830778119147 -1.0308306285896138
