12
## STRUCTURE-ID: 6456694b391e8a26e7248aeb ; CHARGE = 0; SPIN = 1
O -1.78900602944045 0.7250587658900987 -0.6850836396541513
C -1.0595776993659596 0.45663846137500563 0.2974159044425683
H -1.4695911081776338 0.6308176479908012 1.2919694737751488
H -2.0327041540411153 -2.1488519173660814 0.6691352554893044
H -1.710031383512425 -1.4128648243536173 0.6641076845587731
H -1.3248665021812698 0.604355942953745 -1.557056601934845
O 0.619496252378048 0.039128124905400186 -1.2524924112987625
C 0.3746543426103826 0.17437068728087138 0.12014256361434718
H 0.904746373551354 1.0450695048742389 0.5551875736783332
H 5.221858536183712 0.7017637458837103 0.6140677442239191
H 0.7139200716365112 -0.6890745397642372 0.7081212916999314
H 1.551101300358869 -0.12641159966992516 -1.42551483859457
