19
## STRUCTURE-ID: 64567b1b15d2d319303dae53 ; CHARGE = 0; SPIN = 1
H 1.0144396695486453 -2.602428460385316 -2.1875652709623132
I -2.5603472878577294 -0.7731842694212511 0.2796844392740047
C -0.7021233071921341 2.404674400620376 1.2960814635799547
H -1.6388160739883337 2.14928754555088 1.7747952089809935
H -0.778478710366947 2.46143148585014 0.21782457978898337
H -0.20965968927909634 3.2607293983148105 1.7365296973161415
O -0.6057806784239118 -0.5792622415473373 -2.849771205985232
C 1.035089080604172 0.7392809828902248 1.9178782920360617
H 1.829089323184672 1.0017400297602557 1.219852227910447
H 1.1653346395761772 1.072144713140486 2.94504771535485
H 0.01631954090399342 1.475530043935217 1.4904390180926508
H -0.9253778398833823 0.24807654783406327 -3.273110466008255
Rh 0.7680136459269084 -1.9812475744767568 -0.837181170703427
I 0.5246605821216682 -1.2744457813077579 1.8269773430390013
I 3.242587027187547 -1.1536299892654818 -0.853714844308816
O -1.589501608847379 -3.7863352074691536 -0.9520407185264265
C -0.8269045252753835 -2.9334971663234954 -0.8618276105924001
O 0.22997405933546158 0.6567768006492811 -1.1683329772644058
C 0.01148215272504688 -0.3856412583492031 -1.7215657210218127
