12
## STRUCTURE-ID: 6456671c7d128f1512248ae0 ; CHARGE = 0; SPIN = 1
O -1.8958843662299434 0.12699626446926676 -1.6093881862954151
C -1.7185216055589931 0.019344401628790194 0.18912285296038078
H -1.1643814876300473 -0.8403185175503318 0.5412534492969228
H -2.801895153667622 -0.09447150706202322 0.27397667852797014
H -1.3672731833575118 0.9607344249765778 0.586808346032073
H -1.9743892011984234 -0.7438003026988128 -2.0452569674808236
O -0.46465615155936685 0.18515257031644486 -1.243224920810723
C 2.2765065400417113 0.07675549347359728 0.6628491052234267
H 3.0730859199650986 0.7515945862335235 0.37822798160828075
H 2.648716273250449 -0.9393574562329544 0.6598385489679435
H 1.9252543385958358 0.33155668667052357 1.6538364393632519
H 1.4634380773488278 0.16581335577540146 -0.04804332739329979
