21
## STRUCTURE-ID: 64568dc1f87ffd66c1248ae3 ; CHARGE = -1; SPIN = 1
H -3.3659955218075077 1.2879907639184343 -2.1428393611709056
I -1.7448856731834244 0.910969885911884 -1.6015073927950296
O -0.3209661114402438 2.3111671347253595 0.6622194001602516
C -2.6644235692369684 -1.0520645856720006 -1.8816392810616587
H -2.6827251803063072 -1.2474985657450197 -2.9488541743883725
H -3.655541286155976 -0.9977941782132272 -1.4453741239541371
H -2.055429333627894 -1.7946809567972006 -1.373083808147723
H -0.4144216271348046 2.8536610258621526 1.4705875988148989
O 2.709399394068163 -0.8474529782310891 0.4151418800341912
C 0.7295087029792879 -1.62614320059644 2.695587381049316
H 0.6646951809126718 -2.603341359609529 3.154188970780364
H 0.37767186772772526 -0.843529226850015 3.356147654399308
H 1.7352153677256135 -1.4164283010296854 2.3440340416329466
H 3.334077583494915 -0.15985919191942763 0.6580188920830635
Rh 0.7476256171721236 0.1173910168248023 -0.7257012990788111
I 0.774461358525358 -1.4056724165579928 -2.9056099522817758
I -0.4645077670390142 -1.6199829117563338 0.9486554510007961
O 1.7588454128119568 1.968448181904871 1.3936527854798877
C 0.9048116406805553 1.753840955649456 0.5318713461831948
O 2.140666975593013 2.6741678143689613 -1.4708955937788288
C 1.4919169682407178 1.73681109381205 -1.1346004149609892
