13
## STRUCTURE-ID: 645689ab730c6f2ffe6cdb3d ; CHARGE = -1; SPIN = 1
C -1.3073867848733032 -0.04164759408588569 0.4086682733371281
H -1.6688379928606958 0.9700432526656158 0.5867529196178795
H -1.9439891874853936 -0.486447570671841 -0.3837369595162268
H -1.4681919651500581 -0.6383805817523996 1.3057278301424053
O 0.9772408038637005 -0.3974471771173941 1.9081164557510395
H 0.7903330894815466 -1.349292158008482 1.758917493593572
Rh 0.399477525120178 -0.3347936668889348 -0.9038596986553822
I 0.42252180971210723 -2.8926159550487966 -0.27052905125239896
I 2.2171214186497568 -0.6318633910939403 -2.7973871675527735
O 0.7297156942257562 1.6207521652027252 1.0717061662896956
C 0.5587227829284462 0.42605018972253517 0.942241587583113
O 0.0848181733159588 2.3979794396313148 -2.046554939331884
C 0.20845463307200238 1.3576630474454863 -1.5800629100061763
