21
## STRUCTURE-ID: 64568da1e0a82d507d5c71b0 ; CHARGE = -1; SPIN = 1
H -2.6717254011136227 0.7219581366987416 0.9061707857215777
I -1.031578674955973 0.4694899564568886 0.3780774937833391
O 0.07277147822720169 2.7117070841065662 -1.6692403312546964
C -2.2314775329130283 -0.8068922000733942 -0.9447558898980224
H -2.9220646950705005 -0.1593687622740331 -1.4711473679291733
H -2.7493206491911217 -1.5310191565194993 -0.3269474858191984
H -1.5726125395960617 -1.3001141105916272 -1.6494250809403428
H -0.6832242063799716 3.227219405612363 -1.3234336718714468
O 1.7385293265186046 0.13446638831110289 1.3895819717186633
C 0.09578814522803288 -2.4822675141584636 2.1710563951978683
H 0.524157051386631 -3.2885707649657436 2.7533323931486993
H -0.9875920313540639 -2.4977229725902736 2.1954507757025925
H 0.48835517994042194 -1.5190843569366874 2.4804326309775413
H 1.9562325159321323 1.0479450996164452 1.5779541241491053
Rh 1.3270045213735209 -0.2052175251211986 -0.686682007919135
I 0.8250857882896515 -0.5506599597755762 -3.2533034934532137
I 0.723857567503628 -2.740571016380539 0.11902089201092576
O 0.8385179965241488 2.9697988372650648 0.4214161339507321
C 0.9947699699668399 2.5102743823396025 -0.7119690742593547
O 3.2236033251663527 1.7556807039698539 -1.312922719610757
C 2.04092286451717 1.532948345010395 -1.0426664734056943
