13
## STRUCTURE-ID: 6456888891c14d252762318d ; CHARGE = 0; SPIN = 1
I -1.269761561881463 1.3727034899162636 -2.253291294764932
C -0.9641814214010583 -0.7696702307538034 0.9588782164186019
H -0.9193071214551696 -0.5070238477200016 2.0158420034115836
H -1.0746025274195388 -1.8473685030164817 0.8470635661195888
H -1.8624550669663895 -0.2925596940823476 0.5432390088475445
H -0.8022081045359941 3.384898676185636 0.6094255837592816
Rh 0.4249906458940648 0.26738395018024746 -0.43558929475449076
I 0.3960694098124162 2.5281110541755294 1.207177511089625
I 2.772994616826085 1.0177687340031345 -1.6799204812314816
O 0.31869601320513524 -1.7683429477360693 -2.6124980092348324
C 0.3262839117448912 -1.0029046891209525 -1.7724284509292423
O 1.59589145630226 -1.5356923429321894 1.6547298826877659
C 1.0575897498747657 -0.8473036490989723 0.9173717585809954
