12
## STRUCTURE-ID: 64566a8f31e929211a6c2b4b ; CHARGE = 0; SPIN = 1
O -1.090297416922711 1.224080916265683 -2.1673329274263895
C -0.7109088339142389 -0.6033115061363932 1.1174466652237134
H -0.8416865013286386 -1.5949470301844735 0.6701061026487092
H -1.679677768723948 -0.12192052714681069 1.229477130639372
H -0.2394162199241016 -0.7143582868689553 2.0997761825271817
H -1.2650424900916026 2.149652529334507 -1.9794252004366937
O 0.06287879557609456 0.2292768800258674 0.28035637356293375
C 1.3681204731972678 -0.26627741885781614 0.0710361381469269
H 1.8649939297978235 0.43222728723024156 -0.5982735588358938
H 1.3401832369298239 -1.2596737780856866 -0.38981856315342106
H 1.9182667910538764 -0.3254836577907111 1.0161794373408282
H -0.7274139956488155 0.8507345922148 -1.349527780237678
