12
## STRUCTURE-ID: 64566801680a0b1cce1a5631 ; CHARGE = 0; SPIN = 1
O -1.701232754778195 0.33076118416738376 1.0799008969716692
C -1.1490336373226657 0.20340788131600535 -0.25516125999203887
H -0.6037808360141929 1.0988224686395915 -0.5416175925590351
H -1.8246287214100647 -0.17393990222464956 -1.013079036048163
H -2.606433142289119 -0.026780936647808118 1.1913793705417448
H -5.895523590637377 -1.5619385214650057 -1.0669710572255133
O 0.546324258032742 -0.529015336498543 1.3778028415589312
C -0.5683694055981464 -0.7064718567508046 0.7343782516406975
H 7.247588913123253 1.4682173729270402 -1.6789629020702859
H -0.9489029445002493 -1.720106594058714 0.8177892456636029
H 6.510504648691163 1.2954888505076494 -1.8536258696303956
H 0.9934872127028694 0.32155539008783696 1.2081671111487724
