13
## STRUCTURE-ID: 64566dff5236321248333bee ; CHARGE = 0; SPIN = 1
Rh -1.4997829484251115 -0.07026488685802115 -0.04998727274757565
I -2.238141921366294 1.5098042374676788 -2.0121601563874383
I -1.7510220290476735 1.753312956866262 1.8125616977553234
O -1.4241386543280625 -1.900616401737319 2.31417203435227
C -1.4009673087202155 -1.2292126635121587 1.4013763957572725
O -1.7513679157728674 -2.10541462466226 -2.2342680234539194
C -1.6146504056590225 -1.3553592322913368 -1.395631386075059
H 4.0191048961595 2.4284062119570926 0.7793290822933958
I 4.183890450978628 1.0149212415507773 0.11705600580955279
C 0.6154553644396997 -0.04101800040082817 -0.16587284874000588
H 1.0187128936832655 -0.8935647310133744 -0.7106199457310048
H 1.0270449085696711 -0.004810809380215608 0.8437527837434715
H 0.8158626694884872 0.8938167020137004 -0.6997083665762772
