12
## STRUCTURE-ID: 64568841f030046ff929341a ; CHARGE = -1; SPIN = 1
Rh -0.4697761172326925 0.5452034421342482 -0.28816877769079985
I -3.046879111020992 1.310429859956604 -0.8321759036777825
I -0.030795927054996078 2.6103395628550614 1.3808151044491095
O -0.8928047904786021 -1.057062283387564 2.2012681915077335
C -0.6296923842876911 -0.4716513151993157 1.2462650868216867
O -1.008745522703539 -1.5119613648172106 -2.3897608561505796
C -0.7728508449431526 -0.7614501428199877 -1.5629825369050285
I 0.6585401284331631 1.7384189469567353 -2.489453994103976
C 1.2771095386061213 -0.5143948274004562 0.6374770854011553
H 1.3234912928674483 -1.5966767436315856 0.5220108357140596
H 1.6018570801206935 -0.2314110433716688 1.6383576278698793
H 1.990546657694242 -0.059784091274851736 -0.06365186323546257
