16
## STRUCTURE-ID: 64568d98918f3f3c074efca4 ; CHARGE = 0; SPIN = 1
H -3.1076933551114405 0.09981507540386747 1.5246860348066311
I -1.5831438371441477 0.18696770153829773 0.8715781666442537
O 1.196537650630312 0.14509178980736623 2.104727006808881
C -2.6579577282208664 0.24662742850994573 -1.0136025580602888
H -3.3065033086529754 1.1158871585160692 -0.9992853468199882
H -3.2112767680745984 -0.680917907675157 -1.1164355434163846
H -1.9174679945298352 0.3459743565199186 -1.8134838482907043
H 1.2170924613509329 0.5939995988360919 2.9741495483785965
H 1.5788099477356339 -3.1072260718919105 -1.5600074677794151
Rh 0.4928066187162933 0.07982882479749054 -0.8573499522068453
I 0.1353669627854805 -2.5048052260155953 -1.4106692356117863
I 0.5019757106769301 2.6636472723393276 -1.099885536725737
O 3.1280989631841725 -0.6861520179298959 -0.5958153139706683
C 2.1827500089451544 -0.17781877344832658 -0.02362693112594043
O 3.117593698361293 1.2184848310706418 1.6760962330698166
C 2.2330109693476126 0.4605959596218575 1.3389247442996415
