21
## STRUCTURE-ID: 645675af4583ae4fb4750f01 ; CHARGE = -1; SPIN = 1
H -1.028668233635908 -3.34859737586948 0.4054605410994361
I -2.4796687312543226 -2.9815150486923843 -0.3224772286865012
O -2.0546282682686745 -1.2637413030710314 0.8878385217363829
C -4.152960172548145 -1.5678291449755057 -0.6769708739933045
H -4.653491091449841 -1.392678820127626 0.26417275697743264
H -4.8026819890035615 -2.0507852333448775 -1.3943487249835707
H -3.741736807970447 -0.6466905006223541 -1.063438900686876
H -1.3038422839096597 -1.4322267873776096 1.4563154118506088
O 2.9092982533705483 3.874328179322206 0.6970115251920702
C -0.27854680511607854 -0.5121084272137112 -1.7467415627767229
H -0.8216982269741357 -0.3365078362042844 -2.6672013773420225
H -0.9468958532608255 -0.6089948639092908 -0.8961687607214425
H 0.3760629406289656 -1.3732091639057036 -1.8253665136553856
H 3.4929223448446174 4.578157927822663 0.3492003494590753
Rh 2.3890615149103707 1.01752064429007 0.813455149322414
I 0.9693653453427375 1.2555587602145444 -1.3669478264505042
I 1.7409911783510086 -1.4831351470581506 1.2660611762012703
O 3.5798038881428846 1.682210531685366 3.4659050683243136
C 3.117224777260072 1.3725429183609532 2.4409649882684805
O 4.352438082008743 2.569672535703938 -0.3920608611709878
C 3.33765013853159 2.6480281549722706 0.3053371420358392
