36
## STRUCTURE-ID: 6456bfb08a346b25ac1d80aa ; CHARGE = -3; SPIN = 1
Rh -2.442990163811933 1.6145323808128267 -0.841941226524146
I -4.34728540922138 3.0975915372696 -1.8720912102765865
I -3.8548477225569786 0.9040894912487136 1.2430669678738124
O -0.6471575949302816 -0.5230521660346098 0.10172275546863789
C -1.0091165507932616 0.5603953621718611 -0.20543915456947603
O -1.0312405571342056 1.8504742087550925 -3.452086673781622
C -1.5247433603790719 1.8006460886834397 -2.402258722007687
H -3.4795344761776703 0.19025119645787236 -3.596150127582982
I -3.8744221058134003 -0.703067556092682 -2.230703639363339
O -1.8126378872947435 -0.9320893829503061 -2.6789637213575657
C -3.466094425367717 -2.231115926063124 -0.6964811712926813
H -3.275002601261731 -3.1762855365213585 -1.188380509436475
H -4.360038064406422 -2.2737824955917607 -0.0843900319675413
H -2.610101584610035 -1.940615325197364 -0.09691446215704393
H -1.3661562484069083 -1.667772948495129 -2.2649685423987336
O 2.3147497550195326 -2.882152636995325 2.178546025461931
C -0.2918580991558205 -0.23501884005531665 3.0851600073223215
H -0.10981293350969139 -0.4769482582184557 4.124890489983492
H -0.36679347008211594 -1.139182098656182 2.4878505257317842
H -1.2042459226289364 0.34615836861024707 2.9900798081242037
H 2.813693170606173 -2.749677695803781 3.0034571731845596
Rh 0.5963632531880609 2.0757107215279325 0.10421274971046716
I -0.8062437355417443 3.9274166885454274 1.3756715717334798
I 1.3605497116330352 0.919234985401941 2.33529908971685
O 1.2232104981823777 0.21559147943724308 -2.001209859400764
C 1.6724643025765678 0.8357334435848975 -1.0328282532509814
O 1.0487000016080565 3.533149643434879 -2.4609677171527102
C 0.7794848921260347 3.0388289016718164 -1.4465974321155088
O 3.0202025246180226 0.7718388932280955 -0.8227916100311158
H 3.467611443352024 0.24279000277679194 -1.5140384753838734
Rh 3.539144319498845 -0.2605306863403474 1.61197583926056
I 4.237290505569053 2.287449006732196 1.9569365410290511
O 2.0406897193136926 -2.064977868266123 0.14379230477858546
C 2.5809682473544138 -1.9146141845424898 1.2382979227064939
O 6.067726489442152 -1.844286723427499 1.3937212320168175
C 5.1174740789959365 -1.196712071099314 1.5145215359479685
