13
## STRUCTURE-ID: 64568cf46a528a18de051b7d ; CHARGE = -1; SPIN = 1
I -0.6480556773036319 -0.017478504040423486 -2.9649944963958537
C -1.1459382827523055 0.7908318029025594 0.27001342054332855
H -1.1601741329347002 0.9645559417125695 1.3447459371439314
H -1.1052678021307816 1.7427216120900537 -0.2569969734879018
H -2.1088702029008553 0.31459636209420294 -0.0006261717271703442
O 1.3287051175099205 1.3813784555018278 -0.690967886085139
H 2.091469249749725 1.9087119090062403 -0.3839750746242937
Rh -0.11780286441299077 -0.9279893222848237 -0.5615178558927445
I 1.0367536102752457 -3.1233357872123526 -1.48861946657242
O 1.3198007665972415 0.5755473859212915 1.390918404545917
C 0.8422484657571292 0.5870728948830519 0.2724206450329176
O -0.1976126725999549 -2.3984546618908618 2.0236089326189144
C -0.13525557485404277 -1.7981580886833395 1.0459905849005156
