12
## STRUCTURE-ID: 645667303ee5c14f37671000 ; CHARGE = 0; SPIN = 1
O -1.5037431392316691 -0.9833975767308498 -0.44240116529961065
C -0.9024993933847818 0.31544682247949185 0.945329931658017
H -1.9769239275569352 0.4258277619991074 1.0042576249181028
H -0.4198491182026069 1.228730200810809 0.6419397550835967
H -0.45438273631782566 -0.18099597544267462 1.787333806124709
H -1.746492696700925 -1.7660848475516582 0.0654875283121379
O 0.7680702069581061 -0.5174517632303938 -0.03103348591257056
C 1.5060743230349856 0.418710190621339 -0.7072742968423928
H 1.8702261004814729 1.2106902454292179 -0.03191738037889395
H 0.9401758688162799 0.8949744440463386 -1.5251543128177618
H 2.390635032894249 -0.06200475975932319 -1.151018461516769
H -0.4712905207903698 -0.9844447426714661 -0.5555495433284909
