12
## STRUCTURE-ID: 645668a0811ac655785eb028 ; CHARGE = 0; SPIN = 1
O -1.610522439813222 0.511293320447987 -0.8057889307654789
C -2.028504735214618 -0.18981960528818223 0.3413928374430504
H -1.4957326417526988 0.1526210732002684 1.2351484324960014
H -1.8807162976503664 -1.2686684781328281 0.22833392610249026
H -3.092111112391604 0.009525276850380899 0.46821055691881214
H -0.6668669624708584 0.31635731657486865 -0.951883225270477
O 1.1867458018981167 -0.08033314200652508 -0.969277776724032
C 1.8492093149373174 0.03323969205878796 0.2747485077104737
H 1.9280480526708907 1.0775456870149638 0.5897817398189017
H 2.8469742789830854 -0.4104631798557619 0.23470141764394223
H 1.2494564776952546 -0.512408126147495 1.0008325369451399
H 1.714020263108716 0.36111016528352763 -1.646200022318831
