13
## STRUCTURE-ID: 6456894b0d26a02a886c2b3a ; CHARGE = -1; SPIN = 1
I 1.4364839029268466 2.301016471854025 -0.6229416970257557
O -3.015642146095625 1.5383616539598155 1.0749672363307314
C -0.7736373504667947 -0.1968218662848793 0.38311696340549745
H -1.1601658697498904 -1.1651105084241247 0.715922282634853
H -1.3242161952190963 0.1569541881080266 -0.492636276132093
H -3.212166577919512 2.4773028958644003 0.9844906377514646
Rh 1.2296525245785692 -0.1815948124842184 0.17874523113396354
I 1.3872509133094257 0.32013160504486904 2.915127780609616
I -1.2237310496357963 1.2050607041624657 1.9104089507432194
O 1.2581544875384152 -2.22716897085766 -0.09746643880094512
C 1.260914793711832 -1.6471374774240224 -1.2309286966495279
O 2.132995520926913 -1.169413932147441 -3.4455825709192207
C 2.0041070460947212 -1.4115799513712484 -2.2732234030818073
