13
## STRUCTURE-ID: 64568c7729b06b1f10071014 ; CHARGE = -1; SPIN = 1
I -1.5491853936395201 -0.631791555969446 2.619348542862544
C -1.310877605311246 -0.5285974074097419 0.47585038814575864
H -0.6182939538375815 1.3985642741268633 -1.043230729090737
H -2.262043473466756 -0.13298361828461466 0.11914892814887877
H -1.236330647541544 -1.5747121791681071 0.16954494767241549
O 0.5144226068411555 -0.8358062464410398 -1.831637565313984
Rh 0.35267669228857124 0.5126015854692584 -0.23775159834281026
I 2.5387229786496808 1.7941009977549855 -1.2800648127344967
I -0.9214090317352756 -1.811439504215117 -2.7363676488888813
O 2.288857863155253 -1.704570388105111 0.3552073337844322
C 1.5687092574092665 -0.8226620004400632 0.36765029891005707
O 0.31207280163388224 2.579027077197292 1.9071196304875515
C 0.32267790555412446 1.7582689654848471 1.1151822843592336
