18
## STRUCTURE-ID: 645672f04b547c0dde1688fb ; CHARGE = -1; SPIN = 1
I -5.439306495516688 0.4958045274936893 0.9297526607210749
C -3.314054713779354 0.7003062903043432 1.0085690745875473
H -3.0886287074912304 1.6747163530658502 1.4205332656398442
H -2.9313046500431255 0.6085463543841305 -6.541313350100422e-05
H -2.9173952602848208 -0.08728412052475064 1.6365047829096544
O 2.877509087793202 -2.381785168926495 -0.4737723076781296
C 1.6345399600981805 2.0395643652375752 1.3404224482437106
H 2.456878701265183 2.2424090176495204 2.014864580820697
H 1.0025584598128914 1.247944439227132 1.7272305100245362
H 1.06278184686356 2.9344578975996867 1.130344396314993
H 2.845357547225399 -2.6309558490554625 0.45539682522463565
Rh 1.1566480507734889 -1.4976226689619518 -1.153410552849911
I 2.492614366554443 1.3487949538210786 -0.5435839846354401
I 0.07256249991009185 -1.609272519866865 1.2349525778953847
O -1.4000144623529334 -0.3376141459180546 -2.1654500350136465
C -0.3927718679704618 -0.7726244263326085 -1.788631834692215
O 2.1113654787003386 -2.1286315328626304 -3.9196496416320676
C 1.7706601584417927 -1.8467537663341245 -2.8540073527472094
