13
## STRUCTURE-ID: 64568cb8ba8c7b7e8040f201 ; CHARGE = -1; SPIN = 1
I 1.6430882089752676 1.542390235207551 3.4434938265742985
C -0.6601756423977451 -0.9237088758264153 -0.5443375500272771
H -0.8185359978830329 0.7564555418753875 -2.048835898942617
H -0.8034274890932906 0.389205172835506 3.3421377470531226
H -1.6488459359366638 -1.324835295001868 -0.7148424098261957
O 1.5290100944026426 -0.6048866937740172 -3.222140204621065
Rh 0.43591193001372297 -0.11894775339502733 -2.1307496451599617
I 1.8675677948539628 1.5580006880872166 -0.7736304456616298
I -0.9548739099185986 -1.7268058648379998 -3.8843587773870736
O 0.4530007139843897 -1.0508557975071608 1.6455029978097058
C -0.08340963355092146 -1.0330227497414515 0.592942469564532
O -0.6898949157546636 1.4963269431511503 1.642967627311557
C -0.2694152176950749 1.0406844489271312 2.65185026331259
