18
## STRUCTURE-ID: 64568a76d9ff1e61346cdb3d ; CHARGE = -1; SPIN = 1
I -1.674468293175753 -2.9160063123403535 -0.18732814002482812
C -1.2685911292571306 0.5307512449232267 1.9607448209758394
H -1.885170263072107 -0.36781138168190913 1.963248175505678
H -1.7257154279258555 1.2683045112451417 2.620285897490928
H -0.3001879779628133 0.2580751577427892 2.40171352952481
O 1.41558397233645 -0.10713493321430373 -2.548478861061506
C 1.4920593223623952 -1.928028673242413 -0.3906175856778501
H 1.508461495985456 -2.999995676075924 -0.5601754825028336
H 1.3064892634851732 -1.699598763244407 0.6541779340491075
H 2.4002036983715667 -1.454163733060956 -0.7412077017004527
H 1.11706953606052 0.7506047979137885 -2.8488717496414258
Rh -0.37017411623139274 1.2518172723624326 0.019706468826161085
I -0.45709853369699843 3.017267503848955 -2.038266958525646
I -0.0627246295421578 -1.0574851949035542 -1.5868270586359747
O -3.355740287013981 1.3143003192546074 0.41042808660555236
C -2.2031616610643807 1.215036964159488 0.2962305068308313
O 2.6076844244124335 1.5337183227870257 0.33202003255147977
C 1.4554806059285839 1.3903485735263759 0.2432180854101233
