8
## STRUCTURE-ID: 645664110c4caa1e9233a740 ; CHARGE = 0; SPIN = 1
H -2.903357774464039 -0.6505534217924176 0.018508108113841168
I -2.324180519997481 0.5651313556856605 0.8396951763399467
O 0.4167084109829846 -0.07141545108462342 -1.1447352168342673
C 0.49184812637394376 -0.03997723564881714 0.10491011688582928
H 0.7081362177791413 0.8510100049386217 0.6779104845767527
H 2.707034361030653 -0.4532988768487475 0.5013936685742083
H 0.3092416653165726 -0.9671290318286895 0.6313829077325426
H 0.5945695129782003 0.766232656578924 -1.6290652453889198
