13
## STRUCTURE-ID: 6456892dccd56b6b19408603 ; CHARGE = -1; SPIN = 1
I -2.3463789617206405 0.4934938919807033 -2.3552927434926167
O 0.8190462069417267 1.4734729709285037 1.6460747200277792
C 2.449782143148415 0.8780195296377807 -1.4064139727267346
H 3.073410780669863 1.7028809584364104 -1.693308316856206
H 2.791268948438072 -0.13884670296012025 -1.4751747076243178
H 1.2172707614539264 2.30648825514576 1.911663243574386
Rh -0.9875531000146922 -0.675581903163623 -0.31937763024248095
I 0.6895416000299633 -2.454009782484354 -1.4097269057047808
I 0.7400723859456254 1.2878531925617946 -0.4971484764414867
O -1.6240670311252607 -0.18329986568368786 2.592437065975826
C -1.504119152031147 -0.5081459893778845 1.469788617864249
O -3.068682518164384 -2.453891691001787 0.9913146836151834
C -2.2495920635714564 -1.728432864019546 0.5451644220312175
