13
## STRUCTURE-ID: 64568c9d6e0c39648867f9bd ; CHARGE = -1; SPIN = 1
I -1.6758414116507903 1.3233658783134812 -1.7167827291120805
C -1.1580113324806156 -0.9543587412824367 0.832990514979395
H -0.9347362455989151 -0.20980108391641283 1.6083496645371897
H -0.8992436734756448 -1.9551771087327907 1.1773174459210993
H -2.209345107027909 -0.909800618972843 0.5503365236283888
O 0.6735366053547823 1.7218519300952968 1.4622874131739243
Rh 0.09431840937824167 -0.30984644466918226 -0.710540366011068
I 2.1363214658140435 -1.7159702636192247 0.10583465201079949
I 2.643942713729905 3.7747582047420045 0.7416084997974899
O 1.48270883621868 1.4986084265243178 -0.600442388398607
C 1.3518458761854877 2.002037059387231 0.5079501205953256
O -0.9312559132504468 -2.5581247454969827 -2.315476460176898
C -0.5742402231968089 -1.7075424923724734 -1.6434328909449534
