12
## STRUCTURE-ID: 6456672d9cb0912a6d399e48 ; CHARGE = 0; SPIN = 1
O -1.382966316342342 -0.5407159179763178 -1.1362875132934311
C -2.0685790851852817 -0.03588039329524269 -0.015097049404587523
H -2.0275187199015003 1.0575196365752486 0.021076058490132953
H -1.6615282195756194 -0.4397603617935144 0.9182650927864536
H -3.1081035399190213 -0.3478849849122625 -0.10943820099353221
H -0.4559640468459953 -0.24475799168329399 -1.0808816035634616
O 1.3166552810096979 0.30626314333498916 -0.7210730847728056
C 1.7726116367000437 0.09731678808536838 0.600911825868705
H 2.7148389192432063 0.6198078540992226 0.7831627262026328
H 1.9007273191025988 -0.9677362283000954 0.8134051640950153
H 1.0103191452569344 0.5030553166039233 1.263472375400139
H 1.9895076264572853 -0.007226860738022868 -1.3375157908152622
