18
## STRUCTURE-ID: 645671c31a83b44261159876 ; CHARGE = -1; SPIN = 1
I -1.812826047661385 0.9704510252284206 -0.3461878107383646
C -3.3074886951965494 -1.9112086270661517 -0.49659414029176974
H -3.6462174387704307 -1.5170453742350374 -1.4322697245087606
H -3.736168595350547 -1.5406419734672199 0.4113370036375855
H -2.718409781890203 -2.8050665065505873 -0.47935253220481
O 0.6949108440981485 1.261785184300607 1.9508387851169435
C -0.6334846390831373 -0.808764730339429 -0.38820255158724815
H -0.8436058874769866 -1.3468407128682578 -1.3038172797395988
H 0.44077967304172966 -0.4773856844939071 -0.3718198061497389
H -0.8521325222902865 -1.392723915348578 0.49632663961537044
H 0.5772200124632308 1.7164857994792815 2.8102720024065087
Rh 2.231973466649985 0.5687280394264932 -0.29747294065436164
I 2.927922803321272 -0.3522104615626038 -2.7102260205534785
I 3.118382850805393 -1.4453910712043045 1.1072568523888406
O 2.720146739612801 2.2163017359169093 1.9205659764281302
C 1.8906158201683059 1.4876231370353754 1.399847714372135
O 1.318950742438984 3.2180909137150673 -1.3030887695560731
C 1.6294306551196365 2.1578132220338886 -0.9674133979813198
