19
## STRUCTURE-ID: 64567b2cc82c1346a21fea84 ; CHARGE = 0; SPIN = 1
H -2.8785398549914274 -0.7982133226004227 -1.7044677884587074
I -2.0187540768456707 0.5228102245373191 -1.185949908960623
C -1.6873462762490654 -0.6243541021877286 0.595982453586455
H -1.1143358355614323 -0.017672552420433276 1.2852738663183663
H -2.662092546920434 -0.87609316069139 0.9998253575535078
H -1.1255508152569376 -1.5082398357485909 0.3111861077069226
O -0.8354537979834418 2.3378612204307427 -0.19168740408588955
C 1.4514096250317106 -2.7341761911518043 2.830468486836672
H 0.990693714517219 -2.3950500366592276 3.748348497106952
H 1.7007626878500353 -1.903336132703255 2.18215796319977
H 2.3250573734625632 -3.338175497069472 3.0335974819684153
H -0.6276322806613136 2.2719857702456148 0.7458109528884698
Rh 0.6575796378742343 1.9903214569641658 -1.6655603058696444
I 0.03185713494883381 -3.9685044778210328 1.8037616745883311
I 1.8590007077815116 0.310047584474742 -0.12413001206819074
O 2.7806934534849828 1.5921403281547488 -3.71362274562815
C 1.9409952128560186 1.7252107527335374 -2.9405430625658173
O -0.6412593373310485 4.117870505166965 -3.318637152587164
C -0.14708472600630884 3.2955674663456955 -2.6918144615293675
