17
## STRUCTURE-ID: 64568d16e129bb44662cdf80 ; CHARGE = 0; SPIN = 1
C -1.1837093349288568 -2.419340296036669 0.2288701050129471
H -2.0186130685455645 -2.3578111621590643 0.9212112154370253
H -1.4854349878664819 -2.0996171954373644 -0.7764216974661335
H -0.7945146064894327 -3.4333495753834202 0.1909660490009287
O 0.3559135155198843 2.082839717170733 -2.8864073502557
C 0.5410501999024024 2.8097754352739366 -0.29578829888421115
H 1.0495120856054174 3.564406543445547 -0.880536869182149
H 0.8326064686782736 2.8482034460714756 0.747123069135291
H -0.5288145913448528 2.908054470759558 -0.42878092895970044
H 0.566711610615665 1.6423540022577345 -3.7081963486814264
Rh 0.3721928131317839 -0.8781366678053109 0.5429910960967934
I 2.2493726424491727 -2.3162966825457385 -0.6217186784560755
I 1.1298550123522726 0.9257061269011477 -1.1001224214349778
O -1.3576756616055157 1.1795101580450178 1.8810532546846934
C -0.6853187505506331 0.39213153967077985 1.4067510129851932
O 0.5164756559918329 -2.7918095554438564 2.8212132459107058
C 0.4403909970846369 -2.0566203047845213 1.9577935450567676
