12
## STRUCTURE-ID: 6456670a07b3f3075664e488 ; CHARGE = 0; SPIN = 1
O -1.1303624985777152 -0.05424287994468459 -0.7900095040465683
C -1.9110593366294366 0.1400589311483995 0.3710938485247162
H -1.3905605908511038 0.8768973334805544 0.9802510464107478
H -2.011447334691677 -0.7874983359555794 0.9423091478916772
H -2.904126335710092 0.5241228907883322 0.12309046895422573
H -1.571524115454326 -0.6926014752578029 -1.3630554677661302
O 1.5691437909766905 0.9288419054053957 -0.5458905617221173
C 2.0651690941560945 -0.20112140407618737 0.13395831188434565
H 3.0648243057221767 0.05124968839190607 0.4854690239889867
H 2.129363306492284 -1.0689412798607407 -0.5306305974943243
H 1.439720140480044 -0.4579099466207398 0.9942396632299306
H 0.6508595740870674 0.7411445725011563 -0.8008253798555035
