18
## STRUCTURE-ID: 645673407f90da074d6f2cab ; CHARGE = -1; SPIN = 1
I -1.2124880287605782 -2.0972458255487965 -0.34462693500485575
C -3.2069297705376423 1.9015680217649429 1.5138201434638536
H -2.7448117652747666 2.433609962321569 2.333777178992157
H -4.105006240981213 2.417324964124106 1.2023805617418208
H -3.4570372416011366 0.894135369917196 1.8200445769200373
O 2.581879374947947 -2.7277935633244117 -0.3195313518841353
C 0.5366321931860698 1.3776144904247616 1.7906456911569226
H -2.5210719612165557 1.856761756674391 0.6774820032142547
H 0.5817698497295515 2.4128188168771887 1.5116682965738244
H -0.25587268663312074 0.9914023031377621 2.403050393019156
H 3.02887291598311 -3.599028222951161 -0.33310126849406785
Rh 0.7903581395424455 -0.8435458921470369 -1.5040503064773727
I 1.7654784901064757 0.0629475174187911 0.8610130789152229
I -0.6559127200067234 1.2944758071280047 -2.2828115237497646
O 3.151622378938494 -0.14612495018906624 -3.178839805744738
C 2.2342505192052537 -0.32761347949536 -2.5022101325873853
O 1.7017711901306345 -3.366381903496762 -2.2706635113965796
C 1.7864953632417424 -2.5349251726361905 -1.3780470886583196
