18
## STRUCTURE-ID: 6456715fcd33b45dad6a6030 ; CHARGE = -1; SPIN = 1
I -3.1231086822975267 1.923958039681313 1.8737535295846932
C -2.8574682993486356 0.45143212904683677 0.35408772609812367
H -1.8774099661800736 0.5913494046650706 -0.08645413001711319
H -3.6317811243190135 0.5895125225343599 -0.38847425742611874
H -2.9287228073384335 -0.5278845791721652 0.808592024644193
O 0.17567625303977114 0.7750705572551884 -1.173231861818865
C 0.44466661087072806 0.5767149920946965 2.1106322705129936
H -0.2324472800716064 -0.2195075777068016 2.3964866911178317
H 0.1222228874769299 1.054890313601711 1.1932564185618633
H 0.5763060030016834 1.2967636004841083 2.907564119392878
H -0.3115410697403598 0.9577329662345301 -1.9795738222701755
Rh 1.3824817183106335 -0.9925283721647695 -1.2094477633459904
I -0.4671827381690174 -2.6022274297669816 -0.28634844030358225
I 2.358125214572937 -0.320776125304232 1.6845437177734937
O 2.3670477579433777 1.438276299289619 -2.6682817456075565
C 2.0761894354065586 0.4641993441564927 -2.114713648072805
O 3.3420222142071685 -3.1441679608702024 -1.851134763991989
C 2.584923872634869 -2.3128081240587606 -1.5712560648318894
