12
## STRUCTURE-ID: 6456884c52895940e47ffa80 ; CHARGE = -1; SPIN = 1
Rh -0.39195519136572315 0.2777540161588167 -0.2724222908440616
I -0.30815343514710364 2.7908058380663268 -1.1806330705817596
I -1.4767936040019731 0.9658441013734315 2.100608758501421
O -0.3915485801638568 -2.5325490149435033 0.7633294185918599
C -0.5366695603228312 -1.482147704914718 0.31345545650404627
O -2.5562437935209115 -0.08490405402107883 -1.0806631449579118
C -2.1070727194289995 -1.0209620985756414 -0.5645745927984396
I 0.5530874431002006 -0.7842394618448 -2.569623007984322
C 1.5461238611072683 0.4390678664186014 0.5196103587431996
H 1.8363679365408836 -0.478103477369876 1.037416760449095
H 1.5796703328227013 1.2741868572200064 1.2224935475616265
H 2.2531873103803544 0.6352471324322487 -0.28899819318411146
