18
## STRUCTURE-ID: 645674da8324250c8a3ae5eb ; CHARGE = -1; SPIN = 1
I -2.4773936180890415 3.3966949711392784 1.8512907590565197
C -1.8678660033983128 -0.527926437113894 0.6501278137654731
H -2.180726668880628 0.4196781700716404 0.22944599176072122
H -0.8520414099301458 -0.47280577205648383 1.0283070466422892
H -2.5571745500585195 -0.8753274900187344 1.4084086552569028
O 1.3005812391442297 -1.401883446889784 0.7321288981008162
C -0.3856303189702585 3.6850913594432138 1.5242423293394114
H -0.12960825595170053 3.2453268242045583 0.5684282572260341
H -0.19363198924109004 4.749071394867963 1.5267362898786176
H 0.14543180119199395 3.189319226070471 2.3255484657113614
H 1.6145581807523974 -2.146465721409652 1.2487590699253457
Rh 1.2929588870334365 -1.5452832541925896 -1.331958176546806
I 0.8947502409381151 1.0410995727007342 -1.4603128218895147
I -1.8472086464970066 -1.974595482529697 -0.9469874008352732
O 1.5013814636760257 -1.6624993179900447 -4.307463947353736
C 1.3843882225134971 -1.6176877524246174 -3.157223849888147
O 2.4101231994106826 -4.26145181689777 -0.8041185890861483
C 1.9471082263563488 -3.240355026974607 -1.0853587910639197
