15
## STRUCTURE-ID: 6456b66c16fc932ff20876f0 ; CHARGE = 0; SPIN = 1
C -1.9769440218758914 0.37804400693717644 -0.5031563913683859
O -2.5757010066228103 0.9454190091102158 -1.2883440168364395
Rh 1.059474427973359 1.0548412655069355 -0.7255962957443107
I 2.823970891162184 0.17143224205451593 1.0466087863967162
I -0.4121987658012105 2.336936664618311 1.0461101396179537
O -0.5089979234178311 2.482718577910356 -2.8261088690737672
C 0.05138557390038244 1.8819119936803521 -2.024357172560934
O 2.8509645997462902 -0.10060792674645716 -2.8187468245660194
C 2.1472922820906253 0.3117634193580202 -2.01248562019806
H -1.0668000898995242 -2.851809994236757 0.15923935099867173
I 0.19130668617836502 -1.8253652165426029 0.275059018179756
C -0.5675987432037658 -1.2610992342630614 2.2046051589316953
H -1.465363748247249 -0.6735838931561687 2.0294865327448077
H -0.7507806936409217 -2.1850953832340028 2.7467443180108027
H 0.19999053165799793 -0.665505530996841 2.6909418854675065
