12
## STRUCTURE-ID: 6456661ad4105d1dd219eb6e ; CHARGE = 0; SPIN = 1
O -1.0995316797916697 -0.8043329554839457 -0.17039635035811246
C -0.829829177847581 -0.026579473230854505 0.9739386257173553
H -1.3881960230228982 -0.49599859390927614 1.7895930538509073
H -1.2188024063578022 0.9939418303195122 0.8345152747364991
H -0.025709402555445182 0.7789685493822468 -2.9271667865945408
H -0.5531832651292593 -0.4549681360141519 -0.9009863693581827
O 0.46586569153530366 0.250147537467652 -2.292623544438391
C 0.6559557231235174 0.03403229065576486 1.311158937885982
H 1.0435656645981266 -0.968763361910235 1.472975678199808
H 0.8081649219746444 0.623106205527255 2.2108969432959102
H 1.202320892918831 0.4919723123240149 0.48948427867233235
H 0.939379060554241 -0.4215262051279924 -2.791389741609562
