21
## STRUCTURE-ID: 64568d98317def013b0b5361 ; CHARGE = -1; SPIN = 1
H -1.4162218976236292 -3.023482565611868 1.2759768528734226
I -2.9606016460363462 -0.23536310825902437 0.4194754591919857
O -0.7905881394278687 -2.5735545356562852 1.8530383899109333
C -2.891254677267027 1.893855377391652 0.5455801921383463
H -2.542252618978398 2.1455392510475475 1.5389847125504401
H -3.8867752474971655 2.2708578166564157 0.35541857768106344
H -2.1798709109716476 2.2111007455255867 -0.20926388482347466
H -1.3166239060807974 -2.19792828651131 2.5708119337938817
O -0.32864841394315386 1.7592747158824211 -3.0609078055714947
C 1.919704625581096 0.8426003900496748 -1.8113512866503385
H 1.8619880947460605 1.8295004639371515 -2.246914371812617
H 2.1815909129608357 0.12151757307031433 -2.577977590895341
H 2.6392876920542645 0.8119543446017035 -0.994362772389283
H -1.2460207295878383 1.7938102249934753 -3.3342798554978814
Rh 1.1223733749147056 -0.9323802670297371 0.9813943421220526
I 0.3539160018639785 0.8585089533244683 2.689034244084312
I 0.016203880603326025 0.36383122894842385 -1.0711235139845774
O 3.239403631880014 -2.0281371251526292 2.7923460626614727
C 2.350320005375191 -1.6438530761037633 2.169584628769167
O 2.139496234461754 -2.373931978345493 -1.4293596381704416
C 1.7345737329727076 -1.8937201427587402 -0.456104675981675
