21
## STRUCTURE-ID: 64568e2e21646926f815986a ; CHARGE = -1; SPIN = 1
H -1.9260369753369495 1.8168804261626492 -3.0931387116983355
I -1.9355183748391174 1.6592724923825746 -1.4031968071296252
O -2.083413899087402 1.2992959807378959 0.7280559154485678
C -3.741568294612862 0.5506095450019636 -1.813684948700405
H -4.191688269260214 0.3054814355462335 -0.8603435189462594
H -3.44080568665547 -0.3637334959381405 -2.3230901080054087
H -4.3673336213745495 1.2041385975156682 -2.4156936199358277
H -2.9094965422634953 1.2911241964133977 1.2090041531191054
O 2.701194008547941 -3.410101367884348 1.7419965398589572
C 3.049263197256928 -0.7497653796579329 1.4790598006621056
H 3.7388175920485645 -1.5043312307103278 1.8236576832306326
H 2.737297328201902 -0.12034719153501619 2.3069681674388347
H 3.5031141481729065 -0.14278074099474117 0.6994258450973201
H 2.307929052165239 -4.279784271830108 1.667799469910805
Rh 0.00038544175989496513 0.21251824887463333 -0.28266317819635434
I -1.2459562951595107 -2.0206890329459397 -0.8571026448757542
I 1.396223019254412 -1.754680646006426 0.7087624841796886
O 1.2095303473815429 1.8772357968845927 1.8719567749917414
C 1.1215518797282453 1.4398641435426263 0.730874296038791
O 2.448916104882718 1.427648250585429 -1.4034074646535275
C 1.6275958391892666 1.2621442438552948 -0.5152401278350723
