12
## STRUCTURE-ID: 64566be44c6dd310256cdb40 ; CHARGE = 0; SPIN = 1
O -0.7301767242028514 0.5470331081431129 -0.15580044193104445
C -1.5847811711343298 -0.17374291310618917 0.6365989973777401
H -1.4303291657297241 0.04996427379793646 1.7053407068815165
H -1.4807529801936528 -1.262195323161955 0.4927758992888327
H -2.623926005789038 0.0955638633241507 0.3953358578981181
H -0.02102895309313786 -0.07434656362432968 -1.2271591578383385
O 0.9088145589375692 -0.3845966185544601 -1.5677804445615569
C 1.2955375208917217 0.19170260432380518 0.3001839724522136
H 1.2932297476943626 1.262746706674737 0.3957094387808874
H 2.2465526755463707 -0.2343675420952992 0.009940449208520675
H 0.848631935693403 -0.34235906800095545 1.1211968457177446
H 1.278228561379311 0.3245974722794479 -2.106342123274639
