12
## STRUCTURE-ID: 64568f080c16c633ee610aa4 ; CHARGE = 0; SPIN = 1
C -1.1481123967903997 -0.8095382622688041 0.722943913355801
H -1.0078413714666374 -1.223667650065889 1.720666144729608
H -2.0868731190217904 -1.1524326935302736 0.28447834099621616
H -1.219237940982902 0.3318736550704496 0.786541412919958
O -0.17394331296802054 -0.747710660200143 -1.4279942569100286
Rh 0.3109898773361898 0.9367587491115407 -0.17335749085259064
I 1.9997974929390192 1.932924435091472 -1.8088128107705292
I 1.0455404776522492 -1.6064371516204798 -2.813938645413691
O 0.9428327817660448 -1.9270614366919594 0.13681161579575632
C 0.017186428064452895 -1.2041355439998866 -0.16340599128711888
O 0.7516941540706616 3.160547602570231 1.7339062955312627
C 0.5679669294011381 2.308878956533692 1.002161471905338
