18
## STRUCTURE-ID: 645671c114a4c94e0f2eaabb ; CHARGE = -1; SPIN = 1
I -3.6015886224626588 -0.3522033034604917 -1.001041743988531
C -2.4522203307070547 -0.8212944297053265 0.725595263000774
H -2.409593267929737 0.06186372876634425 1.3501220563559406
H -1.4577718125391737 -1.1113519899865036 0.40530823545929556
H -2.9363816324626004 -1.6402733944548953 1.240474960562173
O 0.6141843156121064 -1.4521116571718462 -0.2900160308196572
C -0.18429517787865604 1.0166837207475967 -2.3614988894849844
H -0.10813332104454128 -0.030565380312782303 -2.0881550499116934
H 0.6836824286002225 1.326518691591838 -2.930815234380597
H -1.110165102149762 1.223940785793302 -2.882502760735455
H 1.142789151767995 -1.9290387585916817 -0.9376126473393724
Rh 1.7082420789463217 -0.07249799841706712 0.7995663424972712
I -0.19473694448634934 2.13120614220474 -0.5186767616949131
I 3.451899578461594 0.13762730243499013 -1.1569995001810134
O 3.3980427833879987 1.7755591202585517 2.42606029082644
C 2.7202077001778804 1.0849585484221287 1.7934327122683607
O 0.05826474396032496 -0.8304893090739504 3.175173007287914
C 0.6775734307460853 -0.5185318190449497 2.251585750278055
