17
## STRUCTURE-ID: 64568e6bcdc7666fcf6f2ca0 ; CHARGE = 0; SPIN = 1
C -1.9800929420537527 1.0244206655678472 -1.5238744966111988
H -2.3343720384915496 1.9610253228789238 -1.1026837636062947
H -2.464773916785021 0.16942064539098112 -1.0360276335257252
H -2.167902267323088 0.9927840373249944 -2.593887383765164
O 0.1082341899705796 -3.102695603512844 1.759348378304935
C 1.6328417828033852 -0.9171715853942185 2.1873501174347085
H 2.153711400081457 -1.7612009956318277 2.618923443810613
H 0.7809389064959003 -0.662226718186438 2.8048228745528734
H 2.2964567972014627 -0.07486235822374589 2.031618962366124
H -0.25451339005427265 -3.863451962291883 1.3081479248896555
Rh 0.09833985111478025 0.5028058184620404 -0.9714150849865566
I 0.4451751766631594 -1.0200285241046225 -3.095343454994591
I 0.8971508080341246 -1.5656123317537234 0.2949942769695476
O 0.23988528102837103 2.0310307422460423 1.609294850593719
C 0.20632444955074283 1.4785293490384432 0.6139818579344919
O 0.19506209044747833 2.844057297724257 -2.811004830592957
C 0.1475338213069796 1.9631762005169826 -2.0942460387443
