12
## STRUCTURE-ID: 64566a1977d46663505a8523 ; CHARGE = 0; SPIN = 1
O -1.7932364842859954 0.8476646973451174 -0.5081793365772963
C -1.5575678084435463 -0.07931584392852468 0.38196871009644046
H -1.6120494357278676 0.24991246029997483 1.4294549293802319
H -0.38675506540015525 -0.3736690005930092 0.23520111227645915
H -2.081641431918357 -1.032059938752245 0.21695743207395954
H -0.5640022442344103 1.074423086937141 -1.2166268710064152
O 1.7867309254591803 0.2865264279955513 0.8345507865404037
C 1.1496652387658608 -0.5293627532686231 -0.049161571935354406
H 0.2558512336024588 0.6597661621953587 -1.1279766103894815
H 0.9893442807063093 -1.5004212591020116 0.41681540890819896
H 1.6336165475943578 -0.6604927726585049 -1.0127121137470194
H 2.1800442438821905 1.0570287335297408 0.3997081243798289
