12
## STRUCTURE-ID: 6456689519929b6dc461a6eb ; CHARGE = 0; SPIN = 1
O -0.82481200514027 0.11213689276819037 -2.6206641705979674
C -0.8691808965023335 -0.2623966969782716 1.0910454556939648
H -1.736723822727536 -0.7849286928082112 0.6950545572613952
H -1.1444898303906954 0.7668023774452386 1.3462729747837578
H -0.5132306390475981 -0.7709940060258113 1.993368427591914
H -0.6947462074308819 -0.755410870353294 -3.0112875999101596
O 0.1164021725604339 -0.2855233466651588 0.08088168284033943
C 1.3099330995419831 0.36189135547437623 0.4662340318430568
H 1.746769673707623 -0.11972570596763867 1.3476459970299697
H 1.1276320268033124 1.4187387595703382 0.6902474053101575
H 1.9963291973752615 0.27953545141678154 -0.37311108594522174
H -0.5138827687492975 0.03987448212346206 -1.7056876759012005
