18
## STRUCTURE-ID: 645672829b61c62f0d6c2b4e ; CHARGE = -1; SPIN = 1
I -7.432645808147477 -1.0875140638261964 -0.5478637629923202
C -1.9115283906923766 -1.1063120393635122 -0.4456229373027383
H -2.1959326719178827 -0.7648298610626544 0.5476510146990786
H -2.274796060952068 -0.3826637090063584 -1.1713109593380497
H -2.415826236533181 -2.052240331252018 -0.6308905010840941
O 0.5813418878900204 2.12200334235102 -0.7473438008531084
C -0.4087166823645197 -1.2897965351066107 -0.5636450618028764
H 0.0827993096196415 -0.27855285890927145 -0.3959921000640744
H -0.05576303897592517 -2.0329424167656343 0.1678034134565879
H -0.13683492041259016 -1.6247406111510678 -1.5643422030365572
H 0.4236321768956609 3.02113720977516 -1.1158406574388564
Rh 1.5865606314437855 0.08104053904132466 0.6264669654595973
I 3.092244847965672 -0.6165723843690109 -1.3850090963642856
I 0.041724417294574025 0.5555055782138544 2.6845555186312247
O 4.005285351832727 0.3734865404481468 2.3202832341528556
C 3.0793148882594563 0.2761011947045328 1.6733479046447775
O 2.362451604169279 2.8022630893093687 0.47338312259159965
C 1.5766886946251952 2.0046273169689326 0.07436990664124075
