19
## STRUCTURE-ID: 64567a9c3fd740558c0b535e ; CHARGE = 0; SPIN = 1
H -5.082478172578933 -2.2855269137823355 -3.005733528524228
I -5.526528250921047 -0.8761150662565509 -2.4740261266063626
C -2.0443174624531717 -0.8144118192254645 -0.9217604171748829
H -2.7497866748649282 -0.06927560497028433 -0.5671136266034176
H -2.3452499780981975 -1.8114334468895368 -0.6176757863295552
H -1.8858418132093642 -0.7584917103609358 -1.9936535222651866
O 2.8195984774092193 1.4192166753088986 0.142902587672801
C -0.21603713306933725 1.5916871976605025 -0.6658338055159322
H -0.7931178843901757 2.1777541889089824 0.043056712476219866
H -0.678873978048264 1.5406066849856361 -1.6453848390133745
H 0.8105969201884883 1.941861734859711 -0.7220383795483553
H 2.885708295424597 2.3184793280402 0.48097449983496376
Rh 2.365814992451468 0.0572927638377339 1.5665831824776248
I 1.0642463132331312 1.8663742803763512 2.9316240394518536
I -0.10147274321502517 -0.4070225174483898 0.08240079801459466
O 4.107884742913946 -1.798042786592681 -0.0029340590760774865
C 3.413836893267519 -1.1158019889539363 0.6009093071478
O 1.909617169865527 -1.83392770302428 3.8383750386522317
C 2.0464002860943866 -1.143223296473375 2.929327924929436
