18
## STRUCTURE-ID: 64566fa360956d20f84b6a60 ; CHARGE = -1; SPIN = 1
I -1.8318666867312874 2.2726483216084388 1.096317403887344
C -2.5116692673224983 0.8995109451524241 -0.943390380760068
H -2.109906302544022 1.044568178273973 -1.9419634721135737
H -3.480689852018633 1.3653278657945322 -0.8554830754801975
H -2.516314056912127 -0.12449207416481843 -0.5912265019341065
O -0.20296892202267436 -2.7942247033825125 2.554726304594165
C 1.690079502685607 -1.8708150709122924 0.8088771187306477
H 1.898468039567634 -2.490841566942363 1.6678718609725505
H 2.458624494640905 -1.1182492982602985 0.6694157345295846
H 1.575386322863171 -2.480316702016923 -0.07951981904263074
H -0.993032030376424 -2.8003370321783514 3.0939087463477994
Rh 0.07202106473522983 1.2138712695865348 -0.45740427243588955
I 2.348178032612394 2.154439541714578 1.1634790289033798
I -0.13198827457678455 -0.8797017970602172 1.2065787884648795
O 1.6072165459628533 -0.7347129354288626 -2.1616706533011167
C 0.9380129191682209 -0.0013491329348597344 -1.57358831771143
O 0.8155564062381485 3.612584897789611 -2.1223404884476382
C 0.374892064030911 2.7320892933613323 -1.534588005204046
