36
## STRUCTURE-ID: 6456ec292c8a1458737c7c4e ; CHARGE = -3; SPIN = 1
Rh -2.26343073447942 -0.9676940256941295 0.16805146943957375
I -4.891240904594174 -1.0443255557124378 -0.07160822936637785
I -1.7276321808347772 -3.122245963174756 1.6814139364710174
O -1.724633610023048 1.6423296967230796 1.5023356975140032
C -1.4404839097834286 0.5087665413433999 1.2495377073127096
O -2.669809793672155 1.6538646124328944 -1.0316314978803702
C -2.2619706703097573 0.49457466688507973 -1.0910608715549
H -3.7279951219338665 -3.7192304336590394 -1.458574953145936
I -2.5425296288273715 -2.74574075762853 -1.967379728872066
O -1.7026378624939658 0.07899890896977965 -2.290546783315888
C -2.4383621826134543 -4.461966840287547 -3.5059114836895486
H -2.1557628868639265 -5.354010151564293 -2.954248472798887
H -1.6861583976385317 -4.187675277070755 -4.237977324079019
H -3.4287675853265576 -4.530048921435595 -3.9478123833637206
H -1.6738304268100523 0.8025816928109599 -2.942325560730079
O 1.3467146245081645 3.741960866995851 -0.7580542430160623
C 1.341861023962774 2.763438327571184 3.021580676792614
H 1.2945865879085527 3.8201031108791876 3.257763966464514
H 1.134139668125013 2.170931156216368 3.9076293136541165
H 0.5939423516760234 2.5379938854535045 2.260352940927601
H 2.199540450573727 4.171556828411039 -0.9593076237819494
Rh -0.21447283904027148 -0.7853233397455802 2.145778540592673
I -1.5524422405676574 -0.2157104956037721 4.48728916198173
I 3.195693854283392 2.2298152429645293 2.227567924928826
O 0.4283988505566867 -1.4195023002369684 -0.6091105889268001
C 0.8526839592987814 -1.005942141491294 0.4743704849560398
O 2.1891695338513673 -0.2657834004443544 3.83109789094105
C 1.309753923303887 -0.6576184854447275 3.152015217353125
O 2.2365788549580206 -0.837902073887398 0.5290293326751355
H 2.647472779071253 -1.1762999194430799 -0.2983158573037174
Rh 3.338153405428669 1.715683199816405 -0.26463226239150994
I 5.7725360450913215 1.3949974608956457 0.6398833500872172
O 0.45022265439194403 1.7495036449635228 -0.3810266115085418
C 1.5081296542054907 2.3643414324985366 -0.5154673908112846
O 2.9962513571395353 1.2322401216941659 -3.180760395230063
C 3.266331397477796 1.4233386849990455 -2.069945350325196
