12
## STRUCTURE-ID: 6456678e4246833564763461 ; CHARGE = 0; SPIN = 1
O 0.4193002039804416 -0.20230389751500574 -3.156636379934509
C -1.915224487402239 0.2137930633429708 1.517446702364317
H -2.2565667529612723 1.223436234304404 1.7049954884125873
H -1.7054245050420174 -0.2768196994032944 2.4589743650237033
H -2.6848477665368455 -0.3345889852972613 0.9901388651602866
H -0.4277505599845586 0.2451621893390119 -3.2243275904491733
O 1.2151974377968806 0.019173607182292246 -0.31789749044620974
C 2.234090871598688 -0.24359223470699942 0.2589708159299497
H 3.1099485272741325 -0.6563737939016036 -0.25937476011879024
H -1.0167064366734815 0.24200183979686327 0.9151474458148994
H 2.3486458942047426 -0.08586907556242668 1.3398744674450662
H 0.6793375737455435 -0.14401924757895784 -2.2273119292021346
