12
## STRUCTURE-ID: 645667e6be94f855f75ede0b ; CHARGE = 0; SPIN = 1
O -1.0970318878065426 -0.006362036292577616 -1.6322214158427937
C -0.5732112594854926 0.035090118742573444 -0.3921427190405515
H -0.9415518707004216 -0.717972210076828 0.31007876311207466
H -4.815699352590505 0.2994165517062396 1.8382225794229214
H -0.6988503104700946 1.0403648775154315 0.02275375930503455
H -1.2989862368624947 -0.9063581424376926 -1.9293956911715926
O 0.9039162378543709 -0.24136000143481104 -0.5217950970449237
C 1.675896052421522 0.015281582470404807 0.6740891896026959
H 1.30130569972699 -0.6399981774649808 1.4581427612674025
H 1.5907490285127956 1.0536804388709924 0.9928743408103157
H 2.710923169498272 -0.23814570181859102 0.4522982803803652
H 1.2425407299016227 0.30636270021983486 -1.2729047508009332
