21
## STRUCTURE-ID: 645679d7cead712a875ede0f ; CHARGE = -1; SPIN = 1
H 0.8493349294448221 -2.5853753312334606 -1.2317955893085621
I -1.2141632513688467 -0.3396635281816598 0.4968785479050193
O -0.08684730486612187 -3.641188731384815 2.219539646543227
C -2.298736357803596 2.650052232521837 -1.841002507070244
H -2.8249881993185246 1.7429622097146453 -1.5413874505111578
H -2.4993868720554984 3.4770252632370195 -1.171694600258181
H -2.4431092163665142 2.8897993592161764 -2.8879533560848127
H -0.5718304262580716 -4.232747275072801 2.826110220362431
O 1.6052362306089278 -2.44674322929979 -0.6479188116629732
C -0.14452046982935254 2.748486335708217 -1.9451760445928554
H -1.2018786734540516 2.22765881735955 -1.6087164486882068
H -0.19593382317272948 3.8167861469156015 -2.1167020428884626
H 0.4572990086312638 2.470285917602664 -1.0776809525620308
H 2.276280914250632 -2.0015361094702193 -1.1799027339438692
Rh 0.960958234042991 -1.038870597706415 1.7092821369064877
I 0.5248745597985548 1.7506822168577663 -3.66590224648541
I 2.316202625674606 0.9746252646289146 0.6728101002345238
O -0.6037142157027467 -2.181702659580643 3.8234728056710723
C -0.044349468796727014 -2.3582168131673904 2.728085959271304
O 2.9057877282569584 -2.222884485425113 3.628003400066413
C 2.233484048283835 -1.6994350032398875 2.811649967096408
