16
## STRUCTURE-ID: 64568dd5b88ad75a714975ad ; CHARGE = -1; SPIN = 1
H -4.04630817825106 1.333781015954015 -0.08710015448953864
I -2.5811821590798782 0.8989860747959386 0.6031365117513935
O -0.6459628982054595 -0.006295187723522145 1.3258645652528513
C -2.490667084305793 -0.6060491913170654 -0.8965621151104224
H -1.5601879605791007 -1.1406080326611756 -0.745398966922344
H -2.488881695687095 -0.10881442215172299 -1.8590124790106577
H -3.3431629133500818 -1.2611585879571312 -0.7708891437636018
H -0.6901953560717529 -0.17775442515839232 2.2672163196105446
O 2.0547542670144643 1.8184617772947416 1.4562164979133918
Rh 1.5247419925045234 -0.0853048813789722 0.2239299104746322
I 2.612356639844562 -1.5862051937826718 2.115186722477089
I 0.5863172191701739 1.440904196656459 -1.6923918875348798
O 3.9328545468166314 1.5199639173273758 0.1724706170364718
C 2.8638339481536543 1.4052229583529006 0.6727244235952423
O 2.277135327160643 -2.125914543040471 -1.7828132117230482
C 1.9945543048655583 -1.319215475210347 -1.002577609557123
