12
## STRUCTURE-ID: 645664fcc4104458f876345e ; CHARGE = 0; SPIN = 1
O -4.116263837448938 -0.14473272444315202 -1.5223049771924688
C 0.5449804396677292 0.03386282402949642 0.5316739601416383
H 0.3122267031503809 -1.0109770436493641 0.3410503798528766
H 0.0014446375119523678 0.36169787391399183 1.4127333435333855
H -3.9759321591096186 -0.41600086773955697 -0.611217924067859
H -5.022506830012238 -0.37335067256999954 -1.744663573533814
O 2.824618662327423 -0.29522677282056486 -0.3054500085121456
C 2.042723564314792 0.20104854948957065 0.7621824101875507
H 0.2170834110821785 0.6253517336621754 -0.32104617954465375
H 2.281000102313972 1.2601267551526243 0.9406156640737329
H 2.357090700667025 -0.372471574842929 1.6379847818898283
H 2.5335346055353485 0.1306719198177292 -1.1215578768280934
