12
## STRUCTURE-ID: 645669a47ff38f41ea6c2b48 ; CHARGE = 0; SPIN = 1
O -1.2727992796640872 -0.09960513155775921 -0.8460859678060445
C -1.7831429220505879 -0.35455274338156734 0.4475711458423692
H -1.988799952695375 0.5759951056412104 0.9839525307618233
H -1.0167911351387047 -0.9121483906178545 0.9829171247739967
H -2.6932381014724283 -0.9575907982505969 0.40319257101757033
H -1.9436960113708728 0.363898193724178 -1.3619457470764376
O 1.3908218212295138 0.9420687976126297 -0.8204450238708103
C 2.062198170849861 0.11506177751291802 0.10001496264366375
H 3.0851861140946295 0.4827928471724263 0.17239781709881008
H 2.0816868448295267 -0.9263250065882168 -0.2370296928757305
H 1.5988962017305184 0.16095312872414103 1.0916190829233514
H 0.4796782496580189 0.609452220008496 -0.916158803432571
