12
## STRUCTURE-ID: 645667ddb4216e4e83408600 ; CHARGE = 0; SPIN = 1
O -1.240989011198327 0.43670113996094806 -1.301017919581748
C -1.17006719423851 0.06842519726598609 0.6562080649599806
H -1.3089382585038922 -0.9757199216306605 0.8724177688089687
H -2.085079999690699 0.6406502795599053 0.5825860509780127
H -0.4310375260075239 0.5666871726467255 1.2599981954365018
H -1.8581245435425398 -0.22389611166365003 -1.6360439565318918
O 0.5609742600207692 -0.6840105952364981 -0.27879770145271515
C 1.7060249375727996 -0.07533796462991427 0.16456658935711357
H 1.8338484955016134 -0.19884659222909656 1.2528867770007661
H 1.729929135670216 1.0028154924863124 -0.06601985426235858
H 2.578867530605366 -0.5380365156864946 -0.3197461057159468
H -0.31540782618925745 -0.01943158084356372 -1.1870379089966676
