16
## STRUCTURE-ID: 64568cf163f83c1a2a7cab7a ; CHARGE = 0; SPIN = 1
H -1.3833299082149308 -0.6996400809111775 -1.8107983306226971
I -1.2133805793692902 -0.42216854316901686 -0.2441581114413076
O 0.8596176114720534 2.26441720976834 0.8906425942808127
C -3.407351818752914 -0.9091486040420586 -0.15316736600190753
H -3.9295640222975448 -0.15894940598693882 -0.7367944357646097
H -3.6878944015711697 -0.8648186353980227 0.892946716084189
H -3.525998232985998 -1.9111469156371552 -0.5507365284948526
H 1.0752928354763225 3.2036380790196852 0.7310068133710772
H 2.0256851009376153 -2.594013411991613 -2.249308419140993
Rh 1.461211702558844 0.18745196997039842 -0.3400345609610616
I 2.2959322816587866 -2.318284112695595 -0.6960427537800771
I 1.209511456090409 0.9837208235779866 -2.8512404197603165
O 3.0065363396645353 2.1188674201150133 1.6036996021652647
C 1.916860698496368 1.5847450696642624 1.4182873807846172
O 1.6571873761941267 -0.5959144528557507 2.5294522611146735
C 1.639683560642779 0.13124359057163246 1.5662455581672194
