13
## STRUCTURE-ID: 64568c6b2b0a0814bd4b65e4 ; CHARGE = -1; SPIN = 1
I -3.517802407810145 0.3585735569427926 2.890167957863124
C -0.935471726539528 0.7925213049870092 -0.8549911747770862
H -1.2907276172779563 1.781180683584949 -0.5369894088735065
H -0.6836868167487263 0.8558472249644753 -1.9166133609916347
H -1.7666406207416157 0.07976680612988833 -0.7572317069370136
O 1.3964273288415803 -1.7857139443737888 -1.576272280886968
Rh 0.5931305273130074 0.11600735644036178 0.38318373867777455
I 2.2405339805690265 -0.7455590665986163 2.343522646793213
I -0.8036625052122088 -0.19263175296385965 2.5977924406582504
O 2.5294116495330665 1.663378217986387 -1.2596891631486014
C 1.7721351836563852 1.0439802474212312 -0.6517626777364255
O -0.1732523242354336 -2.282494092424704 -0.002136252102733991
C 0.6396053486525293 -1.6848565420961332 -0.6589807585383854
