12
## STRUCTURE-ID: 64566a7ce3f17863255fdacb ; CHARGE = 0; SPIN = 1
O -1.739290462579685 0.2265122498582709 0.6590514467920654
C -1.0299948529308656 0.46397613899506857 1.8530780772675786
H -0.18630432060843352 -0.2246040562108236 1.9599584118379871
H -1.7261418013265277 0.30240403888028783 2.675086131168128
H -0.658609997149609 1.492909305356446 1.898946510522318
H -1.1169978254496136 0.3260338229545011 -0.08012639115105867
O 0.5085752475274837 0.4179261240401317 -1.1323466237720934
C 1.105170885123572 -0.7930075635634508 -1.5487679172893822
H 2.033631021999683 -0.9863308299712358 -1.003714609695458
H 1.3084697103250194 -0.7866606240779416 -2.6228432419541803
H 0.39329150535428736 -1.58660098701353 -1.3287094728691187
H 1.108200889714675 1.147442380752255 -1.329612320856831
