12
## STRUCTURE-ID: 645667e29035cf79e0051b8b ; CHARGE = 0; SPIN = 1
O -1.831681599648287 0.6208070549891411 -0.8660730727312329
C -0.709954836054729 0.8022286708147628 -0.14048990542391204
H -0.3021099941432048 1.7950823812333954 -0.36228586409862024
H -0.8111167261061829 0.6438244116414013 0.9375154604419654
H -1.99763793848125 -3.11598357436959 2.562296786946467
H -2.373728922924727 -0.1127194363145433 -0.5419949687373394
O 0.2985871351830663 -0.2234957859742397 -0.5807126136696102
C 1.6033764076987151 -0.06901241064261887 0.02169802105716429
H 1.494281076855251 -0.23528852443920495 1.0921978801387662
H 2.014186591566488 0.9230291853280376 -0.1653203742428232
H 2.250213767335398 -0.8400807471591203 -0.39029370676224834
H 0.3655850387194699 -0.18839122510741382 -1.5665376429185844
