12
## STRUCTURE-ID: 64566803ce85c059213ae5f1 ; CHARGE = 0; SPIN = 1
O -0.6983455533849054 -1.1785664034739842 0.08698301076853315
C -0.15326768511630678 -1.1457908428668626 -1.257861988028877
H -0.6898347811916976 -0.526815907643405 -1.9681867199231635
H 0.09628743070038723 -2.1384595487694473 -1.6166696500366602
H -1.4419056710842235 -0.5547130660468973 0.24134619698667745
H -3.7165100287421766 2.503036975384649 -1.724095545865551
O 0.7988820239640442 0.7502868714040697 0.01881394607151022
C 0.6667726712767832 -0.5309352591355176 -0.21233333839905227
H 1.422473824488001 -1.1312028368087177 0.28830293764339576
H 1.6947079765048458 1.4391610461247066 2.995160306827066
H 1.7144278777474316 1.1730686689233834 3.725601822684528
H 0.3063119148378252 1.3409303029080297 -0.5770609787283868
