13
## STRUCTURE-ID: 645688670249955c642648ad ; CHARGE = 0; SPIN = 1
I -1.5438326964667186 1.7689411222683142 -1.6094315006583229
C -1.2378078142787836 -0.41869263353327446 1.0446973772777877
H -1.8503369387755717 0.34395281548652057 1.5326737189926092
H -0.8437571052666523 -1.0713564810186167 1.8260840582372304
H -1.9246456957962927 -0.9989264491752391 0.4188075098401994
H 0.6593789205352664 -3.1477546702477244 -1.3735784129408717
Rh 0.2850615894653582 0.2605074241617077 -0.29850773160000904
I -0.13999108794400952 -1.9537698142069482 -2.0524087311737027
I 2.2190564502085453 -1.0649820567147263 1.034434893968134
O 0.2135155384920559 2.1428312236844147 1.9935404263988734
C 0.23834100402229505 1.427462621683962 1.111009748866567
O 2.3137138941088846 1.6927569085277923 -2.102920156412268
C 1.6113039416956292 1.0190299890838161 -1.5244012007962298
