12
## STRUCTURE-ID: 6456688f3a63cc132546227b ; CHARGE = 0; SPIN = 1
O -0.4284303516535161 -0.7995847871374816 0.42844376706584325
C -1.004929252545544 -1.166190793788165 1.6475996379475357
H -0.9070584137169776 -2.235743385515573 1.8430186013067436
H -2.0550562024815817 -0.9223778084404582 1.4782674993582288
H -0.6279945620621183 -0.5742981490444162 2.48404682939931
H -4.966912232499772 6.914862793836407 -10.121292093060315
O 1.0240958980735966 -1.0818839802536058 0.4043383245964759
C 1.801325725731184 0.12374739529635573 0.5472341581978535
H 1.5742296687829094 0.8530605621103722 -0.23010676818750392
H 2.8443760349414893 -0.19070518574815165 0.49346786418244926
H 1.5996319379171078 0.5480329075865472 1.5305168695275022
H 1.1467217495132096 -1.4689195689019465 -0.5055346903340727
