18
## STRUCTURE-ID: 64568ad652c44e6b146c2b4b ; CHARGE = -1; SPIN = 1
I -1.8526969206336832 1.5743294826908818 2.6323834532165784
C -1.5357288654282253 -1.5011014945142058 0.647561413771865
H -1.727406800086874 -0.8460129149998913 -0.20201546022259761
H -2.3194379584520606 -1.3353987418753488 1.3890174901470036
H -1.5523194048198217 -2.5411567118612335 0.3235432012520739
O -0.3712141189595919 1.3228871550930075 -0.3370595756181403
C 1.0314201648724155 0.7793054454942754 -3.193225877955504
H 2.0575742677804496 0.43664926170077145 -3.1804931346701864
H 0.8148838520287864 1.3573413989583845 -2.3041736700265996
H 0.8082453571313388 1.3419365968523596 -4.0893287040264354
H -1.2690247524224876 1.6713048483306714 -0.3619973430319331
Rh 0.31731534906212416 0.7046881989230891 1.4201178616870962
I 2.731985739744462 0.5365961149186413 0.3232213950789468
I -0.23816148004911647 -0.9325197541760868 -3.1490913683223494
O 1.650587525109095 0.3323819247595424 4.064937933013282
C 1.1109912611326882 0.39590376548420947 3.0508661494545786
O 0.55037798998911 -2.06612846489106 1.6823374733527408
C -0.2073912059986089 -1.231006110888017 1.2833987628996153
