17
## STRUCTURE-ID: 64568a2612500426556dc15d ; CHARGE = 0; SPIN = 1
C -1.7384595374220542 -0.2079637443173497 1.0928328565469805
H -2.0416061436135413 -0.3526606372711463 2.1277552562820556
H -2.275032560761513 0.6397874222094783 0.6700689647217164
H -2.048228167469038 -1.1104378572644769 0.5297820277520658
O -0.2931157785451477 2.083012779420249 0.9872322764206595
C 1.0048532689359073 -0.06336494368349481 -3.442585830576336
H 0.8776378181006216 -1.139629131076855 -3.4672941499048426
H 2.0341691694027695 0.1989233570538119 -3.2236426226774877
H 0.6596934952307472 0.4001869624399511 -4.359791994213992
H -0.16362927866019603 2.8903877446701274 1.523615427411842
Rh 0.2948885934772925 -0.5436659777536963 0.484210881639929
I 2.6095577452465815 -1.439196152946808 -0.3809910343696691
I -0.22576805195775243 0.7134250007978005 -1.8362178866229057
O 0.03360386928633564 0.9348745465229311 2.8809359375512282
C -0.19153137028889314 0.9625592947808219 1.694407391776814
O 0.8458038082450693 -2.332625009249331 2.7953269516673998
C 0.6171631207928177 -1.633613654332007 1.9243555465945512
