12
## STRUCTURE-ID: 645664b7b0f5e87067248ae8 ; CHARGE = 0; SPIN = 1
O -1.7100778612083856 0.30270286786057715 -1.0502215096380707
C -2.120759710119198 0.03503565076717147 0.27227567912253775
H -1.82173277085628 0.8926449038134026 0.8720295552017276
H -1.6347877565958313 -0.8615300639126535 0.6690494683108692
H -3.206234449125637 -0.08288942933489907 0.3403239125275902
H -1.9949158103801168 -0.424687862656823 -1.6161939372372691
O 3.087298696803367 -0.19418215845079823 0.4288774095459998
C 1.73528791939134 -0.0815072685536068 0.04011283467378006
H 1.2244668997827441 0.7183773923040627 0.5836705529244878
H 1.2623251152566708 -1.0309466374633232 0.28298917791108397
H 1.636706097407887 0.09916311836456493 -1.0338501322498597
H 3.542423629643444 0.6278194872623257 0.21093698890711188
