21
## STRUCTURE-ID: 64567740f3e19539624b6a69 ; CHARGE = -1; SPIN = 1
H -3.740653016223873 1.6556670640693212 -1.2744768232565895
I -3.531849664397785 1.5967781181512377 0.3799123568002509
O -2.8910921740311695 1.397213077700943 2.7468210834104805
C -0.8406852152811309 0.7123564925305421 0.5499846717979073
H -1.2184325052453813 0.7277367768019626 1.557699692096851
H -0.6707186514302603 1.674468757402544 0.10492481163787336
H -1.23066948880039 -0.05881471015041501 -0.09313939723058899
H -3.63567840606984 1.582632654426618 3.316704966540713
O 3.731631960868495 -1.5691818154350736 0.5866196910671498
C 0.9245351130027705 0.06822673707882364 0.9107612769705984
H 0.46901873151919204 -0.85211292275674 1.2852841980456144
H 0.9789086402216429 0.8829676376660829 1.6401459030927124
H 2.003702014789099 -0.21539850714164602 0.8879357278854628
H 4.308642572752298 -2.18002011770232 1.0506487107379179
Rh 0.8270530025027949 -1.2003248057516183 -1.876810238142475
I 1.019366998061884 -3.467131731839061 -3.2789496504356688
I 2.795818387740037 -2.510148571272632 -0.9505202970066261
O 1.5791541193607115 1.422238467977947 -1.0032389319518107
C 1.119753672417687 0.34862039627786096 -0.724547642088658
O -1.424930521989715 0.29317502446198257 -3.1515646962534962
C -0.5728755697670496 -0.30894802249635317 -2.6641954137176707
