13
## STRUCTURE-ID: 6456887d7fa734091d4609dd ; CHARGE = 0; SPIN = 1
I 0.6712049269792273 2.4447877162775913 -1.4162026951966191
C -1.5803293213643532 0.4027262447487792 0.4265591789125959
H -2.028138421770148 1.1498777980149066 -0.2299762251464616
H -1.770840531146501 0.6528407550141818 1.469160765664098
H -2.1076194528886347 -0.5467978634452622 0.22728714773895797
H 2.450094700102959 -1.7599637651943187 -2.67238413317035
Rh 0.2964357519498195 -0.5163839876938784 -0.21872511791569796
I 2.718632063785156 -1.4685077029402165 -1.1314798961635286
I -0.846650625951017 -1.1969005270802544 -2.5088227019656637
O 0.3365775418815098 1.8779758680166552 1.4930612339829321
C 0.15724755688009545 1.3013138457563789 0.48034352809839864
O 0.9529384942910503 -1.3544474737399155 2.569736762015259
C 0.7504473172508241 -0.9865209077346289 1.5114421531460327
