20
## STRUCTURE-ID: 6456798f2e9a9019a911299b ; CHARGE = 0; SPIN = 1
H -2.7466223341356644 -1.4448810604646611 -1.877007422708566
I -1.6559599408993175 1.1625243685566529 -0.4343539095658381
O -2.4432231330344183 -0.8837602535872924 -2.6320624829105204
C -2.6767361660157 0.5095212953943611 -2.351949446271077
H -2.276278250677124 1.0930194368407198 -3.176736411950622
H -3.7492319112444905 0.6567207738149229 -2.258162250228597
H -1.4844423508807452 -1.0454075251732071 -2.8009046897036813
O -0.39923811124821895 1.6759790559417012 1.7887489340004776
C 1.0643161495978162 -1.6254779140528768 -1.245898808612337
H 2.144580374705031 -1.6969717342264063 -1.3005012443839277
H 0.7465947120988079 -0.6598440603998968 -1.6263077045046148
H 0.5956526491997726 -2.47665972439623 -1.7255994367953729
H -0.977545968780508 1.928824035762511 2.5115841920537485
Rh 1.5311095896492646 0.8594846108533979 2.147588517198414
I 2.31619829877624 1.7401956327109653 -0.1974676574112257
I 0.5118238093999248 -1.6997534257655322 0.8808227906162422
O 0.8245901254407871 0.7218881962029292 5.054103318335207
C 1.0924559577641995 0.7300640417213531 3.927409418103609
O 4.336393363198157 0.09824458638437088 2.802642927758887
C 3.2455631370861893 0.3562896638822364 2.514051366979792
