13
## STRUCTURE-ID: 645688a318eb9f7c9f5a851d ; CHARGE = 0; SPIN = 1
I -1.6738024187024427 1.7348153677407518 -1.8618236427081394
C -1.3711063708821027 -0.7490710414010819 0.6198607894497534
H -0.9405207881388532 -1.0787641070300025 1.565947549024478
H -1.6289193000004196 -1.5958434501361625 -0.019366957657199774
H -2.2412036354695157 -0.11440840968571593 0.7884114062757571
H -0.8115880550112835 3.2884776647053973 1.1919318372828067
Rh 0.05887672457550838 0.3636380966441171 -0.44083620654873346
I 0.35322581806067965 2.2259022497982377 1.4300717114626345
I 2.952469953524554 0.3183307889772256 -1.982842164693836
O 0.38097519396720314 -1.241998534397103 -1.7702905384294159
C 1.4040875127441665 -1.0514944249023679 -1.1047966331296228
O 2.050102216486217 -1.2099506438931367 1.2781160032341738
C 1.467403148846294 -0.889633556420167 0.3056168464373493
