12
## STRUCTURE-ID: 64566853fb661f64da230d76 ; CHARGE = 0; SPIN = 1
O -1.69082455373615 0.9685645422004436 -0.5931727126963928
C -1.6183934517539713 -0.1633648370759491 0.045108392293116625
H -2.2016009011486894 -0.9891087096015768 -0.37093720658251816
H -1.6053499245872775 -0.09761181902015495 1.1373563813273915
H -0.4381410373511431 -0.5307669433216912 -0.2156246564702417
H -0.5256070311526527 1.2870643464482832 -1.2542731730198529
O 0.8460025310941066 -0.5201987935544871 -0.5943912708108885
C 1.574514759821788 -0.2325416722354305 0.5589212835957099
H 1.6315493018919083 0.8400138185788033 0.7660522924429356
H 2.586289704527942 -0.6016849271372623 0.37033107893199135
H 1.1622155340753832 -0.742524288608734 1.4361607140327493
H 0.27934506831876454 0.7821592833277561 -1.2855311230439985
