13
## STRUCTURE-ID: 64568c1e8738fc05d9390814 ; CHARGE = -1; SPIN = 1
I 3.110971968055803 1.0262218413916382 -0.4068554163435045
C -1.4286925164831525 -0.7372217359295989 0.5000504296979571
H -1.6357271734073462 -1.6161924014154518 -0.11162996929803716
H -2.15964063968029 0.03452949903536325 0.25243002566882433
H -1.5408580028375203 -1.0106069082021498 1.55038146753282
O -0.3182988354742289 0.8500527148845778 -3.3730342293283737
Rh 0.5700377368806944 -0.07504840637096548 0.08190476961335309
I 1.4308436008230438 -2.5648816210399352 0.33962377205568833
I 0.2847901044484978 -0.6798495520172111 -2.490613068878919
O -0.3773897833497809 2.611767913484251 -0.8153254404038475
C -0.049587176971168614 1.602853017215335 -0.40664495255493704
O 1.2033546752005007 0.35347023211032336 2.9827354965656734
C 0.9101960427949571 0.20490540685382347 1.896977115673317
