18
## STRUCTURE-ID: 64568b746ec73e56a86aac5d ; CHARGE = -1; SPIN = 1
I -1.022321981426939 3.0466479842987844 1.8282736353700704
C -1.7242859667756336 -0.3119598446909077 1.2151890110426127
H -2.4345363211364965 0.5120184237114892 1.2073568919616173
H -1.9619593929942152 -0.9940064735859752 2.0303394633037137
H -1.8613613290483362 -0.8529109385041077 0.26388689552220246
O 0.7244164924856897 -1.543192598349435 -1.1139569295118101
C 0.39259110177248063 0.8188212073612267 -3.140644534116041
H 0.5405275803491392 -0.2364465069033441 -2.9282332582123503
H 1.316559481129442 1.2886735636371511 -3.4554857618128687
H -0.4021064645291068 0.9739584097444105 -3.858978897992215
H 1.5615133659141929 -2.0112869705012337 -1.1208344566276303
Rh 0.4309834257247139 -0.1461819269754998 0.6074003434248968
I -0.20410263634601128 1.6988945082051545 -1.2651090630283557
I 3.010823429886992 0.6612821001211202 0.6376788435575497
O -0.32547396860116706 0.4960241848142566 3.314403941005701
C -0.3925190270666185 0.7353090211836926 2.1520967209817607
O 1.381525263567149 -2.542588970842985 2.0594489392673725
C 0.9697269470947305 -1.5930551727237932 1.5671682158637694
