14
## STRUCTURE-ID: 6456b679fba47947076cdb40 ; CHARGE = -1; SPIN = 1
C -1.9248760643567682 -0.12687248543683768 0.5749224893449661
O -2.343905336341009 0.5510113559849701 1.3983869291729925
Rh 1.083896975531795 -0.0365385356868016 1.0787297194471273
I -0.1901347272747911 -2.266339894455037 1.7545307519151678
I 2.60555469405869 -1.233487717506188 -0.7061699720086988
O 2.8563442594418538 2.3388035709987807 0.7267817779746553
C 2.156093514934592 1.4319785306785047 0.8398623930321538
O -0.17726321482130608 1.2415885490378973 3.462956409606189
C 0.2822724323341622 0.7628351586756352 2.519396997587791
I -0.5549188187679235 1.2021874050167065 -1.566968686313579
C -0.9085426205006983 -0.7470105290801674 -2.427798197634589
H -1.621331918229043 -0.6234958921061701 -3.232978091741152
H -1.304453165997274 -1.369657806665512 -1.632561611013161
H 0.04126398998780281 -1.1250017094556675 -2.7890909093697913
