12
## STRUCTURE-ID: 6456661d756cdb463b6cdb4e ; CHARGE = 0; SPIN = 1
O -0.9085750078777768 -1.0385869924131124 -0.6623120746424913
C -1.9221491898122516 -0.15956901725213676 -0.21293895442511668
H -2.9042648616773032 -0.6365082337729117 -0.2421980775315832
H -1.9436131689197698 0.7571432124050752 -0.8086979901606947
H -1.6824415896740588 0.09185850793741988 0.8186364196884349
H -1.1313371114066006 -1.3469358763275183 -1.5493112047968254
O 1.5228574501494125 0.4231970794092982 -0.6172292968046366
C 1.9622927266197012 0.49183150174412255 0.7181989906421054
H 2.2576048676794085 -0.4937464557341322 1.0934369801835337
H 1.1896146419014344 0.9058197334255351 1.3749670508027305
H 2.829180652225561 1.151897488854985 0.7348525952660904
H 0.7308305907922501 -0.14640094827662292 -0.6474044382215485
