12
## STRUCTURE-ID: 64566ad1b063bd69e95c0b0e ; CHARGE = 0; SPIN = 1
O -0.6544987194778896 -0.3331468719758914 -1.223436159882612
C -1.4476764072944592 0.3856569347020637 -0.2983880210243088
H 0.7810462836920607 -1.128866555904783 3.270723840636141
H -2.410810096934367 -0.1009972808700211 -0.14365219327562154
H -1.6042727144275062 1.3769558579447558 -0.7192829422025662
H -0.6410002940908461 -1.2628743485490177 -0.9559368031752967
O 1.411631080299757 0.43269172972539144 0.37471004545903575
C 1.414465004256325 0.30678509874939397 -0.8282792373708964
H -0.922997832982942 0.48359088341478995 0.6587964313045251
H 1.754667738735839 -0.6147561709090695 -1.3208182848942422
H 1.2446930448927855 1.1547037535301274 -1.5052157033158224
H 1.0747529133312381 -0.6997430298577109 2.6907790277416637
