12
## STRUCTURE-ID: 64566908b94a55315312b09e ; CHARGE = 0; SPIN = 1
O -1.1872094876226433 -0.5175791658524017 -0.8259675277784013
C -1.921715316308787 -0.011491825263962618 0.2723567681607008
H -2.948515196035721 -0.38365263222522794 0.26778092063139747
H -1.9279236682960197 1.081940438420404 0.27234248264733935
H -1.42245637249973 -0.3650586483527312 1.1727192469965688
H -1.6454353002401614 -0.2847001920568087 -1.6427250299855238
O 1.3846100367626963 0.6775468803022915 -0.700084599773058
C 2.1266255848577913 0.01901455109329338 0.29816208530391813
H 2.3273432477877862 -1.022847226180318 0.02789570972128426
H 1.6100635621746489 0.042750268722210084 1.2635413475107462
H 3.0740359377709745 0.5489180202051553 0.3921702126885272
H 0.5305769716491774 0.215159531188089 -0.7981916161235034
