18
## STRUCTURE-ID: 64566fc65a239478fe6f2ca0 ; CHARGE = -1; SPIN = 1
I -3.1476511489573684 1.2079220260691441 -1.283406626351812
C -3.515281928909591 1.3304641898850798 0.8342055638680915
H -2.8862955278910065 0.5835023207511066 1.3095908882490506
H -4.5662717368212595 1.1199158804990494 0.9905335865398767
H -3.2569558890445913 2.3354869545240398 1.146100665895314
O 0.8984326993315785 -1.6529204448191497 -1.439185262272646
C -0.6669748310700987 1.410553493997859 -0.9363528190690547
H -0.8124751555885911 1.666926209317981 0.09371247191206865
H -0.4693813506154679 0.3894928551651074 -1.202959182190419
H -0.5129339823649663 2.180180611604689 -1.6658069649433058
H 1.3087051976646864 -2.077970238434498 -2.1942595599805266
Rh 2.0280516452495383 -1.3527576829173877 0.3133940759877378
I -0.2450327184111783 -1.1988326880686084 1.6829291693870583
I 1.9777550761705314 1.5522093679888216 -0.3473211113297459
O 3.977518752345061 -2.8608322442676024 -1.3774843036987563
C 3.323387698402684 -2.2515512051526128 -0.6350945955174929
O 3.5884823022480146 -1.1675218515370298 2.848898260302539
C 2.9769208982620157 -1.2142675546059882 1.8625057432120105
