18
## STRUCTURE-ID: 6456702db888fe0a250b3f63 ; CHARGE = -1; SPIN = 1
I -5.02704933645458 -1.2845872344986213 -0.1024006204683169
C -2.5371395302267468 -1.3873669304661536 0.002443891722831527
H -2.490170242234103 -0.5741767511600754 -0.6992090539834938
H -2.600725072052433 -2.3984519940288944 -0.354753106691774
H -2.60108287668548 -1.176970462543476 1.05366296700182
O 0.30039712335924007 1.4277165540123504 1.049259408145365
C -0.6255828528193952 -1.5092829129316951 0.08785634944905134
H -0.4857797038290018 -1.6918295240860413 -0.9609588128222442
H -0.48531482417365746 -0.5118959529138662 0.4716804905793564
H -0.5577228043132048 -2.3369773452465976 0.7686338306024485
H -0.18525738222843635 2.254335186353869 1.1060412315522457
Rh 1.9197522244406098 1.4268801996074223 -0.2942306605679531
I 0.26665178297384223 1.2485118601181031 -2.3519427330926326
I 2.0635889053169776 -1.5328268383928458 0.13310668143299142
O 2.7755244521462115 2.6000038256627445 2.313704493220882
C 2.610035954813234 2.147612787023601 1.2654051759758103
O 4.285299601523661 1.7190906885861403 -2.0940984879147138
C 3.374574580443178 1.580214844904095 -1.3942010441416495
