33
## STRUCTURE-ID: 6456c1c83588a218214d91e0 ; CHARGE = -3; SPIN = 1
Rh -3.092470329485296 0.19467165051524069 0.45177280095592987
I -3.166350017853066 2.8182206973914514 -0.16704473353520574
I -1.9759114747521878 0.6628100585077638 2.85947540223169
O -5.65917279422789 0.3391845052101516 -0.6835688188259027
C -5.128258184373936 0.47880391591579496 0.36923603448243936
O -2.5767213560713547 -0.540213647016979 -2.368494676836496
C -2.9419432996498003 -0.2586234716222365 -1.3096357680279342
I -3.930089067558867 -2.2465422419057095 1.1090398451969985
C -5.761390747801347 0.8489365335348072 1.6625713549079462
H -6.380015765326221 1.7287449744421957 1.4795695439940635
H -6.399015367288656 0.010248284783040401 1.950839958693531
H -5.058434661836528 1.0518663683068958 2.471734842997396
O 4.085756693902473 -0.724562702799895 -2.974607189777806
C 5.54613047579102 -1.93453408722196 -0.08631881221672406
H 5.3783882109980565 -2.9601574967090745 -0.3895124527650824
H 6.241367465376174 -1.880120466016551 0.7421416241691283
H 5.863356333606086 -1.3098804710515044 -0.9125124095856691
H 4.066622341662887 -1.6574630714450922 -2.6960999547145716
Rh 0.9700611396764536 -0.05192354842792558 1.902136954584028
I 1.441930885973785 -1.5427824738619949 4.05629160337317
I 3.570000432124657 -1.1015732929052422 0.6838928785085832
O 1.9590125362071895 1.9021484089138703 -0.05748934011122749
C 1.0553539024663225 1.082518414912345 0.21182703283882268
O 1.8846580434139009 2.599410730836713 2.856956304694304
C 1.5936319348194221 1.5033220926754294 2.585561670292541
O -0.19452545982802014 1.4006735908746806 -0.40150341890762026
H -0.08542733372816495 2.2122437760819813 -0.9274627682729369
Rh 1.7679839038356855 -0.7621189888833682 -1.1960282855898765
I -0.038303406280092 -2.024728379322377 0.3767132289120722
O 3.040724530413102 1.2053292663248374 -2.800865576511274
C 3.0663831072734418 0.03944379897694283 -2.4330725931551718
O 0.12890137718869948 -0.4347920409377215 -3.6720212582056115
C 0.7277659513320821 -0.6485606880765159 -2.6935230237934733
