12
## STRUCTURE-ID: 645669a2e94f032c05530d60 ; CHARGE = 0; SPIN = 1
O -1.1582660850910063 0.3237654150884132 -1.4083828999271046
C -1.1975230720491141 0.1855633576779665 0.5789186148731359
H -0.46971379983994177 0.7258594102232578 1.1597589753295958
H -1.3881378980511119 -0.8208302809543353 0.9061983854668756
H -2.0845458142176456 0.7756541761798847 0.391447866128157
H -1.7816973913409107 -0.35254595747455525 -1.697406153709184
O 0.5463290553347376 -0.7288382320889835 -0.1696371665798394
C 1.6916223068702005 -0.11477982869919616 0.2652483282885818
H 1.7758776196621107 0.9261124385518854 -0.08922881732971037
H 2.5678894943429644 -0.6651140394991556 -0.1086599133456346
H 1.7549861370452482 -0.11099514489092287 1.3661818477322958
H -0.25682055266551507 -0.143851314114251 -1.1944390669271836
