13
## STRUCTURE-ID: 645688791149da0da00b39cd ; CHARGE = 0; SPIN = 1
I -1.8486413130296337 1.9322114812447566 -0.9851730745461301
C -1.4751812085465548 -0.8683712267281501 0.8762405913257774
H -1.8034652754474954 -0.32292826925936324 1.7738052251618113
H -1.1005958571347985 -1.855099292073024 1.1524039141267632
H -2.305481489361659 -0.9661457671946495 0.17441767689012178
H 0.8044094108734539 -3.0537909584039764 -1.3523526531548553
Rh 0.004669636604567727 0.38611795752824163 0.15714556585122308
I 0.11097308360119672 -1.8557148620387056 -2.119398662042316
I 1.7905928420592854 -0.7979532422886816 1.7285409645196081
O 1.4333672765112269 2.924271041483484 0.9141188204924016
C 1.0229218308955876 1.9450212907740785 0.4214243389211177
O 2.031260221053087 1.3256315237113558 -1.8333558891082604
C 1.3351708419217443 1.2067503232446357 -0.9078168184372633
