18
## STRUCTURE-ID: 64567273c1573065460b3f5a ; CHARGE = -1; SPIN = 1
I -3.367513187379636 -0.05858664658095997 -1.0095109920049763
C -1.3049076608964605 2.7923795737411323 -0.2009534634327764
H -2.208739684172855 3.0862824660201196 -0.7362602565141282
H -1.5908581423215176 2.3429233057992014 0.7557477236155352
H -0.6920438378626799 3.674385890367822 -0.01907239229852896
O 2.110083072925268 0.031724206308946276 0.2308492565335525
C 0.8866236115509221 -3.4204691469668633 0.7134778863510147
H 1.6348342526585953 -2.6967274732770288 0.4093750648089761
H 0.6124872880083203 -4.048993302302666 -0.12608339132253332
H 1.2093034798499736 -4.00359811377938 1.5670016909472473
H 2.788730934045526 0.33943228069734555 0.867046117024446
Rh -0.7538033799438949 0.03210008088526608 -0.3923449431866101
I -0.8885164466015455 -2.3222945003252415 1.3036956193747462
I 0.42683153914639 -1.2560239011463883 -2.3731396334429156
O 0.1454923775802855 2.1965139355782926 -2.0242934300135467
C -0.5282894018975345 1.8427372762690846 -1.0925662324400025
O 0.6317651089631924 1.0517238610561421 1.5716977701211918
C 0.8885200763477192 0.41649020765513706 0.5553336058792906
