12
## STRUCTURE-ID: 6456648bfe88b64e785b5c28 ; CHARGE = 0; SPIN = 1
O -1.5766087408471359 1.327618451517484 -0.1128354829353832
C -1.8578031858727901 0.06431896735972958 0.4515973463963934
H -2.9258076867353444 -0.16776064520615283 0.40192526308803794
H -1.5560853870401892 0.11584555058764448 1.4964468952264156
H -1.2905085954428857 -0.7292623351552391 -0.04414195970832357
H -1.8649871579539938 1.3243697176028857 -1.0334033213764393
O 1.659261590888513 -0.8753965478923514 -1.1075712436674885
C 1.842893742975341 -0.30678933848056167 0.1719781456044367
H 1.2000614763346162 0.5664199632054258 0.3172197605870445
H 2.885989222071187 -0.020694910681727192 0.3366906607841879
H 1.5694591724003493 -1.0732858814890398 0.8953487844741453
H 1.9141355492223464 -0.22538299136810716 -1.773254848473036
