12
## STRUCTURE-ID: 6456674af5f4ff27b44efcbe ; CHARGE = 0; SPIN = 1
O -1.1556361124507315 -0.6077828951606373 -0.6088050285139582
C -1.9505802698965233 -0.20782366524527093 0.4902544066260947
H -1.3211899557244617 -0.2787444446949486 1.3754685825214366
H -2.8135097785636685 -0.866348529307557 0.6151813750762966
H -2.2939992698953664 0.824172606729046 0.3772497655003869
H -1.699312777455521 -0.6014508766207173 -1.4060348786644365
O 1.321400591764344 0.752407227130824 -0.9522710850664239
C 2.1813119806279078 0.2623278089187282 0.048767045786450254
H 1.8025711102658135 0.49392542503378195 1.0500762429577404
H 3.1428730941459486 0.7559945919772874 -0.08758552417253684
H 2.320690878272144 -0.8199252624747446 -0.03710245323856274
H 0.4653805089101195 0.2932480137142079 -0.8651984488124942
