12
## STRUCTURE-ID: 645668116a1820546528a824 ; CHARGE = 0; SPIN = 1
O -1.8185315365236623 0.25944077488573764 -0.3441656879637008
C -1.0574097642150018 0.6077893678533084 0.6467619739978061
H -1.4866755337173356 1.4188743243406308 1.2740069995178096
H 0.7687754343897357 0.7366549281868059 0.1052569203850709
H -0.9946499293676525 -0.4878783857540975 1.6543669934802152
H -2.7095592729767777 0.6539824969746483 -0.4215482067462947
O 1.6209916330125245 0.743157336230561 -0.39722462484565635
C 1.7292221746068903 -0.49240394358321293 -1.061617068786087
H 1.8075910135777982 -1.3214287327743353 -0.35028226106715205
H 2.636767316865804 -0.45447373776760497 -1.663522398200274
H 0.8715775170805454 -0.6683801667730778 -1.7187714669886056
H -1.3680990527328951 -0.9953342618193572 2.276738827216843
