12
## STRUCTURE-ID: 645668a9893d6136b77ccc1b ; CHARGE = 0; SPIN = 1
O -0.43988748506300424 0.3517981100754368 -0.397455475668018
C -1.315049237609576 0.676121164275779 0.6410024257927368
H -1.3293830263783302 1.7490318471480506 0.8427780539102722
H -1.1193964577914115 0.09927454170241706 1.5470429464420432
H -2.2758472739731976 0.3688599355968139 0.2241575473955992
H -3.3457954267041825 -2.251690007777724 -3.0366681175971255
O 0.9635234012959685 0.6864225827421775 -0.037157395753579396
C 1.7451564525418746 -0.4995080667177829 0.20956277184553612
H 1.7578813481442035 -1.168745678393919 -0.6505170090352427
H 1.3245804064648363 -1.0153756284891862 1.072410407907118
H 2.7486681703150375 -0.14208108514446088 0.44646100735178734
H 1.2855491287577998 1.145892284982409 -0.8616171625911505
