13
## STRUCTURE-ID: 64568c7703323313f8068a0a ; CHARGE = -1; SPIN = 1
I -2.96051041859553 -0.7266323238776596 0.5984590366653085
C -1.6124114020619251 0.8684394910976821 1.0963878240731093
H -0.7022064559711002 0.7514489604509171 -1.5548532881087935
H -1.7939539476147537 1.1231097526450355 2.1417294349941254
H -1.8472485773728413 1.6958308216266322 0.43000475861822957
O 1.315954773921537 -3.0252860822196728 -1.8072341026310266
Rh 0.572150998701272 0.22445626539403554 -0.8677715458080171
I 1.5639162145707457 2.637063264878366 -0.8945948404505547
I -0.2614647214848848 -2.232887666273745 -1.189167968647486
O 3.2666720596473637 -1.0317270855362912 -0.38082330067157494
C 2.242201576045484 -0.5247633111193851 -0.3713665731805599
O 0.4368198241980957 -0.08660154034634124 1.8561554670550597
C -0.21991992398341342 0.32754945328039675 0.9430750980922491
