12
## STRUCTURE-ID: 6456686be57d2248fa493a7b ; CHARGE = 0; SPIN = 1
O -0.036240910607241904 0.25848914298595105 0.061176941720011487
C -1.3336208729457697 -0.20731538492015944 0.3638501982645292
H -1.8103865923555087 0.43089875078494577 1.115832793269355
H -1.3032362492619236 -1.2369747603302625 0.7371117632745788
H -1.9030208670912514 -0.17123350270597693 -0.5618468972924983
H 0.6489295398355245 -0.22678406100368584 -1.6748644356559885
O 0.9208639583601695 -0.3620563771558943 -2.5945634641682873
C 0.821594613517733 0.2524466383874203 1.1813763205472487
H 0.4265036082699382 0.8917258863242242 1.9781615830003965
H 1.7797070611873775 0.6395922387215209 0.8434724113093669
H 0.9510120682934105 -0.7634667296810395 1.5707630939056079
H 0.8378946427975472 0.49467815859295955 -3.020470308174327
