12
## STRUCTURE-ID: 645666f797a8f5272864e48b ; CHARGE = 0; SPIN = 1
O -1.7421473832753274 0.5430556718785047 -0.7268451682974723
C -1.7015755302128441 -0.0774474826773783 0.43850983909191027
H -1.9311762025066486 0.5992149847238492 1.2620853763653466
H -0.46282707695063413 -0.34330653608738515 0.6663376448218462
H -2.157712335557459 -1.0651961855849539 0.5164171786334598
H -1.7819639360431598 -0.04347362398292086 -1.5026484865436123
O 0.6290581812669559 0.3474654195734849 -0.9717654573372746
C 0.737388116968564 -0.2828309025784697 0.18349608584411634
H 1.285554802704672 0.1998131774360252 0.9918000208975188
H 5.4451395770458975 0.1454853482259467 0.005365426267204909
H 0.9742795910335553 -1.3384921354385713 0.05343073456993202
H 0.7059821955264455 1.315712264511866 -0.9161831943129776
