17
## STRUCTURE-ID: 64567a2e98099c7d9c5c71b0 ; CHARGE = 0; SPIN = 1
C -1.68535958094943 -0.9270344049383288 1.3969301263557579
H -1.649765045367335 -0.8821864064083239 2.4859639570731207
H -2.1191610695144614 -1.8913831846559552 1.1035831941559637
H -2.3530230278069055 -0.13498288844224232 1.054280903364494
O 0.20837951125376833 1.8462203758264815 0.3452218629722405
C 0.37179171532399913 0.6541991327543469 -3.2115339630286024
H 1.094584823075102 -0.11257088298505899 -3.468716923533912
H 0.8470245922800052 1.4794896425100403 -2.693601960020959
H -0.1840832907997808 0.98917733422766 -4.079974369221893
H 0.34586868792579134 2.7763379345466217 0.6271078802377221
Rh 0.1867065839969868 -0.8283395891078082 0.47198362889227136
I 2.5918842771336856 -1.0204938961856063 -0.6936351529740219
I -1.060211618207251 -0.21540649316299354 -1.8336303135350354
O 0.7666989211583967 1.1640491605148608 2.4124365837461967
C 0.42794954440263544 0.953015201814761 1.2820612339523345
O 1.3293261770522966 -2.2020915987697642 2.845221049898751
C 0.8813887990424958 -1.6479994375387008 1.9563022616655836
