12
## STRUCTURE-ID: 645665a15f6e507ac71d80b8 ; CHARGE = 0; SPIN = 1
O -1.8360295876436392 -0.20361598001914105 -0.27055505001617214
C -1.7575000988755443 0.28505448479568235 1.0473548782637014
H -1.5158375986061114 1.3527010365170553 1.0645568641683474
H -1.0086649664685998 -0.26002818473710265 1.632082835433802
H -2.7362893942935 0.1355454037419376 1.5019556102133949
H -0.972210944124336 -0.058193851106166955 -0.6978486749272242
O 0.8060230424618774 0.17626979745360197 -1.2925443701441501
C 1.8113205344443917 -0.24237872419189857 -0.3907354806616049
H 2.7963824622691345 0.11510373414326323 -0.7002743864308608
H 1.8322539208305764 -1.331835057046676 -0.298172316649925
H 1.566800280641671 0.19313259158719426 0.5764213064007822
H 1.0137523493640912 -0.16175525113774655 -2.1722412156501
