12
## STRUCTURE-ID: 6456685c6eafb877932726c1 ; CHARGE = 0; SPIN = 1
O -1.8807606457183876 -2.372511176836212 0.7488157160171224
C -1.5610791251172145 -1.45675659595403 1.456699115863186
H -2.3096033916780554 -0.8331404569672197 1.9693952660749305
H 1.4720083570945446 0.7498318856931009 2.4741344415456843
H -0.5123736393149878 -1.182907112322105 1.6362950982218873
H -0.2377411342942043 0.17088717077896026 -2.074585117481518
O 1.4506808909323263 -0.1393641951068985 2.1107371634095107
C 0.21685816613128467 1.0979912438443165 -2.399575136639466
H -0.2753762821773562 1.444158267375197 -3.298919333773371
H 1.2660937703502073 0.9322405337261143 -2.6046678632207265
H 0.11219867636212219 1.8434499891804237 -1.62254444107242
H 2.2590943574297095 -0.2538795534116497 1.6042150910551762
