8
## STRUCTURE-ID: 64566391d6e31f1a9f7ffa7d ; CHARGE = 0; SPIN = 1
H -1.1289026960377693 -0.25345400919854527 -0.9727980538237453
I -2.1558683562923604 -0.035545196517746805 1.3967401608435503
O -0.24431867068622445 0.20347199855463885 -0.9154529145539048
C 0.24055408885495616 0.06864690258549462 0.41403575882130117
H 1.956167443937979 0.09180998884793502 -0.14075671541523926
H 0.45775058820187037 -0.8968412149767102 0.818511116920537
H 0.4540068143069398 0.9648423105939452 0.9550709736892645
H 0.4206107877146045 -0.14293077988898528 -1.5553503264817594
