16
## STRUCTURE-ID: 64568d6d9ade657d46763450 ; CHARGE = 0; SPIN = 1
H -2.3880047161919067 1.9340124983076186 -1.4432314001477724
I -1.4191282684195785 1.30050489598075 -0.2511863130989579
O -0.2587154176772848 0.026584957776090195 1.3433602978756427
C -2.787611881271141 -0.3525634707355491 -0.2595602985215926
H -2.4028902816306834 -1.0798461563962352 0.44444677917408754
H -2.8120514114355046 -0.7545257793533238 -1.2671915988538325
H -3.7542073167410304 0.02768801572821531 0.05191605404821373
H -0.22681148533130543 0.3715122433007179 2.23469424708204
H 0.4116418566864833 -1.9775829415864836 -2.776662828854483
Rh 1.518226436055932 0.004541209391246446 -0.11660636575425594
I 0.3840474941874513 -2.1769218344357486 -1.1958651051626623
I 2.7258753222276395 0.7584141893033525 -2.350615569331195
O 2.8979707573759343 2.1921903620629024 1.387735029214099
C 2.4296914674351524 1.2987857599069232 0.8084218472737275
O 2.6545492009768576 -1.1647029881225655 2.102769121677113
C 3.027418243752961 -0.40809096112791055 1.2875761033798458
