12
## STRUCTURE-ID: 64566aa3722a714cf26dc16b ; CHARGE = 0; SPIN = 1
O -2.737048587636611 0.09363272829744312 1.05961658732446
C -1.4918204523965504 -0.5749601536857515 1.0725821987211561
H -0.6927858545150196 0.06030625202930241 0.6828902096238937
H -1.5353581433974623 -1.502825983127475 0.49264845881544833
H -1.2816451529196813 -0.8197965043380846 2.1122701004697206
H -2.911470872143984 0.3954713606254174 0.16044122972504807
O 1.2037964397124747 1.0796879238300134 -0.3182435159496297
C 1.7883397345850307 0.1470140906570838 -1.2019428608839229
H 2.186363099597021 -0.7177652943251073 -0.6624329614600101
H 2.58608718769737 0.6029641176574302 -1.7948921919250351
H 0.9978283384163721 -0.18788444933414725 -1.8713307513043307
H 1.8877142630010382 1.4241559117138707 0.2683934968432066
