12
## STRUCTURE-ID: 645666d28b2f186b585ede00 ; CHARGE = 0; SPIN = 1
O -0.980129058243523 -0.016018728829387128 -0.47480833765359304
C -1.656698689937516 0.05742884449188491 0.766859002841233
H -1.3733914573715529 0.9517387322993291 1.3260457812535638
H -1.3708591414984752 -0.8227345969367393 1.338561990175104
H -2.7376991482358335 0.04821309909727312 0.6157186811984434
H -1.224455490911285 0.7532297804772496 -1.0096900389119394
O 1.4567584271224436 0.10306504852536272 -1.4766280849231954
C 1.228302563886589 -0.03604382248770261 -0.23456918726772374
H 3.0086247039157836 -0.19162818568916665 0.5643362119145969
H 1.0139088540455323 -0.9851194098778138 0.22778923169492216
H 1.1024732413235871 0.8682061825065694 0.3384247911494399
H 1.5331651959042565 -0.7303369435768479 -1.9820400414708546
