12
## STRUCTURE-ID: 645668986849972eae6aac60 ; CHARGE = 0; SPIN = 1
O -1.036950209523871 -0.5796637570297005 -1.4193590679773915
C -1.2676472253170352 0.14894765534750562 0.42114078396935906
H -1.3306595327207797 1.2223550658857854 0.4145819696870896
H -0.7033767027955442 -0.27160148948294005 1.235923846387265
H -2.2106183669895345 -0.36102857550148976 0.2769487846814235
H -1.5053478878932638 0.052204243504887435 -1.9769299753672727
O 0.673476498637321 0.5711118284358327 -0.2802879388349828
C 1.64941207354637 -0.02719044420179939 0.47318594666850283
H 1.5994981995760675 -1.1281695201997162 0.4353829966021369
H 1.592744501031317 0.28520666821744795 1.5292618520894221
H 2.638945901973168 0.27384764959556673 0.09819686297624762
H -0.0994772495242055 -0.18601932457139328 -1.2080460608817996
