12
## STRUCTURE-ID: 64568e74558f8831521aaa0a ; CHARGE = 0; SPIN = 1
O 1.3450890717964274 1.9188541196039601 0.7018212541292832
C 0.4025140365512119 -1.3105527516647943 -1.6658302290491067
H 0.19821173929532637 -2.090568623444568 -2.396449509710972
H 1.4634426421940259 -1.232478483262975 -1.4172554331038503
H 1.6978779902693955 2.04700010232897 1.5964730552621815
Rh -0.3303326808586382 1.217450482745714 0.5947942832678528
I -2.492380957487652 2.5032352952099646 0.6655858602677652
I -0.10790473297834552 0.6131769745477562 -2.601955385704692
O -0.39176330492328276 -1.5671688507965824 -0.5561076516940793
C -0.357789882017182 -0.6865281127183762 0.44484641383723467
O -0.8200041774496467 -0.7653126792996175 2.8940836480766645
C -0.6069597443916412 -0.6471074732494603 1.7399936944217234
