12
## STRUCTURE-ID: 6456691e59482362212b66bb ; CHARGE = 0; SPIN = 1
O 0.11137181528348998 0.16328567530609214 0.24132231493458361
C -1.1171936925476367 -0.5319993354626489 0.25026036403849483
H -1.6923947866651237 -0.29729305712304743 1.1521401100406972
H -0.8777289589961191 -1.5920429927345578 0.23251120356314312
H -1.7181121693565342 -0.27976794012977513 -0.6298976911442062
H 1.3944909874828941 -0.9680383525477118 -0.7649586915647858
O 1.90019997023373 -1.7119510733459564 -1.1215160531990376
C -0.05808573238004821 1.5633833399744297 0.250180557891751
H -0.5957551612176271 1.8982486780263335 -0.6435673334737172
H -0.6144687417793238 1.8811731462734522 1.1383988357851715
H 0.936706867641452 2.0022773380005594 0.2652402115260254
H 2.3309696023008457 -2.127275426237171 -0.37011382839810536
