19
## STRUCTURE-ID: 645679fed5ff6104af5b5c34 ; CHARGE = 0; SPIN = 1
H -6.7744606484328 0.9759650521660306 1.9330512178515027
I -6.34823102399687 2.0104951212131934 3.036446335547233
C -2.5917468329913698 0.629433776370673 0.8776012390119561
H -3.2015459890974256 1.1404699262228046 1.6107883755341137
H -2.6936005650011174 -0.4408428844531904 1.0034256340131285
H -2.9107463122756743 0.9095217065244301 -0.11796910140566301
O 0.6508521679468126 1.5841333639393411 1.7126730710560183
C 1.5627521902171968 -0.22436348204435755 -0.40008124071443457
H -1.557113526330942 0.9144204266198784 1.0186287659809805
H 0.9086641079596658 -0.8817152611695248 0.18798728608040233
H 0.9038184937581532 0.4987447094922969 -0.8970243417760337
H 0.6987290299717864 2.0943681080039145 2.525251991731763
Rh 2.949983357008207 -1.198511930027477 -1.612189176899138
I 4.901336448899934 -0.21330430612869083 -0.15591284303213512
I 2.464363224306773 0.9908521278782491 1.127566386496565
O 0.5779105545763906 -2.1965357331431483 -3.1222267116911517
C 1.4868854984730195 -1.8148732810727823 -2.544903130626961
O 4.836067324057316 -2.6700533221660554 -3.4420490764501808
C 4.13608250095097 -2.108204118225563 -2.7410646807079835
