16
## STRUCTURE-ID: 64568d61462cec7002111dea ; CHARGE = -1; SPIN = 1
H -0.888121207338597 -2.549433075837323 0.4184528127122369
I -1.5205476333343877 -1.2534537367815803 -0.38333592413866346
O -1.1861401606120145 -0.7429692427613606 1.7109090668214957
C -2.4242582772862806 0.7543586851374544 -0.3339923559117909
H -3.2623557778402184 0.7441157806780169 0.34970453602619195
H -2.7437254479654336 0.9321441536782756 -1.3555902839885723
H -1.6760596400537733 1.4817519171385 -0.02170198309765375
H -1.9744812022208438 -0.6284467229205961 2.245831736293595
O 2.500562349119248 1.741490682320287 2.1314565067613223
Rh 0.880537016382194 0.2494533191432085 -0.6331072312300866
I 0.3062898153252327 1.1359468267151258 -2.9696106233316812
I 0.9354204308664034 0.7427575854313244 1.9093727366681872
O 2.1951727393445952 -2.3472426444090817 -0.6952170292059562
C 2.227017250475704 -1.1445617105153574 -0.7276315488755094
O 3.8012141536512507 0.7948504837921307 -0.8581938364248044
C 2.829475591486926 0.089237699190966 -0.7873465790782973
