13
## STRUCTURE-ID: 64567145250dbe3b2b5c0afa ; CHARGE = -1; SPIN = 1
I -1.72970989831024 2.264777755594924 0.9864562189027457
C -1.3870398467641518 -0.4848867290806164 -0.8480905935257149
H -1.4817856415877868 0.33984257349635594 -1.5589191448605897
H -2.397502997700193 -0.7580709685639724 -0.5174012554786088
H -0.9605247033271148 -1.3375620473418057 -1.3830739737584319
O 1.2784449942849505 1.7095588732892308 -0.6137646120841376
H 2.0397902599202737 1.9783109005917876 -1.1702269804560268
Rh -0.28784157426487217 0.08745592285695257 0.8396198207058735
I 1.0938439138086617 0.6187905781201202 3.113256916471188
O 2.0178804364213585 -0.3957378054039502 -0.7902747121464913
C 1.2291468728758583 0.41066594097059717 -0.3609526202122178
O 0.396287278310461 -2.771344760058884 1.2560516466526035
C 0.18901090633278636 -1.6618002344707383 1.0473192897898074
