21
## STRUCTURE-ID: 645676762b3c086218333be6 ; CHARGE = -1; SPIN = 1
H -3.8877263233579678 0.8328560412806464 -1.0271784084790063
I -3.1408805027205595 -0.6550543090918484 -0.5724092718758469
O -2.2561048103024057 0.7183598783030091 0.7026923959907608
C -1.7789618679816042 -1.880353258157098 0.6015425814632192
H -0.7720248339610105 -1.4205409898046195 0.5634425196291867
H -1.7475859315563247 -2.876597914671594 0.17532170932875915
H -2.108766026557069 -1.9152404781595975 1.633392041685323
H -2.89655500205571 1.3578513665702754 1.020496276353288
O 3.232229469392588 0.5245375716472648 -0.9576761400411778
C -0.2146997128777486 2.8308037106748434 -0.7646387098579617
H 0.7541010738556101 3.3150179256147814 -0.7960376466709898
H -0.5637373358527089 2.7429708650417433 0.25801326305905836
H -0.9363442277500653 3.3313566713008522 -1.3978495356962892
H 4.138054429524961 0.6240140560944533 -1.306618062911573
Rh 1.2322418648644669 -0.7719543685197318 0.2770667962906466
I 0.05439365835990306 0.802932341730635 -1.527209901724069
I 1.0531874065217577 0.899594999616608 2.4290479740562505
O 1.5499039639945233 -3.5698034306841926 1.2853147731835741
C 1.514124516242863 -2.490494255126428 0.8389746493538137
O 3.8161905932998 -1.627108810754958 -0.8133446139564655
C 2.9589595989166018 -0.773147612904969 -0.622342689180308
