19
## STRUCTURE-ID: 64567a2a57fac813ff1f8bde ; CHARGE = 0; SPIN = 1
H -4.183565301079258 1.5849106568337223 0.32885141309902327
I -2.8419421312017104 1.2000407023894495 1.140972760646755
C -2.46446957144038 -0.48938866596992714 -0.1257939069518932
H -1.4944120552840112 -0.8900321423846826 0.17301502412879624
H -3.259599307614635 -1.20840511055472 0.04287384087889285
H -2.4338856185500717 -0.10907680521294584 -1.1420762349438023
O 0.49744667894523287 -1.4491842580740693 0.6108197014702874
C 0.5775501852282366 -0.061575076155728166 -2.4252004779352103
H 1.5511402464726787 -0.025968763319057835 -2.8978380989838923
H -0.2178857593022128 0.014020072996926187 -3.1549191098503404
H 0.48984052878335715 -0.9487459258476078 -1.8076261471073625
H 0.9003001961126047 -2.3088582781409275 0.4561488014657654
Rh 1.8740421283723003 -0.006952644915207285 1.208194307761817
I 3.7241346343118304 -1.0309927996430153 -0.36815728230776634
I 0.4340158854973807 1.6334037568089335 -1.098020712849325
O -0.6198627159375398 0.5491969351646938 2.7004288018502614
C 0.44954237621228715 0.41539004646980365 2.2818322094472605
O 3.916429077403162 1.9210061761920723 2.241029244495236
C 3.1011805230707465 1.2112121233622806 1.83546586568551
