17
## STRUCTURE-ID: 64568eb5abb0cd3e461d80b0 ; CHARGE = 0; SPIN = 1
C -2.3727666515607613 1.3641406277157981 -0.4034110176273144
H -2.650631608248684 2.0649690877537283 0.3819224685718831
H -2.9197744875426075 0.43921704161506325 -0.1820417705813499
H -2.7071375977049925 1.7344178569209208 -1.3755464301545288
O 0.8299678233316483 -0.381154282139581 1.8103326707964165
C 2.5940128777826814 -2.1739201557882777 -0.895385208668264
H 2.051543312663039 -2.7238803379298915 -1.6564229556457415
H 2.2529218982572896 -2.441542314750889 0.09828745507567896
H 3.6661079201168167 -2.2925189975428566 -1.0003284098312533
H 0.9932487602512673 -0.4897412473718522 2.7722052952805813
Rh -0.4440384562858717 0.3465952816617805 -0.44931236693616433
I -1.1573148018622497 -2.160249007423847 -0.6999030197071959
I 2.155457068516901 -0.06348925292889307 -1.166740188201704
O -0.95036545119346 0.9076154594819711 2.2822991744945837
C -0.21572036118717972 0.35358919230284136 1.5133278040979439
O -0.5238379480619689 3.3321196755904987 -0.5530944125433954
C -0.6016722972718768 2.1838313728334935 -0.4761890884201619
