13
## STRUCTURE-ID: 645689326f128074ff7c7c48 ; CHARGE = -1; SPIN = 1
I 0.025629798584695378 1.8450363419064386 -2.1098795362957476
O -2.110263842799068 2.9828200315381386 1.1791574206082933
C -0.6696309801778281 -1.6015964315604907 -0.06828080635147497
H -0.3673448714696193 -2.0327949319014054 0.8747699792840588
H -1.5926921189779688 -1.0417912962250615 -0.09215801458928702
H -2.949786877809894 2.619529953849731 1.4687377290698318
Rh 0.9554919153403274 0.6680907218262119 0.07884315537070848
I 1.8166624574064696 0.01691655871233288 2.527337877008927
I -0.604661261807802 1.8133756628377782 1.8067835505099517
O 0.21769275880731653 -2.540923631960651 -2.1628985627325896
C -0.2071317111322125 -2.103312554875071 -1.1741041504540395
O 3.1796648981930593 -0.5391902770986782 -1.4677667166697403
C 2.3063698358425135 -0.0861601470493085 -0.8605419247588815
