12
## STRUCTURE-ID: 645666ebcb2bc725d36cdb48 ; CHARGE = 0; SPIN = 1
O -2.0243482677271296 -0.6479554612884335 -0.06364889381220482
C -1.489502577371144 -0.2387200893389624 1.1791197308679136
H -1.1608358981031215 -1.1431118538966925 1.6886199271328592
H -2.2462444138762074 0.259460166853117 1.7930372165115895
H -0.6344889559831989 0.42870711206377116 1.0428944834062384
H -2.3098667793731904 0.13738339319680082 -0.5452882761405582
O 1.3015843450707973 1.106761834463044 -0.36134466889561795
C 1.574428457112487 -0.1360835174931562 -0.9739923370697313
H 1.8969984841613494 -0.007469661787386329 -2.0114130561366883
H 0.6463641883559096 -0.7054100171095634 -0.9600379522630139
H 2.33948986837678 -0.6921239918921954 -0.4237809097597019
H 2.1064215493566603 1.6385620862296326 -0.3641652638410789
