21
## STRUCTURE-ID: 6456788843983a4eb241e594 ; CHARGE = -1; SPIN = 1
H -1.3568625215751338 -4.382608612202678 1.1760942483509385
I -2.3467394694848 -5.593293718421623 1.1350212239215103
O -0.6409418530332202 1.1417887939185376 2.2919353160724594
C -1.3019679138691167 1.0457781309808258 -2.63460835084833
H -0.620647098555861 1.2789858488063508 -3.4499796204987683
H -2.32284738601501 1.119686344701257 -3.0011349390694724
H -1.1548742121846085 1.7880887389126034 -1.8521513023888072
H -1.4701738802508353 1.6527388730486794 2.156733822620996
O 2.303792575283637 -0.1395237550837866 -0.4855518103882985
C -1.0248496384122918 -0.3487306291058616 -2.094573074584644
H -0.017965130758736396 -0.40292407424673515 -1.680862594442295
H -1.7263289035721088 -0.6063951490954034 -1.3034216397008724
H -1.1059992314221874 -1.0965214012663507 -2.8797718957208582
H 2.8367991085971673 0.508702818220531 -0.9556284829418125
Rh 1.8688400384100907 0.189858950957319 1.4008638764891947
I 3.6374221814070014 2.1566955796240532 1.5050931948765218
I 0.47460404067973627 -2.0244547298365703 1.35362362303534
O 0.10486709392112273 2.0301151479415602 0.37704291809595614
C 0.2377703553132072 1.2993310486955774 1.3227275198296786
O 1.855083461593182 0.16254994584271554 4.381154144955172
C 1.7710183839287736 0.22013184760901894 3.237393822336386
