18
## STRUCTURE-ID: 645688fb9defbc7fd7230d6a ; CHARGE = -1; SPIN = 1
I -2.2197238124966066 1.375395276371323 -1.4601096518879682
C -2.3764923996038654 -1.2249479683978173 1.1665307506396134
H -2.5065389402577494 -2.1613275250540602 1.6953789491306737
H -2.782837819777593 -0.4087511937076631 1.7553173684999133
H -2.854785361236765 -1.2461544205566129 0.19462878538075498
O -0.2767409533411633 -2.4278656349876186 -0.21289541464879969
C 1.8972350435524208 -1.1600187963954114 0.4109972422386955
H 2.078104000885906 -2.219853790958606 0.5249149493665445
H 2.5394234137742795 -0.586954015315893 1.0689570767088585
H 2.04569750605288 -0.8676668040347075 -0.6233092568662568
H -1.152863978377751 -2.8159067442685446 -0.2401482325180385
Rh 0.02967908737733462 1.6641645978486208 -0.17556655503703375
I 1.5735338241923766 2.370708084730396 1.8074626390735677
I -0.1894590999260606 -0.7856100851138358 1.004597257178646
O 1.8902220213183052 1.1370110189122407 -2.2870577401952628
C 1.2152506359125859 1.9395186663653754 -1.6998722160778228
O 0.49716444193919096 4.296816662108002 -1.6059192832427283
C 0.5931323900124114 3.1214426724549074 -1.3239066677433742
