18
## STRUCTURE-ID: 645671df2e3fd2436346226a ; CHARGE = -1; SPIN = 1
I -1.9475731777311949 -0.4570575640078065 0.12015216905107555
C -1.9234470939471358 -2.1273250323498702 -1.3031750163353841
H -2.6155661087493414 -1.8931703444254775 -2.102019579346059
H -2.221947493917533 -3.017886632640685 -0.7632151376695085
H -0.9084623091462882 -2.237966852579082 -1.668783021157867
O 1.5005296380147468 2.2671620393248926 1.953996314242864
C 0.5445702632575201 1.019244183513516 -2.5488512113751214
H 0.614970182860891 0.345633319287492 -3.3945459164858356
H 0.8679285958745612 2.0186421643114665 -2.8128800280914508
H -0.45781636091011557 1.0292263163997284 -2.133332469387469
H 1.2729522908553743 3.202100850755265 2.1246915325243947
Rh 0.647819849302666 -0.3777778571671342 1.376865006864443
I 1.0584128583927281 -3.026620668844848 1.0069187326185938
I 1.9045456808182877 0.2753099591331867 -0.9926739313674606
O -0.7166504196081301 2.086054216480514 1.850168571988156
C 0.37332633029309586 1.5166353321273291 1.7659791501387807
O 1.074630599895309 -0.23757400783891708 4.336536503203089
C 0.9317766744445888 -0.38462942147957 3.18416833058476
