19
## STRUCTURE-ID: 645679dd2b41a37bc967f9c6 ; CHARGE = 0; SPIN = 1
H -4.24862939774071 -0.01170191044747599 -2.454788678563756
I -4.3705518408052315 1.0513243174206766 -1.285614697472225
C -1.8740391361703153 0.9482509454281753 -1.0154280418173494
H -1.8024328344070863 1.8066169575014908 -0.3590072454927374
H -1.9067861342287644 -0.04742667866130411 -0.5859582134779372
H -1.719761093892029 1.0863243047566906 -2.078798291752153
O 1.5927804621721882 -3.443558406164105 1.9464616369518122
C 1.3316985969289599 -0.7772301792557164 2.473692830783944
H 1.37814728165758 -1.6025395120188617 3.1671448896405434
H 0.522084317353065 -0.10161220480679325 2.721375555377844
H 2.28186034714329 -0.2562795182610227 2.4519189337730207
H 1.563807510994073 -4.270971652174969 1.4695597834700642
Rh 0.6551550905225555 0.5094730261801332 -0.947411762706756
I 0.18891397581776656 -1.3596860409603337 -2.6907193324173533
I 0.9813351380281106 -1.6322681338745044 0.5747275880684953
O 1.4622282931539992 2.2492166309024624 1.3443607353010285
C 1.0888485029256678 1.5980803901089038 0.47827451087474326
O 1.7707862859987706 2.442601053361598 -2.9428760123203035
C 1.104554634548123 1.8113866109649686 -2.2669141882209467
