12
## STRUCTURE-ID: 64566d845c8e187889224134 ; CHARGE = -1; SPIN = 1
Rh -1.4245861652667386 -0.4969244817212701 0.4412046423549157
I -0.7359215056934769 -2.004099390640167 -1.6281789299984957
I -1.6603679437029741 -2.5458256103655015 2.121446673624803
O -2.68768973017248 1.106376006071468 2.6219333341236695
C -2.175880122491391 0.504959261807618 1.7822084448336228
O -1.6842379907218328 1.7524472699680844 -1.5028116981693085
C -1.5665263028223437 0.8903297564163168 -0.744923666937874
I 1.6464333454486266 0.02416436930318242 1.1592007416092494
C 2.4790673623805985 0.1755996826866165 -0.8359243677279026
H 2.1114309918590104 1.0941239099716562 -1.2772430900055058
H 2.1414673713981625 -0.6865700076166782 -1.4002582501080303
H 3.556810689784857 0.1854192341186694 -0.7366538335991304
