17
## STRUCTURE-ID: 64568b5105e5d04b6f1a5614 ; CHARGE = 0; SPIN = 1
C -1.4856349919883831 0.38301212678279467 0.561064854943794
H -1.749930744310282 0.9842030482661628 -0.31230146671625303
H -1.9573483514838133 -0.6036886851706523 0.5280966636749991
H -1.7500670492515997 0.9154982486767766 1.4736750558071092
O 0.10528643458603834 -2.269105517784805 1.2852400412918081
C 0.013332192216243998 1.1830264181133074 -3.20933189192195
H -1.0543197701272464 1.065221877772285 -3.3526454940964627
H 0.5349839791722525 1.2604609620704608 -4.1555689329749
H 0.24347035502375863 2.0189711524573237 -2.5567722303211493
H 0.39414372647560575 -3.173025362023091 1.0402691206117005
Rh 0.5331537659026278 -0.02078596438070876 0.4482052021972887
I 0.729128758077658 -0.6141301893743267 -2.228387336747222
I 1.2836554177500497 2.435229505401568 0.4076860029521672
O 0.42522931048413587 0.34832215567818203 3.4018369539833695
C 0.5737200785419035 -0.22227897420296025 2.3699968593765153
O 2.131611259050561 -2.073314481879437 2.2700529507961718
C 1.0295856298805242 -1.6176163204027387 2.0288836471431475
