13
## STRUCTURE-ID: 64568875a3165e026d4d3024 ; CHARGE = 0; SPIN = 1
I -1.1437146126143547 -0.3096791658432196 2.5118494253280352
C -1.2754051897211336 -0.024316859379191043 -0.9651057309634088
H -1.0714678572986385 0.6448412227991744 -1.8021377864383878
H -2.139821377367375 0.34375806226566186 -0.41264105521967837
H -1.5053917499880474 -1.0157006145922112 -1.3560839095066384
H -0.9033432108782558 3.0507310561258145 1.3699875375747204
Rh 0.4146428479873706 -0.06233642179173802 0.3474036187982078
I 0.34986903644154765 2.7423556240958367 0.44098307356315825
I 2.8658687317107976 -0.2111892063257065 1.7719260823483964
O 0.2315497527940854 -3.01983284902253 0.651265579293651
C 0.2762081439461233 -1.8936551072621572 0.5194414403000783
O 2.328758565385953 -0.15708498212061667 -1.959075250371008
C 1.5722469196019189 -0.08789075894910738 -1.117813024707115
