13
## STRUCTURE-ID: 64568aac0220a53396333bd4 ; CHARGE = -1; SPIN = 1
I -0.28440703790998534 1.8645573198115244 1.6454964755840666
O 0.05234009483334647 1.0529081987878963 -1.720317168758451
C -2.022522808882066 1.3984091806967376 0.4784058156816038
H -1.9819453438307237 1.99767690213069 -0.4251211403632538
H -2.9141917096483327 1.56690838965833 1.0759672770001045
H 0.4731427609920504 1.1342457594142665 -2.578946932869476
Rh 0.8017527863278132 -0.34243019852887346 -0.3809968762933642
I 3.27650401184182 0.41509150572933196 -0.6726605799955524
I -1.9792169327767855 -0.6746658726943616 -0.14954417876680834
O 0.7605620058830929 -1.508568268047848 2.3363522260675205
C 1.0014028251082243 -1.5549595461422279 1.1409729540915372
O 1.5924626495825107 -3.1075801975258903 -0.7566241392229689
C 1.224116698479026 -2.241593173289598 0.0070162678450403125
