12
## STRUCTURE-ID: 645668f65b9a3a0525068a1b ; CHARGE = 0; SPIN = 1
O -0.7364761417957704 0.37581625343194686 -0.6968203654249818
C -1.0434508384378949 -0.14459720876915483 0.6203566615870991
H -0.09288537961679291 -0.0357776122200601 1.217541131408001
H -1.322556605452029 -1.1941066697056977 0.5852228825874091
H -1.8355225343386612 0.46508508112660846 1.0416566761204844
H -1.4487868959363743 0.13037696386161618 -1.3299856976078062
O 1.6066305692219327 0.12476968070824672 1.5989437813783087
C 0.5379301972792488 -0.10007102210273645 -1.1890338676538887
H 0.4932883433705131 -1.1491373160427454 -1.472482159262435
H 1.2490575475864913 0.016036908416261052 -0.3528471799775175
H 0.8274569732318333 0.5271894946105219 -2.0269323789417175
H 1.7653147648874978 0.9844154466851933 2.00438051578706
