18
## STRUCTURE-ID: 64568a09dcfb3150b019eb60 ; CHARGE = -1; SPIN = 1
I -1.521404645402127 1.7904862574634706 1.246417692344978
C -1.5698301549740767 0.4150234332441038 -1.943721399951002
H -1.5464195148914492 -0.6298101188432368 -1.595124680093414
H -2.564534482377503 0.8035960119497173 -1.7136863620556644
H -1.463151700858743 0.3819140752940836 -3.030044509761705
O 0.9546503139949358 -3.3946044284259997 1.363946639354926
C 0.5045034882718645 -0.9513257082550837 2.4672159176284016
H -0.5583687648962885 -0.9510571982649338 2.6734457340926987
H 0.9486828591320522 0.006161699294869742 2.71331870759895
H 0.9954888673593097 -1.7637356549995344 2.9833145061287554
H 1.0984047339654734 -4.06759324631677 0.6990269527341028
Rh 0.13580817104585363 1.1228860699917491 -0.7494430575752801
I 1.809789601825097 0.20653753247650117 -2.6201248095951892
I 0.7977106643497817 -1.3222970892778638 0.3967589124298039
O 2.432216404077708 1.5218236599609363 1.1785043778685
C 1.5871349772860148 1.4304758108698696 0.39295807245260195
O -1.311442645394035 3.06514365994631 -2.570935702779813
C -0.7292381725138476 2.33637523389181 -1.8918269908216532
