12
## STRUCTURE-ID: 6456681a91bb2d20007ccc21 ; CHARGE = 0; SPIN = 1
O -0.7577308556529198 -1.1400779846976403 0.10590632998193865
C -0.17630620339641626 -1.1029572074985263 -1.223610048404681
H -0.6530038769647214 -0.42885612470646406 -1.9268638922377102
H 0.018232496521208865 -2.099467348950463 -1.6054049882944081
H -1.4665761067701393 -0.47737742669341077 0.261437690420214
H -3.465223321164039 2.805616812061487 -1.6184810837763146
O 0.8592389955067163 0.6915758638310103 0.13122250732660493
C 0.652499716185347 -0.5718255046583539 -0.1398328461031367
H 1.6000743528486119 0.9942666806063535 3.4263548203184513
H 1.6121535724365366 1.2317889708295582 2.6853845864972308
H 1.3550683169361948 -1.2323477765547446 0.36247351962967705
H 0.42157291351362475 1.3296610464311887 -0.4585865953578661
