18
## STRUCTURE-ID: 64568a8ab673fd1cc06dc160 ; CHARGE = -1; SPIN = 1
I -1.6801806817090132 1.99368074077301 0.04782027215587276
C -1.6663523883751648 -1.8637127641714577 0.6714151128840739
H -1.8526527012635359 -2.7371219408136658 0.04415250624219496
H -2.5179599888493205 -1.1839309318981375 0.5284098079043499
H -1.656254999767094 -2.1534671038452737 1.7225111402474484
O 1.2536985429117313 0.77225644112672 2.163734737897559
C 1.3895883556374553 2.2604755755420998 -2.5150316054254223
H 1.0653378603213683 1.592337585608589 -3.3064140491709337
H 2.242988597428251 2.8562940221955744 -2.8163335958094535
H 0.5690940337296418 2.8821448304820354 -2.169719023999938
H 1.383989704337193 0.9974445875767372 3.107625530720671
Rh -0.24528455293702395 -0.30922091734897744 0.03459347329832187
I -0.8087934416631848 -0.9734276080205833 -2.583696068902987
I 2.025163730740848 1.0336849651215856 -0.8331697655304345
O -0.6116816415768045 -0.2050339583163807 2.8788951123060493
C 0.10671041006366885 0.10818903193208597 1.9491824093433225
O 0.7416745760537748 -3.0479118676829176 0.6684523085023651
C 0.26091458491720076 -2.0226806882610653 0.4075716973369747
