12
## STRUCTURE-ID: 64566b02fb60936f1740860e ; CHARGE = 0; SPIN = 1
O -1.6729851019270312 0.35366719903237587 -0.6090727893908342
C -2.048330739296177 -0.15374589522607449 0.6491855947975423
H -1.454555787043578 0.2930335962774774 1.454066016637352
H -1.9417354684060162 -1.2422763454800307 0.6906607676990211
H -3.095739679295734 0.10635394220449487 0.7986698953060559
H -0.7475502634257317 0.09503575428484182 -0.773882572098077
O 1.0523545429860952 -0.41832128712179295 -0.9306014418740896
C 1.9554858404073632 0.21783818654196177 -0.048032163319605505
H 1.5289577641048147 0.1368076605933396 0.9500800398480188
H 2.07840596399583 1.2749123459466771 -0.29921846888939235
H 2.931063449605973 -0.2744127519657122 -0.0573868831656177
H 1.4146294782942004 -0.38889240508756046 -1.8244679955503729
