12
## STRUCTURE-ID: 645668236b176371b76cd4be ; CHARGE = 0; SPIN = 1
O -1.619892413101912 -0.2639382587193081 -0.8887774375070457
C -1.998984933990122 -0.34938430552643673 0.4644334745814807
H -1.9784425691531706 0.631764309853365 0.9492957473591794
H -1.3496934777222795 -1.0355611788959345 1.019228439337314
H -3.018021183127777 -0.7341672546883217 0.4867375031826959
H -0.7275343563590649 0.1255602017895711 -0.9278561659644873
O 1.0376555519124446 0.7924682456156339 -0.7752695778830893
C 1.8801630316327858 0.10737921716103467 0.13020295375250446
H 2.1423643215078725 -0.8857125341746209 -0.24515368435218296
H 1.3225052101414392 0.0010858539112153407 1.058974824116616
H 2.7934749533505956 0.673566140979741 0.32866447949218736
H 1.5164058649091972 0.9369395626940585 -1.6004805561151776
