18
## STRUCTURE-ID: 645670d47b01661d37750ef0 ; CHARGE = -1; SPIN = 1
I -4.420046333368538 0.44503202078932796 2.0222130848490765
C -2.4299218274879784 -0.8826683459013278 0.6302659564792087
H -1.7915103002625266 -0.28466949723584456 1.2476407299375443
H -2.906854104401212 -0.42800316704151553 -0.21317115347931612
H -2.854837557434357 -1.7740437031421579 1.0411906778451139
O 0.5207022857750788 0.6919165481800073 1.0716014250480381
C 3.049277497301191 -1.2618772574663282 0.547315923782072
H 2.844953405672172 -2.281781544863377 0.2451965378484973
H 2.24702412787847 -0.8690682807500575 1.1633706607759584
H 4.0123538230731235 -1.1633355780092038 1.0309442053609554
H 0.5306539545611274 1.5057080452030904 1.5777390079557618
Rh 0.12881411215917773 0.7087892784406891 -0.9389319243881956
I -0.5786916777035229 -1.905945071974192 -0.6320327554665643
I 3.082399236845265 -0.05230959928775914 -1.2385677226698182
O -0.3407694213101563 3.5883541094953113 -0.32124662675034416
C -0.15632519080136004 2.5105253159092316 -0.6803790967019177
O -0.6296877485747359 0.7421299685337825 -3.829099208223438
C -0.3075342819212462 0.7112467591202661 -2.724049722202561
