21
## STRUCTURE-ID: 64568d75f70aa324796231a1 ; CHARGE = -1; SPIN = 1
H -0.3988828826747512 0.941504855361095 0.3523353531499248
I -3.4205075647992835 0.41784775936528884 1.9268320380382469
O -0.7478813598299648 -0.10540006460501566 -1.916984144380447
C -3.538298465021924 -0.6748633086423934 0.10396128795332418
H -4.420931248612086 -0.34735495549283396 -0.42897710285311486
H -3.5872646442924183 -1.7269849904907566 0.3502684297124746
H -2.6437724847937 -0.4689293853731819 -0.4722399535856406
H -1.0916615452494405 0.7318443284046608 -2.2409773103562753
O 1.6542026036698176 0.7012309044160913 -3.5236694085054237
C 1.5616353103109069 -0.3104105913788968 3.477067262393466
H 0.8741907682149167 0.4720496995227191 3.779949092025492
H 2.382669805709416 -0.4202321590871283 4.177593943907933
H 1.0415366429981574 -1.2503436111037685 3.3159845317724286
H 1.7290827932430965 -0.11065942866755743 -4.060906364875555
Rh 0.5914713978043205 0.08917826217395661 -0.38819144732466876
I -0.12531539752907886 -2.31272453144084 0.5691790095918545
I 2.4421214732554657 0.29147582554875323 1.5575203394892987
O 2.3752570675814537 -0.6231549955736833 -1.8481409172876266
C 1.9498238767692155 0.47666009394086284 -2.240300300943765
O 1.8352872670243618 2.700319763580098 -1.2095182760520906
C 1.5372365862214679 1.5289465295425229 -1.280786061869897
