12
## STRUCTURE-ID: 645664cc02dafe59fa6cd4b0 ; CHARGE = 0; SPIN = 1
O -1.338338307412603 -0.6942364487699421 -1.1764008178770604
C -1.0760810218649108 0.5206397761438016 0.6262427931130736
H -0.5737318729310003 1.0221402762125529 1.4514465171202457
H -1.8933754873808042 -0.10358694883356499 0.9337070511541969
H -1.3050506233463601 1.1810317173372853 -0.1886144685838552
H -1.2920542981120327 -1.6200755311714716 -0.9314707216025288
O 0.4527025590902376 -0.4993396651698065 0.45699063741895063
C 1.3781099237468675 0.08786642881478698 -0.4489642641793564
H 2.2441409779727515 -0.5669088446301919 -0.5441340593430499
H 1.683403640978369 1.0827432260558494 -0.12071417955029735
H 0.8549185818248555 0.14818943959977057 -1.4022372944851473
H 0.8653559274346417 -0.5584634255891504 1.3441488068148235
