12
## STRUCTURE-ID: 645667019309a939c87cab8b ; CHARGE = 0; SPIN = 1
O -1.3673741057648432 0.8970750033115364 -0.8367455729441058
C -1.6774030010721335 -0.019202705875759844 0.057941543776994404
H -1.95818168680607 -0.9635892541510076 -0.4085360831859683
H -2.287939608249682 0.27299787578595197 0.9135344039105685
H -0.5616450078847319 -0.3519719498281621 0.6390381379371828
H -1.3286849377593026 1.8082658389368085 -0.49429688484002243
O 0.9330587662144834 0.8410122849682414 -0.18246960166676848
C 0.6813263400153633 -0.06488208915908672 0.7509568949207908
H 4.488519743027685 -2.220018204697926 -1.8121107994070034
H 1.1541319985502876 -1.042907047931761 0.6627856669652685
H 0.7233179858746196 0.3691814225047007 1.750549072351857
H 1.2008735138543125 0.47403882613641857 -1.040646777818759
