21
## STRUCTURE-ID: 64568d3f2e47e17e1b530d6e ; CHARGE = -1; SPIN = 1
H -3.9094486333951184 1.5550668888807702 0.4440583695368122
I -1.8441657103450548 -2.2688183937629844 0.3675922935474074
O -3.7347827646667313 0.8679027697299024 -0.21367419302740692
C -0.8119425626849547 2.2430467425677354 -1.036294707957789
H -0.3992843815267368 2.2742090056311257 -2.048318196713695
H -1.7464955496495072 2.809991007162299 -1.0273435168767606
H -0.10080392237392242 2.7441338276111336 -0.3762457239996198
H -4.284946319522736 0.11456944867990863 0.038710679295238706
O 2.9714886591763316 -1.4329370323191537 3.0453669446675424
C 3.109827248495627 -1.6930417398170476 0.342799963783444
H 2.7424054498105432 -2.6853052882754813 0.11300463898512471
H 3.9887434075359676 -1.7427917271902638 0.9665696155824655
H 3.284328905742796 -1.1280934097058255 -0.563544894332947
H 2.613255048297761 -1.2815893961227125 3.920675662673132
Rh -1.2522071522623368 0.30485453116048544 -0.36109088317139676
I -1.0686200319730257 1.138616540518764 2.1757928806280313
I 1.6359256304263077 -0.6878316835471 1.4723273399492907
O -1.6150091816376682 -0.41249292587204583 -3.2198773956409514
C -1.4907718815198043 -0.13152085008980346 -2.115039835669613
O 1.2735585066549617 -0.3952414193527257 -1.4615722583190065
C 0.6389452354173601 -0.19272689588707712 -0.4638967829391587
