12
## STRUCTURE-ID: 64566b596bc31c76904ed2be ; CHARGE = 0; SPIN = 1
O -3.0124520426293224 -0.03069465462852493 -0.0902856743817761
C -1.969273333647663 0.22695743802260468 0.8282908732577798
H 0.17362655537659313 0.1586910084684069 0.9952832459154963
H -2.135385358042817 -0.46926679487518946 1.654180814704392
H -2.057679454594038 1.251453191837602 1.2183167866651672
H -2.8791669996619027 0.5243472740218587 -0.8692305282957346
O 4.431261151085926 -0.395659205654132 -0.7015807473184147
C -0.5831566909723094 0.01747141130081512 0.22927102519966694
H -0.49744474766940533 -0.99091745347487 -0.16795011612523705
H -0.4021160816289487 0.7287576649984476 -0.5742208214395099
H 3.787863447022914 -0.15999576563392803 -1.3751735755513077
H 5.143923555360976 -0.8611441143830754 -1.1469012826305447
