12
## STRUCTURE-ID: 645667085b9b67258339082b ; CHARGE = 0; SPIN = 1
O -0.882486052295561 -2.611942976909735 -0.23119998884464232
C -0.6962359632453308 1.079762509957057 0.6791789541486539
H -0.5946205642684287 2.109016383031672 0.31863270740301314
H -0.24432591710956608 1.0039890812477603 1.6743207132421098
H -1.749330161966764 0.814454815935609 0.7350830978232994
H -1.348614132647171 -2.6715627805546367 -1.0686934014641014
O -0.0948235494386767 0.17215143047444562 -0.21872847386349617
C 1.285418155771001 0.4091478091186201 -0.39461627437808156
H 1.6443286872702902 -0.3373613036692936 -1.09914490523352
H 1.8243432029112314 0.30839644119992365 0.5538022446191496
H 1.4597376878455044 1.411877573282156 -0.7992216881572295
H -0.6033913928264845 -1.6879289831135267 -0.14941298529516528
