18
## STRUCTURE-ID: 6456736d71d3e3164915987e ; CHARGE = -1; SPIN = 1
I -1.5651998773978566 -1.6737367090928028 -0.6349131242895429
C -2.82239334217642 2.095722697560512 1.7016173267853147
H -3.7879924572122143 2.574592301366959 1.6143164094766795
H -2.96083842454553 1.0238833404036929 1.7662385223410746
H -2.3134977526298326 2.457519747188805 2.5842939304225148
O 2.0135597326460655 -3.0323461786193797 -0.5820529447573477
C 0.6916074383264065 1.0734012353665259 1.9578290452271876
H -0.15889259957796237 0.7225676277084968 2.5107817760725397
H -2.232932019951872 2.3228177775575176 0.8221087394836104
H 0.8789703808337116 2.120143833826978 1.8137110813663033
H 2.277783011590756 -3.9710448788841104 -0.6738305739366389
Rh 0.6864154236228942 -0.7162028563074485 -1.6020763980315955
I 1.739378351322885 -0.2662895165477069 0.8578306107797266
I -0.2906969536590357 1.7404506812842777 -2.1418680006147452
O 3.1573510322412974 -0.2532501900065689 -3.20000959020774
C 2.220965854230535 -0.3646598728826969 -2.534325273826403
O 1.1342898387810763 -3.2779901942896523 -2.620431448448373
C 1.332122363554919 -2.575578845633341 -1.639220087842286
