12
## STRUCTURE-ID: 6456667af27def11fc4f7351 ; CHARGE = 0; SPIN = 1
O -1.860039990175575 -0.05672613686687825 0.7472172354192314
C -0.6777818769184636 0.06567840281295367 0.5343552049714433
H 0.004245104882762748 0.39842455132279647 1.3377280001288472
H -3.551343443732571 -0.4489108951908523 -1.3218217542203836
H -3.812410777596842 -0.6034238578143506 -2.039323681060216
H -0.6939479807605667 -0.5452592951443906 -1.5135499023358694
O 2.7308337606705555 0.4937175777448121 1.4789529499410938
C 0.004480458547393453 -0.19505705258323555 -0.7585113001077664
H 0.4874679312133915 0.7232782962915187 -1.0857524888538836
H 0.7931233201031738 -0.9254730503180174 -0.5920068415841999
H 3.3686964621521285 1.0614791575469997 1.0383812897445721
H 3.206677031614603 0.032272302198657905 2.1743312879571435
