12
## STRUCTURE-ID: 6456685fda775332943d7d80 ; CHARGE = 0; SPIN = 1
O -1.7746532230685832 -0.18763105187873083 -0.5116857118308864
C -0.710263625554379 0.3426613722154822 1.0863033087298517
H -0.4850820788224115 -0.5028604423765967 1.7112879015476934
H -1.6574291505515562 0.8211089527700203 1.2964311729523985
H 0.08696663318198071 1.0583143781349675 0.9797220647415651
H -2.292440934663317 -0.9397114591678043 -0.2019275123354791
O 0.5037867867261464 -0.7292294755930492 -0.26146140323079403
C 1.5531581810621495 0.015020614841783532 -0.732905364945101
H 1.2244511616088738 0.881751906614545 -1.3304748642295405
H 2.1874995153344683 -0.6117220597813601 -1.377405715364499
H 2.1887777914080218 0.38359797761591763 0.08954022961443615
H -0.8247710566612177 -0.5313007133940982 -0.7474241056493225
