12
## STRUCTURE-ID: 645668ea69417457223dae5b ; CHARGE = 0; SPIN = 1
O -1.6500192496376125 -0.21615408421662055 -1.549913145864757
C -0.5016131280350038 0.11136120613471469 1.2095673234317377
H -1.2379774008692102 -0.06592321010181375 0.40848790959302017
H -0.4912604131675136 1.1721249858535907 1.4498504334281122
H -0.7322853423918441 -0.49116313244673504 2.0831684410119333
H -1.795872466726824 -1.0758736167368017 -1.960090992586475
O 0.7719640554965796 -0.33257950122377994 0.686851313668042
C 1.0161082722009718 0.15811658420849609 -0.654827455917367
H 0.049406824890485465 0.0034019824551965124 -1.2157405035323525
H 1.8125240103553106 -0.4382820522134081 -1.0871435345004334
H 1.2637911384120073 1.2160173639758316 -0.6577092422796629
H 1.4952336994726525 -0.041046525688668394 1.2874994535481985
