13
## STRUCTURE-ID: 645689475db2673c746b0e04 ; CHARGE = -1; SPIN = 1
I 0.8153830055752019 -2.1624900459906624 -1.9215832584243249
O -3.0352237926292758 0.6316505360745582 0.29531592549009583
C -0.5187951528540894 1.1640324053993931 -0.7884702514410333
H -1.053309827089282 1.0803707140709875 -1.7336370366508336
H -0.6745808668767538 2.1523584092678596 -0.3578534572589296
H -3.743653990998183 0.2225522379325897 0.8043356615839969
Rh 1.4053773248361938 -0.741866722050389 0.21345377077534078
I 1.8751248050444818 1.0608750935652622 2.0733998048734037
I -1.191661108602554 -0.3282485583929291 0.5649275357959855
O 1.7474850698348003 -3.1262343811340907 2.071385358478824
C 1.706432637384003 -2.2368676827835494 1.3465887658078661
O 1.6923608167026285 1.4745133109928985 -1.6502693467972047
C 0.9750610796728231 0.8093546830480389 -0.9175934722331879
