17
## STRUCTURE-ID: 6456749d598d1f53121f8bd3 ; CHARGE = 0; SPIN = 1
C -1.6289420438255073 0.7001831268481914 -0.870382413151906
H -2.0666697756940877 1.0771858784489279 0.05174993147970314
H -2.0180653217624527 1.2565300189492083 -1.7270868607478247
H -1.8492296374880282 -0.36015965597667765 -0.9895780894523679
O 1.8115534638178312 -3.145207189994298 1.0786004641252673
C 0.003181101901404446 -1.292227504505443 1.8488484733704547
H -0.23232344504003669 -2.3037907809786855 2.1516072222536082
H -0.8857176345482796 -0.685638031698576 1.7319487841653156
H 0.7100147944283653 -0.8537456851485502 2.542144808169388
H 2.342297341053986 -3.703095578316949 0.5107438240739453
Rh 0.484773779288427 0.9796543391589986 -0.9623373334539084
I 0.8393434771942259 -0.12125463369763521 -3.3016785496494125
I 0.960633369565782 -1.4497757975985106 -0.05019809663454818
O 0.646851658831384 2.0573012167473688 1.806276191718772
C 0.5187628396940281 1.6541931115809492 0.7472456102234346
O -0.05024041662266916 3.4764473600996317 -2.634505420369904
C 0.4137764492053635 2.713399806081919 -1.9333985461198637
