18
## STRUCTURE-ID: 645688e1aad76c4edb2648aa ; CHARGE = -1; SPIN = 1
I -2.950436379636442 0.31904773372561024 -0.33133509863393973
C -1.7021944309028247 -2.9047556238451477 1.8498066879021033
H -2.609011750105136 -3.436072313472402 1.5607658068920545
H -1.9224940341487244 -2.173206494231388 2.6262461049604986
H -0.9755386804449906 -3.6263000331890627 2.2264908877063068
O 1.014954906487284 2.3592648966957115 -3.365108532773942
C 2.1547532462128287 2.1350468349186404 -0.8795144754197102
H 2.5818312026621806 2.683577770279533 -1.7057136185322619
H 2.72341971555791 1.2375580134822395 -0.6639561003834878
H 2.0585081775591085 2.7506042524894405 0.007826114276084206
H 0.3750185740630553 2.341276195689662 -4.077137873671377
Rh -0.49102136100835697 -0.4693371434625409 0.28039771828606336
I 1.826352540871912 -1.2093650758246377 1.3374644886701477
I 0.19625918814409238 1.5651415297270037 -1.477190962238677
O -0.06223950542764138 2.1423186550219544 1.6082870488040446
C -0.1651372007164735 1.2852849114682496 0.8070120003747254
O -0.9313407363419364 -2.7426678787288243 -0.4496053207419111
C -1.1216834728258154 -2.257416230744044 0.6452651245232974
