18
## STRUCTURE-ID: 6456736de38c90381f12b09b ; CHARGE = -1; SPIN = 1
I 0.36557976665436237 -2.7680898761883173 -0.542027956635068
C -1.149531766340153 0.9256615684759764 -0.5304844419980624
H -1.7010089644074589 0.23021190063226882 0.11542301724775238
H -1.7910880319973201 1.2423765972912917 -1.3533892476493279
H -0.8619975092104258 1.8069510328064593 0.045079711144887145
O 0.8292941628921864 2.668653408088289 -1.8703484971986306
C -0.27033277873772976 -1.9364287381674485 3.542694309477692
H 0.5079274175438803 -1.184884059498701 3.5031384702788517
H -0.16358309272234028 -2.637750307518814 2.7249203935703354
H -0.2764669371789824 -2.4471700486227985 4.495642755499364
H 1.3772884427658227 3.3449871206727857 -2.3206941015148117
Rh 0.5506283891941975 -0.1347749217189925 -1.1273395320937902
I -2.152310323951704 -0.9456634765671889 3.316061509439505
I 1.9438150702306236 0.4624084778256906 1.0015156536986158
O -0.6678454211362064 -0.76539337320331 -3.7605376692610077
C -0.24617616999167088 -0.5201534235006838 -2.719585046219552
O 2.3663200655921357 1.202486140280567 -2.56657932228739
C 1.3394876808008027 1.4565719789128848 -1.9534900054993287
