18
## STRUCTURE-ID: 64568a09cdee170a9511298a ; CHARGE = -1; SPIN = 1
I -2.0599307883254134 -1.560722592392983 0.24283781885600828
C -2.8504512925048657 -0.05626975217794946 -1.1337281466543103
H -2.701220251076092 -0.4241837700545066 -2.141497827588753
H -2.308547482608669 0.8680857142661421 -0.9612327057026813
H -3.9023633065282817 0.06350556973231451 -0.9074806498318154
O 2.658496340696446 -0.09105329711069139 3.122889933948727
C 0.7084809420613019 0.6946421645382699 -2.9486133301687354
H 1.5023476545677559 0.9555071480397296 -3.6369370119703652
H 0.3934080723818815 1.556527041922805 -2.3687830090681907
H -0.12668266756735416 0.23479286712614844 -3.462569979541327
H 3.4872656329093625 -0.5134259254242629 2.83472392313582
Rh 0.5027089544540554 -0.3375079513979277 0.9238795619307827
I 0.017554096508933793 2.268703200049802 0.624270703464312
I 1.5195039762370288 -0.7735323858659898 -1.5405560543300696
O 1.7657534037908098 -1.9396610417476854 2.123308506052553
C 1.5879210039421947 -0.8204375984291549 2.6803455978552355
O -0.449441208397802 0.10152981075088506 3.7436389560044714
C 0.25519691945872264 -0.22649920182494315 2.805503713608337
