18
## STRUCTURE-ID: 64568ab2bd6edb6f872cdf74 ; CHARGE = -1; SPIN = 1
I -1.951900096406017 -0.6982888350401876 -2.923541155295325
C -2.3257213152372533 0.7491024455745467 -0.26410602428875196
H -2.0548055182992435 1.4577853783746544 0.5210158615966268
H -3.2068029662768818 1.1294319050806212 -0.7805966028472973
H -2.5690990146745873 -0.21952395324845475 0.17357525972985732
O 1.1299516036885824 -1.562282353151348 -2.9425086382567285
C 1.0653934084818626 0.253941262852911 3.532576462803214
H 1.4939745014813923 -0.6717717063649359 3.1643426371725596
H 0.09230663854567293 0.07489159656237834 3.9734727774454868
H 1.7308495040299945 0.7551978296805777 4.223924192536079
H 1.8123579298046453 -1.8258211107185804 -3.591016865708055
Rh 0.6085017217073193 0.01948251785713929 -0.5508773842246619
I 0.7595162538797218 -2.31008371728449 0.61524644456894
I 0.7811862121729158 1.5778443638787119 1.8242398834778362
O 2.7091075743104573 -0.2311772367708369 -2.058353593777912
C 1.5634507993734736 -0.6792232601574866 -2.057006904271857
O -0.4528956916838922 1.564200085747996 -1.615687107599106
C -1.1853715448981765 0.6162947871267932 -1.2446992430609192
