18
## STRUCTURE-ID: 64568bbe78687869ec5c0afd ; CHARGE = -1; SPIN = 1
I -2.981592860753797 -0.2817739076658178 -1.8109270614674842
C -1.3320247278550439 2.122811317787399 0.233411748067922
H -2.2571466036692667 2.540813449056823 -0.16517981715005248
H -1.5878900493606816 1.6214157465214987 1.176285179635127
H -0.6396813509737459 2.9334363088538336 0.4639431449024087
O 1.8275558913404693 -0.09599055465105127 0.8656095435188906
C 0.5578058229754156 -3.2354155179382937 0.9903759993237485
H 1.5332180413067924 -2.772048471104431 0.8996514334410802
H 0.29133415503994653 -3.752809985007594 0.0750715160073558
H 0.4940667826901125 -3.88525017636319 1.8548566079891018
H 2.7016742688779356 0.19294861261220175 1.1980499458256229
Rh -0.4925031481347319 0.2977594092551883 -0.7012556463646441
I -0.8799018485614155 -1.6371792312651012 1.278152308921961
I 0.8862739441053368 -1.3772908334671652 -2.298130187089965
O -0.6279728900515492 2.7814507313327304 -2.3212220661492347
C -0.5998155549633463 1.8689635095766934 -1.6106070773770893
O 1.837455715857978 1.8655045334439444 -0.1807131260985741
C 1.2691444121295923 0.812655059022328 0.052627554063844714
