18
## STRUCTURE-ID: 64566f756923ef67666cdb40 ; CHARGE = -1; SPIN = 1
I -1.868820844374427 0.6361838532274682 2.413105083471886
C -2.5940585605314337 -0.9731095343276477 0.5709607016143143
H -2.5318980458617633 -0.3914908022437896 -0.3402918301202803
H -3.5776928908526124 -0.9349244100682448 1.0121933569214014
H -2.2542823889447 -2.001381942446199 0.488935273820954
O 0.05775352017434758 3.1625716494201352 -2.0932345653821693
C 1.8035031793431624 1.118394094467351 -1.5803991670168298
H 2.0862150675688587 2.0835249298119054 -1.97329988396555
H 1.65756566440818 0.40896941741401505 -2.3862306800399122
H 2.5340936763407873 0.7533083503345531 -0.8665700011697848
H -0.689449015878341 3.7481176775845917 -1.9755255422409632
Rh -0.004665864387924125 -0.7359333278295312 1.070336731920354
I 2.3089830197730272 0.47175742716473623 2.4401008955410246
I -0.026267826695164878 1.3918061296561097 -0.5619327184340166
O 1.5208317927878943 -2.026514986096345 -1.1803654946042135
C 0.8523219360477036 -1.584671527607344 -0.3500435844314795
O 0.5499656845065559 -2.9662531939002643 3.0186073924739127
C 0.17590189657587674 -2.1603538045614465 2.2936540316413714
