12
## STRUCTURE-ID: 6456658f75002324e82eaabb ; CHARGE = 0; SPIN = 1
O -0.6333970392145364 0.5467711372477044 0.7271232466165319
C -1.385829635340058 -0.054918358039066105 -0.3478672080717644
H -2.274759690931195 0.5496445466513967 -0.5104305497133105
H -1.6464288300018572 -1.0889236512369345 -0.12622149728948776
H -0.7465685726500332 -0.029825472785115846 -1.2313708016550637
H -1.1387829975103292 0.45216223853178594 1.5668274725956637
O 1.5783256712473563 0.005998925037227244 -1.7685338786804372
C 0.6832269431104843 -0.038871982860821476 0.8769049299516876
H 0.6260334863705177 -1.0648262720780597 1.2305233841598504
H 1.2482087633078012 0.5860304574323119 1.5596334687384896
H 1.1627952800027261 -0.022492613332654468 -0.16188217468143593
H 2.527176621609126 0.15925104543222363 -1.8147063919707176
