13
## STRUCTURE-ID: 645673af0d683270f87c7c3a ; CHARGE = -1; SPIN = 1
I -1.7277138291704404 1.152589793912649 2.109142368505804
C -1.3445462878511345 -0.7233608002083932 -0.7226235115126884
H -1.7355226555345322 0.034587628128379455 -1.4028946240852953
H -2.1656662122844312 -1.100302583391669 -0.11151399008459906
H -0.9365875716401975 -1.5459228810233683 -1.3129285258281052
O 1.197635351979926 2.5785612435350993 -2.0713508279776405
Rh 0.15488010498344465 0.16514326676423685 0.529582523615959
I 2.3090268550850483 1.0746810667288889 2.0971223855013394
I -0.030767361261102813 2.529820796186358 -0.6680522517094333
O 2.3119149459643578 -0.27405067091784807 -1.4905073539811806
C 1.470438338001726 -0.18695603353968104 -0.7306304708761766
O 0.28247266961025064 -2.304935242663288 2.2274043461951316
C 0.21443565211710366 -1.3998555835113191 1.5472499322368491
