21
## STRUCTURE-ID: 645675352a006d342c1d80c4 ; CHARGE = -1; SPIN = 1
H 0.9769501166116473 2.3458536891785333 -1.9625138765386498
I -3.6583185055655627 0.8810000557600158 -1.9125060854689406
O -0.27360491317684255 2.0587490738117125 1.8880597511392707
C -1.925912386217864 -0.21271171443812711 -1.3189299205103864
H -1.0510588591957692 0.3865722266002633 -1.5421180648061388
H -1.9086716386950338 -1.1413393335554012 -1.8740827553864432
H -1.9944960776705163 -0.3949840293760476 -0.25392204288653797
H -1.1483001893148743 2.0809109769624463 2.3268411302028285
O 0.8905023309482536 1.387538518040992 -1.9166406372858902
C -0.537944989199776 -3.024737740012164 0.6270207192290275
H -0.22585124836980802 -3.9138838278504244 1.1597627810570943
H -1.1510470599033038 -3.2801359406485453 -0.22746479904728925
H -1.05272980220638 -2.339409827334392 1.289207452823673
H 1.5552304647139465 1.029589925054068 -2.520289702999057
Rh 1.7473536658124529 0.49121575618323876 0.5577984743888922
I 4.023019042338465 -0.02839111232653298 -0.7628978437079666
I 1.2280932902220842 -2.0002034097850605 -0.06239795963899491
O -0.7564195769410238 -0.09988302966380272 1.8497704047087835
C 0.061829417281075334 0.779219699311195 1.5421073533848075
O 2.8279172026989814 2.963913337763548 1.817565269936325
C 2.373459715829844 2.0311167063244566 1.295630351405636
