12
## STRUCTURE-ID: 645664f26d63f510a40876f3 ; CHARGE = 0; SPIN = 1
O -3.086873336410667 -0.7331945348393424 -0.0891031847238682
C -0.7260196789383253 0.24332437636237927 -0.27605206651469855
H -0.810350050796586 0.5261100621378614 -1.3188045807820385
H -1.3613166372749907 -0.61606701439321 -0.0430523409979157
H -0.9829301108912 1.0837702609149156 0.35757458079608884
H -3.393986826836686 -0.4248353880321445 -0.9421383454718242
O 2.127886172466424 -0.7250496503171392 1.0578706026725748
C 1.791093090027919 0.09757796311495777 0.0712087644906913
H 2.1145395072437685 -0.27555859868598215 -0.8954426275124031
H 1.9006108259272179 1.1666745968305041 0.22826676684775923
H 0.40635780152789586 -0.00405612895175971 -0.09311872887650668
H 2.0209892439552166 -0.3386959441410611 1.9427911600721763
