13
## STRUCTURE-ID: 64566c48ce87c04f8315986a ; CHARGE = -1; SPIN = 1
O -0.5553272008144026 1.6348427217779635 -0.21610583474948641
C -2.2739801044471672 -0.9410375039332852 0.5220683956360157
H -2.573990393732015 -1.4236744114038606 -0.4000841301118595
H -2.0452660530500837 0.10858651817623531 0.3570539768589041
H -3.0084579325042604 -1.0709208457023809 1.3053126677604037
H -0.9626058991941527 1.8442723460761863 -1.0630289396225447
Rh 1.1239299203287063 0.45595818984340675 -0.42044202663841335
I 0.2350125358951669 -0.44769652194644594 -2.7184343395667985
I -0.43737605277910907 -1.858801048894748 1.1734516210139165
O 2.3215162979328277 1.9026487521906632 1.905517908786221
C 1.8324150486390787 1.3335804784481753 1.029023370634628
O 3.6746189128044553 -1.0408168699239555 -0.8274009517482314
C 2.6695109209209607 -0.4969418047079535 -0.6469317182527586
