8
## STRUCTURE-ID: 6456642bb6791666646aac6b ; CHARGE = 0; SPIN = 1
H -1.400336139137878 1.9613535872318302 -0.581694463961885
I -0.22324233996816634 -0.9817643008708795 3.4977868520053366
O 0.6737464841296612 -0.7647631140574052 0.074381841584671
C 0.5530989161577545 -0.3311488130378401 -1.0410815134472169
H -0.2126331451889652 -0.7089481958955643 -1.733478240716488
H 1.2262424724272976 0.4405669955416229 -1.4407108948857235
H -0.8895749044430946 1.3987064818364945 -0.7810848350507172
H 0.2726986560233951 -1.0140026407482512 2.0058812544720364
