12
## STRUCTURE-ID: 64566b98682b56653267100b ; CHARGE = 0; SPIN = 1
O -1.4982828631028522 -0.05051279521187299 0.8870562494715756
C -0.9956883727736052 -0.9989565609557355 1.7981675296831865
H -1.8455063151285716 -1.3739469376626352 2.3678466059535626
H -0.2746417079719688 -0.5485892789232231 2.4879854789099602
H -0.5163886491612567 -1.8366697177284748 1.2807013388775603
H 0.2670379293839487 0.9422375746299823 -2.4939175103687514
O 0.7933606720213899 0.9485664561018702 -0.4836196764375218
C 1.0050724821830657 0.5116482862992191 -1.8116589563281293
H 0.8945801231362284 -0.5710371540940419 -1.8074093708869852
H 2.011086186650413 0.7652930791403096 -2.1553764579797043
H 0.9056757368685977 1.9065038796129463 -0.44875831145245737
H -0.7463052221053849 0.305463168791652 0.37898308055770924
