12
## STRUCTURE-ID: 645668509d51a069593288b6 ; CHARGE = 0; SPIN = 1
O -1.625713356525842 -0.1654166154325919 -0.7967697579920687
C -1.3736038479296042 0.03308011473186254 0.527032792519486
H -0.19233808384573464 0.02772284159087926 0.5940793848150083
H -1.7787639560733648 -0.7687208499262143 1.146341382860046
H -1.6626908331027836 1.0254934779992626 0.8942906215511763
H -0.7701678312063279 0.2826606773280752 -1.2314101260171153
O 0.6000728834708401 0.7339652241617975 -1.2917560512162585
C 1.2614843822724633 -0.2478117084735343 0.44965264462413385
H 1.9968739122349628 0.5253770947742521 0.3060986267323017
H 1.413015546816649 -1.1337303652683788 -0.1431795721138779
H 1.146390523600462 -0.48088177464331516 1.5069114012685523
H 0.9854406602882866 0.16826188315791696 -1.9612913470313902
