17
## STRUCTURE-ID: 6456b66ef487726432051b7a ; CHARGE = -1; SPIN = 1
C -1.7334001351855124 2.2638691169211023 -0.48227036103342985
O -2.708078744368227 2.8709717214699655 -0.4440823421667476
Rh -0.07528947484356086 1.4130978991046763 -0.7619421434742615
I -1.1745042274050372 -0.12301834869059176 -2.6454422962444166
I 0.3901608918284825 3.9196978729880834 -2.470411133797713
O 1.794237229229852 2.59924287543637 1.2499633393485123
C 0.9930892441419265 2.1286252685893805 0.564764287935321
O 2.5766356260776755 0.9732011902984059 -1.8978204223136395
C 1.6719514681831509 0.539011258235316 -1.1936443609931104
H -0.5714020356854366 -1.841369256266392 -0.2419397199900163
I -0.6679869317526409 -0.8713974134308454 1.0089619393272677
O 1.8503983295707602 -0.7004526539475644 -0.6403144146028674
C -1.204235698231307 -2.814935189475642 2.09967801046468
H -2.1398222790253825 -3.1653698449337555 1.681138073351858
H -1.3074825409424342 -2.5722119658022455 3.149760313662404
H -0.392334996434172 -3.5117468884426746 1.9326649982535469
H 2.6980642748418484 -1.1072156420535917 -0.9090637677273617
