18
## STRUCTURE-ID: 64568bb1271bfe2f4967f9c0 ; CHARGE = -1; SPIN = 1
I -2.2874018604978965 -1.9138512601085844 1.276217525745216
C -2.471938171434635 0.40536764818712556 -1.4122722362368203
H -2.5488263854717714 1.109565188269529 -2.245378578244589
H -2.9438867022118846 0.8587631038979117 -0.5332448232644604
H -3.0504111591026994 -0.48702683566318855 -1.6479181942079744
O 0.6596201889401428 -1.2295967388335247 1.4841721148824243
C 3.1213509319285606 1.0641153843489781 1.249769070448545
H 3.0748511897995594 0.13616741573589955 1.8086673265292994
H 2.5118755913136854 1.8340431784042324 1.7120107366632584
H 4.142406144071421 1.3962846478127373 1.106340713739323
H 0.19876139868405987 -0.6718089920916707 2.14081421357684
Rh -0.4460899349504238 0.315723486497423 -0.5087405937986693
I 2.288312961183537 0.6580376522553212 -0.725469374740939
I -0.6923154038651188 2.069929870293173 1.4669644899231573
O -0.8930162046641447 -1.0892327895353924 -3.1040521804750307
C -0.8051473545064909 -0.5361887650974761 -2.0884283869681135
O 0.23764100822229006 -2.405459037013062 -0.37116616415354364
C -0.09578623743820341 -1.5148331573594236 0.3917143405820881
