18
## STRUCTURE-ID: 645672381056dc5c2c374190 ; CHARGE = -1; SPIN = 1
I -4.200924167513361 -0.3408984224311092 -1.1322066072111843
C -1.5950659985405136 -0.017247244945606494 -0.7631978172399929
H -1.8062629025892292 1.035297909521137 -0.8323689248613594
H -1.4706280292700264 -0.5925196896411556 -1.6630914399712162
H -1.7489973146664104 -0.5281812150913711 0.17400995978962655
O 0.5825534096873438 -1.2852194709746738 -2.737384977414469
C 0.2702693277270445 0.32177961786577236 3.7167204001433785
H 1.1977187844006365 -0.23893862368686689 3.7428732761599615
H -0.5722676050687495 -0.3437003677341795 3.5676144397581324
H 0.14404723216667986 0.938239776498191 4.598578731318754
H 1.036440973087093 -1.7300586067406045 -3.480743771384136
Rh 0.7377071649025295 0.24059072854378533 -0.33246821251100683
I 1.0930427701091783 -2.022769580762937 0.901866110811038
I 0.36040504326995587 1.665690278202096 1.9999123851944443
O 2.6455762685223343 -0.6599917950984763 -2.1728394405701628
C 1.4482982634693295 -0.6619759967657677 -1.9227068556092959
O 1.0343385042830067 2.523733523171055 -2.2246808201184023
C 0.8437482760231391 1.6961691800708 -1.4398864362841202
