13
## STRUCTURE-ID: 64566e177071bc2ea11dbe9a ; CHARGE = 0; SPIN = 1
Rh -2.306820417815006 0.1961669316902026 0.07409773379957459
I -1.0747879732054872 1.9217239947133977 -1.426798341488248
I -1.3540916025145744 1.13657856399702 2.327077624697914
O -3.7726878123222005 -1.8646298690896026 1.6618212457093053
C -3.1984136210334286 -1.07381619471428 1.056581967849105
O -3.4726121087208432 -0.879998837637791 -2.4530455689629433
C -3.012972145427677 -0.4803261585440019 -1.4788181661196962
H 1.5739451868237782 1.591053581454985 0.5986809090992504
I 1.6049626281667422 0.020799748017440455 0.8151114627092413
C 3.5404245707691766 -0.1215816012173718 -0.18429800560454385
H 3.8284705556032823 -1.1687225035961157 -0.17439273115891263
H 3.4030101245973996 0.2393668856845652 -1.1999037044430532
H 4.241572615078956 0.48338545924161197 0.3838855739130229
