12
## STRUCTURE-ID: 645667d9c969072a9e3eadde ; CHARGE = 0; SPIN = 1
O -2.070267815506459 -1.406075132082078 -1.5493566774372287
C -1.6451539113125568 -0.3000192957900169 -0.8150074100650527
H -1.6588888079986899 -0.5006515257197724 0.2651298713079499
H -2.3613478314084397 0.5010540653446225 -1.0442512975131852
H 2.993405081490286 0.8314287143556243 1.2075808052470025
H -1.5048593707782156 -2.164522587565579 -1.3483585985614306
O -0.3366838345909404 0.07921698330238129 -1.1110876111195809
C 1.9695984940965128 0.6930166307708334 1.529350263763995
H 1.9248858706486767 -0.1144171549195575 2.248495310174036
H 1.3510525664703412 0.45374429307417746 0.6738785276574247
H 1.6104191833670833 1.6047285793285904 1.9886235458024235
H -0.2721596244776963 0.32249642990085003 -2.0449967292563835
