12
## STRUCTURE-ID: 6456666c8134a962b719eb6e ; CHARGE = 0; SPIN = 1
O -2.6943098373837118 -0.2047529981826455 -0.6790722773550991
C -0.18561710838797427 0.3478535791813091 1.3691746788913448
H -0.398557578582066 1.2377921123456357 1.9559364682400378
H -1.0483290536865124 0.17492235167378564 0.7226515002460501
H -3.621882076698009 -0.2871109622579154 -0.4417242101709519
H -2.598746279547356 -0.5548150444078802 -1.5683134404844858
O 1.9631320869883884 -0.11855464234007052 0.4070638709795738
C 0.9902990038705577 0.5904034911192437 0.5018617289636943
H 0.9205639027618802 1.5131582432936728 -0.10657858776804253
H 3.2244333938171135 -1.009556193981902 -1.728958566531792
H 3.4784020150664574 -1.17698634676331 -2.4456224230837997
H -0.029388468218771963 -0.5123535896799076 2.0135812580735117
