21
## STRUCTURE-ID: 64567a25e242e403136c2b54 ; CHARGE = -1; SPIN = 1
H -2.4794154684961485 3.6305196524785486 1.6367442568013175
I 1.3155862854851148 1.9147739764784495 -0.6070091874416319
O -0.3894395364889283 -3.0029284243184717 1.2586581049045933
C 0.6566737622589438 -0.42800291478746555 -4.105111574563869
H 1.4310615396802104 -1.1777643491188843 -4.205820804996868
H -0.07471786705795834 -0.5399100322025893 -4.8939293775764465
H 1.0993172431317477 0.5584181818540211 -4.148999224863587
H -0.7526798552969038 -3.700945840215408 1.8438869531543738
O -0.6334397758829623 -1.0114947905867844 -0.7859647666935232
C -1.5319664102317299 3.1138935381614172 1.745880954668085
H 0.16818789670692524 -0.5495248652410434 -3.1448437692703064
H -1.1412822492172325 3.2039749427405404 2.753562996338506
H -0.8107158700869295 3.453310972244593 1.0068531072618776
H -0.6251890131598486 -1.9618195244251835 -0.931652203097671
Rh 0.44927804761195417 -0.30780411926335755 0.8035372149797964
I -1.9192039396411462 0.9962963243783103 1.3676906903863493
I 2.5435133103460905 -1.7980233274200734 0.13844945199107264
O 2.0325652232701428 0.7825423611042204 3.0942349594823635
C 1.402587605267025 0.3781128404884043 2.224078402158783
O -0.5116951958409163 -1.7074571536349068 3.062348555829337
C -0.22902573235743529 -1.8461674487143411 1.8874052605474505
