18
## STRUCTURE-ID: 645689abbdcf1f473f3dae4a ; CHARGE = -1; SPIN = 1
I 0.0726268450711071 2.1081064038639505 2.7354224748499494
C -2.0198797400766653 0.9151066704196078 0.3941714430783045
H -2.4393081273184487 0.26973492153965506 -0.38357942591069993
H -2.386765043509242 1.9393885067302263 0.23792410175606968
H -2.380063685899714 0.5626600943462936 1.3627961470706622
O -0.5557279393222775 -1.1480660599770627 -2.329383083834244
C 1.563069665245287 -1.7487483526609011 2.356507622468878
H 1.6351882146895387 -2.8067174645729236 2.582953333567818
H 1.1033521820973051 -1.1943402885890604 3.168211068589462
H 2.5294145053209793 -1.3279154397229314 2.0954939938629034
H -0.4242488198510886 -1.8652316510649931 -2.9846942363963045
Rh 0.06409685145989258 1.0441517210250058 0.2561650285163002
I 2.7664247755981624 1.352165411179052 -0.14149979562753645
I 0.28208374163091926 -1.5489528188316588 0.6096279926526577
O 0.6551114223155924 0.14658667825665556 -3.697536974899447
C 0.03117139146374793 -0.017161467339290807 -2.6755756595834095
O -0.3719092083592437 2.2386454543884233 -1.9423677396359358
C -0.12463703055580434 1.0805876810099655 -1.6446362905253806
