12
## STRUCTURE-ID: 6456695340fea46cf94d303b ; CHARGE = 0; SPIN = 1
O -1.7222205548300074 -0.7248785801742134 -0.6695937487519972
C -1.0134800603283942 -0.4485206921670295 0.31977358396592054
H -2.225377482016161 2.2597059046348575 0.7439446529225078
H -1.443483228932971 -0.6002110064856785 1.3096549665342059
H -1.8806081806157076 1.547409753447862 0.7579721257725471
H -1.2470254163980057 -0.5965116611658963 -1.5366804246079893
O 0.6612931274665158 0.043335542376484196 -1.206814375189707
C 0.3946811966711376 -0.06956143219421083 0.16349732032530154
H 5.254612435583643 -1.5704547779703701 0.11643723027652686
H 0.9909839000314858 -0.8647661480665232 0.6506782163113224
H 0.6311124741315984 0.8481364169140668 0.7240341302443475
H 1.5995117892368762 0.1763166808506763 -1.3729036778029806
