16
## STRUCTURE-ID: 6456795a66578200ba4d302a ; CHARGE = -1; SPIN = 1
H -3.5379971265941927 1.832069809548787 1.2603409718362502
I -2.20692223256763 0.8203032090807143 1.3401805802045768
O -0.42222313492569646 -0.5791022746525443 1.2108874685285496
C -2.1148633756524653 0.9618156187460808 -0.7814145365508651
H -1.3843488911289454 0.23477313660109506 -1.1131480134187537
H -1.79625893079267 1.965081679447429 -1.0365754910123308
H -3.0989253780962054 0.7341584270486493 -1.1705077442701726
H -0.7270200171156966 -1.4536370537164178 1.475755355285152
O 0.3510910159845907 -1.1889994723187005 -1.5608819660327864
Rh 1.7764665196737854 -0.6306801400323406 0.7372847222141361
I 4.347937627990498 -0.10725376255264038 1.1610238866918172
I 1.8536252738097372 -3.102132528269353 1.5714910173473255
O 2.5989720042975946 -1.4613960496643803 -1.7196194273259262
C 1.5145514543011074 -1.2164407089299132 -1.2827662064855023
O 1.2920516772401711 2.1184029879283517 -0.25418209134729614
C 1.5538635135759482 1.0730371217352563 0.16213147433571076
