12
## STRUCTURE-ID: 645667ddfde4b8635a09292b ; CHARGE = 0; SPIN = 1
O -1.227137217522151 0.3949844229914561 -2.417572232766093
C -0.6770390351136276 -0.3900842207125498 1.208383549717833
H -0.5945375354789904 -1.4764145905879378 1.09321031999639
H -1.719381079834713 -0.09194043895126297 1.1238390329733314
H -0.29121743881706563 -0.10514602124623237 2.1930255013769524
H -1.3954488509918699 1.3339401259752777 -2.5272604295894903
O 0.022675709056825255 0.28086567408774793 0.18252376506322762
C 1.4037464409906295 -0.010915024307860918 0.1806529857445825
H 1.843044443188027 0.557064705752155 -0.6360002008567209
H 1.577852745788387 -1.0805498224126462 0.020339653262402876
H 1.865888405054678 0.28803262312821065 1.1275577919490316
H -0.808446586320062 0.30016256628366844 -1.5486997368714528
