13
## STRUCTURE-ID: 645671b9c738ca6e077b924d ; CHARGE = -1; SPIN = 3
I -1.4293614518890685 -0.8293020416366652 1.5053026698453744
O -0.3326682784484455 -2.32912494331456 -1.4501689928587023
C 0.09040127861556356 1.3773077612828482 2.8151115865933507
H 0.932611799080649 0.820690843408696 3.1904657673004153
H -0.5565824948284841 1.860015163255507 3.5250508322998777
H -0.2795139380035025 -3.0342571886723197 -2.128363342654742
Rh 0.27568761644395917 0.23839344786979827 -0.46662121916512167
I 2.571085802205727 -0.7152152470622771 0.3584447506661455
I 0.5573565133039604 2.5628976493022524 1.1432301483398182
O 0.7932023572011565 -1.0706836339301622 -2.911636444462221
C 0.27016567523361484 -1.2031775224805143 -1.818734063702911
O -1.852575877480816 1.3551574368038508 -2.2420656203128035
C -1.0398090014343173 0.9672982751735438 -1.5200160718884856
