12
## STRUCTURE-ID: 6456677325fc86336c224148 ; CHARGE = 0; SPIN = 1
O -1.3229481785707984 0.30140657210594907 0.46579040380595427
C -0.9341347606300974 -0.3891610816990585 1.6352515565237538
H 0.07235276101208667 -0.053750652238095366 1.8783741785075334
H -0.9203791128185546 -1.4706144820204168 1.4723667100419398
H -1.5960233361179395 -0.15635285615252076 2.4733484266465546
H -2.2221339346867723 0.04225652525966373 0.2313229230873469
O 0.7922803551595827 1.300358189321608 -1.2114247001168676
C 1.3969301384820387 0.06361847432255506 -1.5097433180558757
H 2.254383831701003 0.2743705767005645 -2.147782277511207
H 0.7096308069330771 -0.5990777590407287 -2.0452830648032987
H 1.7448295582254953 -0.441588499349279 -0.6028661665385904
H 0.02521187131086786 1.1285349927897572 -0.6393546715872306
