12
## STRUCTURE-ID: 645666ef206dc623da224148 ; CHARGE = 0; SPIN = 1
O -1.9933486558175297 -0.6457089637101349 0.12787420912031328
C -1.457530352845255 0.017301709282083227 1.255425404614843
H -1.759915990195434 1.0601832664692308 1.175517994850811
H -0.36592517908818883 -0.04043926622194295 1.2682347648204453
H -1.855320358146278 -0.397490877372115 2.1867418173775324
H -1.7279502930012647 -1.572106829686437 0.16565727398802937
O 1.7294339375583607 -0.21619372184711164 -0.07836605382802483
C 1.2860058814681812 0.3756747470350092 -1.2814571738072296
H 1.688495803576974 -0.1454717015717077 -2.155199921414686
H 1.5638666379302475 1.432768614934002 -1.3316373082084123
H 0.2001725609504445 0.29550550743684995 -1.2911947414532716
H 2.692016007609768 -0.16402248474769757 -0.04159626606042143
