13
## STRUCTURE-ID: 64568b166eaacc1c0d0b3f60 ; CHARGE = -1; SPIN = 3
I -0.7334723846454875 -1.1294224513141495 1.91732880353656
O -0.6381880999021647 -2.0373739310307877 -1.7412818315351792
C -0.17931618783175404 1.5347542590255252 2.6593963659827247
H 0.2405321277720752 1.4341705220182455 3.6458278672644244
H -1.1570217768807733 1.9810946740155684 2.5878790558937177
H -0.563684970844411 -2.6654143724763646 -2.4886772621801585
Rh 0.6876650320453213 -0.047677333469183805 -0.21001651910791266
I 3.0579165781296496 -1.1103451173653502 0.044150925797197815
I 1.1863696017218925 2.33072769154418 1.2598508984333008
O 0.6628655984867312 -0.6742565473513717 -2.9661544071922727
C 0.06390986127881955 -0.9191995112596038 -1.9310575230635045
O -1.797453147180576 0.8461969656422 -1.658131171747202
C -0.830122232149276 0.4567451520210906 -1.1191152020817374
