17
## STRUCTURE-ID: 64568d11d1d45f3c011a5620 ; CHARGE = 0; SPIN = 1
C -1.4740313931077866 -1.1766124729863905 0.604524093745299
H -2.0690977160256256 -0.28802471998869256 0.418248954220086
H -1.5366885413550992 -1.834026123677651 -0.27591054618354777
H -1.851640354422802 -1.7076238603106835 1.476758020438726
O 1.7960164663202414 2.5529885546533957 -2.025526636756275
C -0.6859177676473042 1.975850713504746 -0.9953565353788946
H -0.48443745423673407 2.8499743434694196 -1.6002282866228439
H -0.6888473955415222 2.224562422866194 0.058759197909751454
H -1.6031137216417328 1.4862929659881914 -1.3001930613748156
H 2.6273799735577983 2.415338714856393 -2.4798668749459125
Rh 0.7575343963696544 -1.1515754619823044 0.4963490664776948
I 1.7146094245973573 -2.8108547276947564 -1.3288990205544913
I 0.9327979219240053 0.6325683640568921 -1.3785261774598219
O -0.5362400673574585 0.6542531691977367 2.4813998756947173
C -0.12451806536782967 -0.07416607015794567 1.6953501671517104
O 1.7938767779274774 -3.3221258555470388 2.376854579032071
C 1.4323175160073518 -2.4268199562475194 1.7762631846065093
