13
## STRUCTURE-ID: 64568c340282380c8f32dfd0 ; CHARGE = -1; SPIN = 1
I -1.3266729824079608 -2.728524776927177 -0.8339893874033383
C -1.1635470645669572 0.9469222316996024 0.37114041136014914
H -2.0498027997344592 0.3093148259594473 0.2493670143770306
H -1.2254583053757806 1.7373250771003346 -0.37701221562265463
H -1.190005960468908 1.376422615741493 1.3717412286400144
O 1.0869542922253213 1.5808121915910884 -2.7849854557871003
Rh 0.2718141302591694 -0.7222797573673839 -0.04795662960197329
I 2.6252169010164077 -2.0527873961010235 -0.4134012276926408
I 0.19928506320114525 -0.051427714446566505 -2.613611219192563
O 0.30866524088721553 -1.9868966411251094 2.675125879716669
C 0.2605829702274499 -1.4415942288168766 1.6799567996856175
O 1.355185975526464 2.0265561542993304 0.43061577418348523
C 0.8477825392109009 1.0061574183928497 0.29300902733730677
