12
## STRUCTURE-ID: 645666052e0b46394f242a3b ; CHARGE = 0; SPIN = 1
O -0.7252385878534201 -0.7055473313727534 0.9917628886427265
C -0.6561858797598475 -0.5980899632997707 -0.3259357193421838
H -1.3326587192408927 0.09416792031817052 -0.8274709387751479
H -0.5794372159349649 -1.5746448600079654 -0.8047962148285349
H -1.066926625147637 0.08421995743790574 1.444636657560312
H -4.94670242261565 2.231669601191196 -1.6575913871366048
O 1.510230929707523 0.10518968961535446 1.2349809270611207
C 1.6254205080125332 0.27448977938136127 -0.06683966286116991
H 0.48933379453122317 -0.08750643444120014 -0.5834487227235001
H 2.3231354387216774 -0.35875412630987175 -0.6161571903201948
H 1.650267542438407 1.3297230639913191 -0.33999454120295375
H 1.7087612371410972 -0.7949172965037226 1.5508539039261042
