13
## STRUCTURE-ID: 6456885e5f15af13d028a81b ; CHARGE = 0; SPIN = 1
Rh -2.101313565706668 -0.6533473531955939 -0.46813661769065845
I -1.5716463220534753 -0.8407669892837469 -2.9512035490897692
I -2.339993728700444 -2.206343785356637 1.540231220117601
O -0.6239664645485467 1.6683792000199689 0.4452256849354075
C -1.6618539774485777 1.1388548414000361 0.12290767850543659
O -4.13540285608357 1.4443830285321924 -0.1786261698178124
C -3.0014063745682598 1.0572286888886075 -0.10567085802403507
H 1.6789400161933077 -2.1256849150513717 0.4621985720749852
I 0.9898381512461312 -0.6722422646780017 0.45805982478715956
C 2.9820518053902956 0.1946134111949865 0.19743569037305705
H 2.824557881458618 1.2675272444415342 0.12202066704646108
H 3.5664207192388133 -0.06001828204032669 1.0789042924645846
H 3.393774715582369 -0.21258282487166222 -0.7233464356824199
