18
## STRUCTURE-ID: 645689fc2cfa7e6e363eadd8 ; CHARGE = -1; SPIN = 1
I -0.5756190846460953 -0.4257305639281302 2.3871350849563657
C -2.4102081123468233 0.24764565863643984 2.7684758197788493
H 2.118345288076781 0.8102232148836521 -2.434231635936088
H -2.788794623872644 1.0742582298943988 2.1947435840340472
H -3.0832924853383408 -0.36249982702040484 3.341660288299073
O -0.2904385683566668 -1.8394170874134324 0.7540335541574692
C -0.13084853614550815 2.639935625432854 0.4440088263047903
H -0.8478167723956997 2.739087243004658 1.2517920022549915
H -0.03917642629315492 3.5540068560013 -0.13110707367122615
H 0.8353291726511439 2.3164296469480807 0.8191700642616467
H -0.3645949272249739 -2.713707843218204 1.137642390546594
Rh 1.4734460467768475 -0.5170599197783887 -1.7885728866707855
I 2.7996682355313207 -0.042966297755805835 0.4684367648898067
I -0.8640916870875469 1.0856947986247971 -0.9112875324366463
O 1.0095067852950708 -3.387700201616908 -1.1564067951555481
C 1.0691879578754322 -2.227988612910918 -1.242534471897971
O 0.9492532996600728 -1.7622548030923195 -4.449216945602299
C 1.1401444378407848 -1.1879561166916826 -3.453741038112998
