12
## STRUCTURE-ID: 64568815077ff404d962318d ; CHARGE = -1; SPIN = 1
Rh -0.5289376706811789 0.5193352312269512 0.2288264975160202
I -0.7845595110214955 2.06648605574715 -1.9578653897575722
I -3.107356461733639 0.9623551779218449 1.0564115757590793
O -0.3063474965625415 -0.9143990878571803 2.84287960458043
C -0.3588458829391362 -0.4016324301024539 1.8246443000655077
O -0.9542964786151936 -1.7681079532293174 -1.650128979100279
C -0.6871079238049321 -0.902577336329463 -0.9406692827775891
I 0.6219743913246691 2.463456254335522 1.7896348285493453
C 1.2525510673838618 -0.45632255988272974 -0.7237028983534979
H 1.946818032482497 0.28724097531106807 -0.3084290712826644
H 1.3645707743877746 -0.4160097441221584 -1.8068429746021104
H 1.5415371597793173 -1.439824583019235 -0.35475821059666574
