13
## STRUCTURE-ID: 64568b4898d1297e0e5eddf4 ; CHARGE = -1; SPIN = 1
I -2.678781475094298 -4.508247600609661 -0.6752620812632939
O 1.4980599024532821 2.3413779420262024 1.57778590986184
C -2.1516016312016992 -2.48575016143761 -0.34854621880139725
H -2.764253992313099 -1.8626222499072176 -0.9903219804037543
H -2.3130129073521575 -2.251501924281725 0.6978822694572527
H 1.7126772108908626 3.271857793187844 1.7876104738061014
Rh 0.5773981128524963 0.37759924229514735 -0.16810717103512055
I -1.7992719372078905 0.9757298935059405 0.6739836239927648
I -0.05129597936561819 -2.09212263938597 -0.8230118231996356
O 1.0812037311576772 3.1953780790655664 -0.44036441444727675
C 1.0905602953230762 2.2055646933700825 0.28606399720684766
O 3.4598730805801874 0.48962498192155796 -0.9283980851943361
C 2.3384455892770903 0.34311195024967545 -0.64931449997989
