10
## STRUCTURE-ID: 64568d37360706705828a80a ; CHARGE = 0; SPIN = 1
O -1.7787843029193737 -0.07845084179018195 -0.7079302279448098
H -2.370601357731795 0.4475360549144263 -0.15333291961283252
O -0.9158928561977062 0.4625494216912081 1.6443410258648186
H -0.4781293350962072 0.5503179552934342 2.5015811940315222
Rh -0.011196467292498692 -0.22367258244974592 0.14238364471208276
I 2.02937610951682 -1.0318821624883385 1.6284975845929395
O 1.314745605568224 2.124130655994458 -1.0736669051875316
C 0.8463183801554044 1.1873554991021456 -0.6416443653999993
O 0.8093863606985496 -2.0977818509709794 -2.0688153514923497
C 0.5547778632985981 -1.3401021492964285 -1.2714136795638464
