12
## STRUCTURE-ID: 645666e867aa8004e762319b ; CHARGE = 0; SPIN = 1
O -1.0308523417194286 -0.2607184137094312 -1.649355684705258
C -0.5554215300259203 -0.11033273714684917 -0.3983107648917466
H -4.818537090154534 -0.6420140800152215 1.7186663695818487
H -1.01767034990982 0.6808213457543324 0.1983552053100504
H -0.6056431981545967 -1.0686000970603042 0.12863436010987647
H -1.317445613141173 0.5740304957147675 -2.04929392280807
O 0.8947207278470857 0.2893037586875064 -0.5149144985051132
C 1.6472585056961535 0.20577598720790055 0.7173806029166206
H 1.6579828456892312 -0.8079098356411779 1.116847615486306
H 1.1822118085768492 0.8772424780703295 1.4367093289120667
H 2.6580028427894087 0.5475509593907331 0.5031278323472879
H 1.3053933925067496 -0.2851498612525906 -1.2078464437538627
