12
## STRUCTURE-ID: 6456672900db6e3a1d1a562b ; CHARGE = 0; SPIN = 1
O -0.4621405777644426 0.1709119269661512 -0.14637040733727746
C -0.8417929301257352 0.3760096973478188 1.204989011693763
H -0.5209481876489365 1.364964778610223 1.5503550154704535
H -0.42923251192340806 -0.3962190912449726 1.8614091561802637
H -1.9274091113319265 0.31631635899177124 1.223912715936336
H -1.2067276735116508 -1.9443613616495683 -2.6552627956044046
O 1.7912647403625115 -0.4549993447809268 0.0607612802609065
C 0.8713549184690123 0.4683728103830681 -0.4316065075905205
H 1.1141185638098665 1.4873832496508952 -0.0727832040330672
H -1.1632647152693016 -1.399116021353621 -2.1010220650248677
H 0.9576124664405053 0.4307051488991528 -1.5212565553764141
H 1.8171650184935155 -0.4199681518200211 1.0268743554248159
