12
## STRUCTURE-ID: 645664c83dcea843015b5c20 ; CHARGE = 0; SPIN = 1
O -0.8363758610087255 -0.6150211175436854 -1.5718157986079015
C -1.3542410849673652 0.3016683839286147 0.12029377430025806
H -0.9726201151435758 -0.17611988957745833 1.0060318009575508
H -2.3089236413113756 -0.08384729104025776 -0.21073754148593574
H -1.3162302735420324 1.3761875945408244 0.1215316099407594
H -0.7711511233066375 -1.547684579631029 -1.3343837811809527
O 0.6838716216368615 0.6721914039418466 -0.2974192893330618
C 1.5180428483538053 0.1551704043833968 0.658647727630796
H 2.5418174372694478 0.5226275307169896 0.4916067962156493
H 1.556487761009912 -0.9479872919910902 0.6469970171541702
H 1.2210241597751732 0.47745014769854455 1.6708330850966195
H 0.038298271234516554 -0.13463529542669803 -1.3015854006879566
