20
## STRUCTURE-ID: 6456b79dc010545dac0b3f54 ; CHARGE = -1; SPIN = 1
C -2.2496358588453895 -0.8744170892625864 0.2710087721461617
O -3.172704925061632 -0.7125974944570967 -0.3970567399758702
I -0.3069914087156363 0.6051981410012577 2.92642193478973
C 2.6643752790902036 -1.2843604186869035 1.3457922185175826
H 2.649309738021963 -2.2841238931149865 0.9116659213159214
H 2.3953074650598336 -1.3600722663695122 2.3988583877757645
H 3.659282080374868 -0.8521251208803231 1.2428876907421658
O -1.2251893740975308 3.82022237751796 -1.0029383210973317
C -1.2268975260438753 1.3955454607043678 -2.218551465415291
H -1.6551965646515576 2.3075574024225416 -2.607559771293044
H -1.913188304504665 0.5628569329898274 -2.3232273552562903
H -0.2793092009528657 1.1789200561118194 -2.6965928165409316
H -1.0730390664293104 4.482542562395905 -0.3287224327264054
Rh -0.31739261771998234 -0.8259619606202369 0.6631351126063373
I 0.14915696721445465 -1.8846595140840672 -1.7997612920415933
I -0.8779638174059636 1.7553868006307245 -0.1658577307711823
O 2.0125154524243007 0.5674940968086105 -0.0035556657706266818
C 1.6757315816140046 -0.4082323928418114 0.624098417305897
O -0.6833523613752603 -3.5995862671830476 1.7192293361041389
C -0.22481753799595766 -2.5895874130824352 1.440725799584892
