34
## STRUCTURE-ID: 6456d279942ebc44075c0afd ; CHARGE = -2; SPIN = 1
I -5.132553492410776 0.5649382962511676 -0.8485796269437829
C -4.8333848460887925 2.21240570197828 0.5171919969946122
H -3.7719089251303917 2.2433338092667268 0.7426762694839509
H -5.4147653790332475 2.0033434715997425 1.4073691443509635
H -5.163971656295589 3.112738208314413 0.015675793157258575
H -1.3378930741047215 0.7688407237567667 2.223303183432412
Rh -3.450624683199057 -1.5514499687053813 0.7623024359446555
I -1.3662895140652291 0.15273404900944523 0.762934600408392
I -4.237715234346052 -0.5867087452336213 3.052868720434842
O -5.467594236344296 -3.7016978426740477 1.227191311847239
C -4.698929844995708 -2.8888035772789404 1.0110294863423004
O -2.4522085521936283 -2.701622951820596 -1.8177137879232121
C -2.841803787823263 -2.3200606126515293 -0.8133920988464728
O 3.2516218522968816 2.3175427178075045 -2.920871201306711
C 0.38412498765379655 -0.4923508775804763 -2.500857326495619
H 0.7078292696209961 -0.5694675532471277 -3.5322826274014636
H 0.22165034306096643 0.5469302004042199 -2.2274929096058367
H -0.5171576629811783 -1.076100184040731 -2.3410326774130774
H 4.000957032239566 1.9649774226438257 -3.4247581286710993
Rh 1.0699004750332468 -1.2808264584214284 1.243461594168472
I -0.11432205970315966 -3.672161166001058 0.9697748769140929
I 1.9612999940466136 -1.254846347245144 -1.2325662184288269
O 1.1535721686369826 1.4664491285381325 1.9162764879427512
C 1.8502537583057055 0.5088202738466042 1.5659835703878255
O 1.5652591793308386 -1.2406888089664414 4.187625262571286
C 1.3181530582981102 -1.3534023738908432 3.0577663151320102
O 3.1984819781409777 0.6992569355708546 1.5049686135451257
H 3.427609523289113 1.6062639450344403 1.7890858178613973
Rh 4.098276302480652 0.1912225899839343 -1.0060037782298845
I 4.941671780626829 -2.1061058300419186 0.09559222141730372
O 2.1325190046544416 2.1155317035114627 -1.036041945643902
C 3.08956148625692 1.713012896954392 -1.6972537723945638
O 6.727024148172723 1.5675032452865774 -1.394591847494635
C 5.7013566065692025 1.040447978040674 -1.2596397555376986
