12
## STRUCTURE-ID: 645668e9c522ed76151d80b8 ; CHARGE = 0; SPIN = 1
O -0.9426621936342667 0.5668786944615287 -0.16815673201754797
C -0.9622129512105404 -0.24975618339806288 1.0220891527949454
H -1.6269223271248494 0.2241864421446124 1.740168493078815
H 0.058193265571094666 -0.2654989596547496 1.407297095859432
H -1.2752746254457181 -1.2698480883094119 0.8041651976238203
H -1.8246714885060427 0.5232334218950321 -0.6037403359475068
O 2.2861630760457237 -0.09518001689917864 0.6118135814129873
C 0.08822345170667507 0.15927313164591975 -1.1011910792073263
H -0.1398253757353931 -0.8017970563397955 -1.55389959334471
H 1.0548594610131776 0.07141502155001392 -0.4964170509027968
H 0.1853627753869631 0.9375291578852827 -1.8503065375075782
H 3.098766931933174 0.19956443501880725 0.18817780815747293
