12
## STRUCTURE-ID: 645668e33a487045fa6cd4b0 ; CHARGE = 0; SPIN = 1
O -0.5986265044333028 -0.583209964483506 -0.3982560657654428
C -1.6823915001113203 -0.13528280440847804 0.3110225844953933
H -1.7000305352181488 0.9628480713277102 0.4101732158165857
H -1.712745387493047 -0.5743221800684412 1.3220110493924881
H -2.6073904979421254 -0.43689567027080634 -0.2027177705787088
H 0.19406815156285648 0.31566040968515113 -1.1687129990939547
O 1.1142376064781734 0.7901423965785644 -1.2509676806676757
C 1.2325359219381131 -0.10358214071529541 0.5272713900314279
H 2.149006488742286 0.47084630042234127 0.5180909595862897
H 1.3675746627410483 -1.1666285950379662 0.4381666322629562
H 0.5683640899332435 0.20895997800803412 1.3147458123660103
H 1.6753975038021727 0.2514641989626509 -1.8208271278453871
