12
## STRUCTURE-ID: 645666d28b2f186b585ede08 ; CHARGE = 0; SPIN = 1
O -2.071467044977569 -0.5769983568605792 -0.46226121893934674
C -2.0967188667152676 0.04582669555716739 0.8035391017250105
H -1.2486584471378745 0.7260046764737895 0.9307226794451642
H -2.0279356555970285 -0.7496736378176144 1.5438398443629424
H -3.028096128419483 0.5976399918719932 0.9617465910643491
H -2.147603742238634 0.10164852935085782 -1.1438041024940373
O 2.1171131995280437 0.4792837695653541 -1.3988581028482303
C 2.1303609037605926 -0.008775102576266243 -0.07479288362764354
H 2.9234420638241048 -0.7483067174238727 0.07120782286225542
H 1.1686528458976277 -0.4543658182199639 0.19708270440951645
H 2.323172271065562 0.8468120366909331 0.5704400203547985
H 1.9577386010099398 -0.2590960666117943 -1.998862456314786
