12
## STRUCTURE-ID: 64566a12dc52fa4a8c4b6a6b ; CHARGE = 0; SPIN = 1
O -1.8207783522822343 1.5319151460340832 1.5826979959173282
C -0.298716172418173 -1.266989733737612 -0.6232014071826356
H -0.31338307725717807 -0.9966469574076124 -1.6850006806728277
H 0.3852584049577197 -2.110345729201187 -0.47999384981260884
H -1.2982458091561255 -1.5514750489247446 -0.30236316803598073
H -2.089405209173672 2.0582562000334788 0.8250983731694754
O 0.08542125187754765 -0.16554666986812241 0.17009654589647452
C 1.380992084346084 0.3044813889996546 -0.13195513741685796
H 1.443813539219579 0.63646980988076 -1.1743646241409005
H 2.1307221802918397 -0.47568106519007186 0.03818022775344971
H 1.5718856751677888 1.1438393882794717 0.5325120490543481
H -1.1775645155731667 0.8917232711018239 1.2482936754707181
