8
## STRUCTURE-ID: 6456880667fa3574887ffa7d ; CHARGE = -1; SPIN = 1
O -2.2312450259962917 -0.27259864306537196 0.2026807353760005
H -2.852300800479618 0.07245687175266183 -0.447405602114115
Rh -0.32931730184547414 0.09052200517337422 -0.2105457703945513
I -0.7533673125132496 1.0169112663769955 -2.5718080595535504
O 1.7685270657588132 -1.85244937936118 0.7434254266821606
C 1.0027373605530758 -0.9509189581969494 0.6197192383901832
O 2.0962505436041012 1.2636670783184483 1.1425624164487564
C 1.298715470918643 0.6324097590020211 0.5213716151651187
