12
## STRUCTURE-ID: 6456670f6881cd7bbc2b66b8 ; CHARGE = 0; SPIN = 1
O -1.742461118866844 0.16933405497309725 -0.487135298329445
C -2.0789267270877763 -0.4138028282693828 0.7501538997865668
H -1.9903938156768 0.30793074899402423 1.5684203457815662
H -1.445049969071584 -1.2786975146228714 0.9698652402247452
H -3.1150108649954977 -0.742447488342528 0.6760313980449578
H -0.8112290838923212 0.44614095512905444 -0.4409914656704971
O 1.0357667744906305 0.7541492795227943 -0.01964003875654541
C 1.9997695478589042 -0.04395882137246652 -0.6757018476141313
H 2.342030003811456 0.4244313823973597 -1.6025422978137047
H 1.5149252758460021 -0.9883594219297535 -0.9150795100423281
H 2.858723529755981 -0.23954868440186386 -0.028413083531334357
H 1.4318564478278648 1.604828337922518 0.20503265792016953
