21
## STRUCTURE-ID: 64567a25e242e403136c2b51 ; CHARGE = -1; SPIN = 1
H -3.5474117534917653 3.120209813589572 2.2556326988164828
I -4.603541396830634 4.1791313821492855 2.7151240852745495
O -1.441541122086744 -2.4325966005572313 2.3107910828406615
C 1.5789938931860834 0.669262984724166 -3.189637717183475
H 2.3126118301961767 -0.1130673587977013 -3.0044325664119187
H 0.8056865399069487 0.2638779568991516 -3.838121520597839
H 2.069211344334445 1.4938258765873977 -3.7007139644330524
H -1.6339082257567934 -2.9673438678118074 3.1110585495627916
O -1.3197681920914424 -1.7510916350375185 -0.4424790729759372
C 0.9744235879702304 1.151828435481908 -1.882031841576005
H 0.4797603304249106 0.30244837622116816 -1.3655837541242464
H 1.742334269376412 1.5599848278210744 -1.223058544310126
H 0.21967453649848656 1.9177568506548681 -2.0498981131594998
H -2.2344524917403503 -1.4811042083682184 -0.31519744549889056
Rh 0.10246629665657618 -0.8904982474405244 0.6486419291998569
I -1.5254553607917265 1.0062317278618154 1.3935002021446863
I 1.7872786894651858 -2.7349343038151392 -0.2571883058855648
O 2.417718002432429 0.5713142188421073 1.8454787370202799
C 1.522245824408317 -0.017739635045921957 1.4326420467383907
O 0.541431020995366 -1.9657401902292224 3.2319548711255743
C -0.24775762306210455 -1.8817564037292356 2.3235186434332973
