13
## STRUCTURE-ID: 645688b83c8f676c7d32491a ; CHARGE = -1; SPIN = 1
O -0.24320099819436136 -3.0811708135942495 -0.29207369290308616
C -0.5572067816026921 1.9991240164243267 0.5467577475385773
H -0.050962854448242244 2.9353304446401607 0.30968505711332317
H -1.4590067809488048 1.925876139056962 -0.05640093643382283
H -0.8086632007090155 1.9844854405206083 1.6052330792769591
H 0.36859775344593715 -3.5592495636829224 -0.866519122036305
Rh 0.25154168864401294 -1.3149329340892901 0.13966239993987578
I 2.6153286984241184 -1.7166723017268992 -0.9715394157771083
I -1.9826551988533982 -1.1443446715717824 1.5203773779520182
O 1.1860447499722564 0.3796756512391324 1.0801891226682987
C 0.40859294279549047 0.8895527775420199 0.22668613840251992
O -0.021792082459149594 0.44970688930699726 -2.1883742415111254
C 0.29338206393384764 0.2526189259349282 -1.0536835142301268
