18
## STRUCTURE-ID: 645671e13b6243146e64e480 ; CHARGE = -1; SPIN = 1
I -4.236793074643099 -2.4081455176147886 -0.5708992579178733
C -2.6004992586119915 -0.4114043500237778 0.42833386937237977
H -3.4833787184671423 0.1919255015396984 0.4202184502997761
H -2.0754093904640682 -0.5681498202982945 -0.4916811600019589
H -2.463289706370541 -1.1107796587941876 1.2267344029767797
O 0.28287396712249796 -0.25392798586313037 -1.3290854512006407
C 1.6710000895790356 2.6710591291300534 -1.1013473916785248
H 1.1838069260799018 3.4056654507438644 -0.47182452279384535
H 0.9496158952421719 1.978533882888681 -1.5224617781593752
H 2.282283927900342 3.1298041992813586 -1.8674578536208235
H 0.4427988485414842 -0.902090803906671 -2.0167273514365966
Rh 0.8036412533286821 -0.6329294237342782 0.6150501392816279
I -1.0207110329052822 1.2771693324318665 1.2767175033936453
I 2.9672902135748727 1.4953071041561512 0.15978471336754882
O 1.451563274354708 -3.2867569147268694 -0.5815791608261573
C 1.2684654390900185 -2.2979746197394717 -0.021747979669244848
O 1.391062071706084 -1.2770667292674216 3.4732888049753172
C 1.1856792749423193 -1.000238776202767 2.3746840236379563
