18
## STRUCTURE-ID: 64568b2569d97110633eadcd ; CHARGE = -1; SPIN = 1
I -1.4062596349889434 1.7611326561849912 2.261828102036558
C -2.7887132152624057 -0.9212963086327038 0.7034357852054767
H -2.726807480666956 -1.9218627140503446 0.2687560816188378
H -3.71605356612229 -0.4401419897091604 0.35968621055312233
H -2.8325264791366154 -1.0221627663300892 1.7903169790197124
O 1.0486946110633961 -0.9961207950760117 2.7849008232422228
C 1.779125379988763 1.4549818998673907 -2.560966641987184
H 2.5849315068640113 0.832094478100904 -2.1884671962851843
H 2.15859865019783 2.319697680169268 -3.0904719377144247
H 1.098243345868835 0.8797252526807234 -3.17975684015336
H 0.11637693707086896 -1.1106458552782843 3.025588820581095
Rh -1.2307578516170599 0.2813466504781646 0.06392525041871915
I -1.600449761818408 -0.6101313719067564 -2.3990437938062223
I 0.6691258968758442 2.1623372923263022 -0.8509162228719105
O 0.2043128238664863 -1.1248235174616596 0.6012715639931984
C 1.1690499069449432 -0.881138261773651 1.4294614285785927
O 3.187714074509421 -0.25111007330203367 0.12109901539391227
C 2.285394856362284 -0.4118822562870397 0.8593525721768477
