12
## STRUCTURE-ID: 64566b732e9a1937a2293428 ; CHARGE = 0; SPIN = 1
O -1.1127859332090433 -0.9759542265095219 -0.15427202699836362
C -1.0974902094248593 -0.9334315808880533 1.2579876542034694
H -1.7916019071676033 -1.660870989152083 1.6860576267587684
H -1.3459227168985413 0.0657583510698329 1.627571954040034
H -0.08574183483265632 -1.1871674866937008 1.5692161767829702
H -2.0115428671056232 -0.8105151250225462 -0.46380791847385644
O 1.2895070420246029 -0.03462352298169464 -1.4386669121734026
C 1.3853517659816779 1.244512440210167 -0.8565584907294186
H 2.3057293645046624 1.693953627778542 -1.227942421049764
H 1.434215242099885 1.1864213660168907 0.23546844732919536
H 0.540285405599438 1.8792438869866452 -1.143143798986218
H 0.489996648428079 -0.4673267408144766 -1.091910290703409
