12
## STRUCTURE-ID: 64568ed134bd891f0d671000 ; CHARGE = 0; SPIN = 1
C -1.3699222704662997 0.8101094996890577 0.5211261756875281
H -1.1002322469856627 1.8558094699515038 0.6616285993846
H -2.034190965479785 0.46552987108720756 1.3146887486718395
H -1.887993952263343 0.6797276322086369 -0.44530616878134
O 2.170154971096149 -1.278707367256616 -3.0892680215648256
Rh 0.2538078267560396 -0.5447537091425767 -0.017274258402497928
I -1.074281288090941 -2.6386501422777493 0.7386501688584588
I 0.9818708413562625 -2.0807409675221717 -1.9339494318835861
O 2.100541974748685 1.3772956941457775 -1.4051506221163277
C 1.3746606791461013 0.7300131316836306 -0.8291800900212192
O 0.3462831496625716 0.4783597086920404 2.781060830186159
C 0.23930128052023342 0.1460071787412604 1.7029740699812237
