19
## STRUCTURE-ID: 64567b1e3b908b59071aaa1e ; CHARGE = 0; SPIN = 1
H -1.3830638245387261 0.16327636712047805 -2.7730459246686654
I -2.8976072530323855 0.7826230719730106 -2.6632132266564836
C -2.781528722992632 0.9682686030282979 -0.515238159983191
H -3.7412877490367715 0.6607123108322466 -0.11316870238528784
H -1.9764345501054321 0.3026582824412983 -0.1832790119050725
H -2.570024712964356 2.0086683157238685 -0.2917031928236604
O -0.5092518562157042 -0.6678924176435636 0.8099660873430361
C 0.9179471733548816 2.1967573061952024 0.32996309727816875
H 0.11055241677630444 1.4751600226586492 0.4129855510586995
H 1.0464984301098197 2.540539676181698 -0.6894173377625811
H 0.7930988547616914 3.019629531999397 1.021979045042542
H -0.8467493592509051 -0.7991983959691028 1.6983878728729653
Rh 1.21150014906918 -1.6411551505002506 0.2804704694223403
I 2.72443084181305 1.127215192697239 0.8923772771390729
I 0.7899554849587722 -0.8312993044504101 -2.1746357627244093
O 3.6045595598742968 -3.2026125744895033 -0.5910589243114115
C 2.6903872242799083 -2.5726269082339632 -0.26603071329484124
O 1.4800233460301195 -3.0541044721404114 2.901687740922856
C 1.3369945471089042 -2.476619457424167 1.912973815435945
