12
## STRUCTURE-ID: 6456678f918bfa6af32c50d1 ; CHARGE = 0; SPIN = 1
O 0.3906511571153019 -0.11244709157629108 -3.0975452902350327
C -1.916272998567259 0.12081379335623041 1.4727771000957788
H -2.595288053059961 -0.4948159767701605 0.8975311626018054
H -2.3647172305461184 1.0910066134978815 1.6410783328295542
H -1.7179359486807677 -0.35459454483670705 2.4244581949421384
H -0.45320487771931495 0.34192934228008304 -3.1577382074307616
O 1.2396604757967595 0.13406481219275668 -0.280985914709403
C 2.251770529138945 -0.20089633022205086 0.2699119024976463
H -0.9898232948112542 0.24083219737256692 0.9273007441463907
H 2.437798716729201 0.020109436722587398 1.3294774537683471
H 3.048940828753898 -0.7469634690686169 -0.2520305941065888
H 0.6684206958505715 -0.039038782948296366 -2.174234884399864
