12
## STRUCTURE-ID: 64566708035f9f5824092928 ; CHARGE = 0; SPIN = 1
O -1.429632522014244 0.5441699472139334 -0.07691532512400877
C -1.5121058737723225 -0.2656926873459173 1.0790734666989314
H -1.1592528995587514 0.2685388021363076 1.965723099435406
H -0.8708965031355278 -1.127783133431498 0.9040613899994403
H -2.534298691661887 -0.6134756186827865 1.2467482040846676
H -2.0138684446080486 1.3046866422194563 0.03033173197416734
O 1.2585514849170256 1.0128029123190518 -0.9347738464489848
C 1.8550557094390678 -0.26139458528617987 -0.8853719171882742
H 2.894999548481548 -0.13988247886343566 -1.1864136009307487
H 1.3664439503089623 -0.9605790132636505 -1.5715937319747149
H 1.827133355481559 -0.6768174968005523 0.12773357720050332
H 0.31787088612257286 0.9154267097852712 -0.6986030477263095
