10
## STRUCTURE-ID: 64568d38360706705828a810 ; CHARGE = 0; SPIN = 1
O -1.651730573873635 -0.6343158927266986 -0.37447965072871603
H -2.410107261487678 -0.21585789427099192 0.05895638290978721
O -1.218942479859035 0.5609133842789304 1.66483196293094
H -0.7746843652351867 0.8941984159160625 2.4592592265331077
Rh 0.028550163055867776 -0.06766743570612728 0.3765719433585935
I 1.9407767365592086 -0.8421642701636656 1.8973853007105845
O 1.9610747500460421 1.484160019737461 -1.3004771026727873
C 1.2096807821467668 0.6365017254805255 -0.9310328759529912
O 0.3260925887569678 -1.2968182279611837 -2.3342523641445587
C 0.589289659890652 -0.5189498245842961 -1.5167628229440016
