12
## STRUCTURE-ID: 645664d07aad6808201dbea8 ; CHARGE = 0; SPIN = 1
O -0.9324362228174712 0.37397913427957424 -1.0945677003824792
C -1.7965545318440557 -0.5254038731219735 -0.43042702879141154
H -2.738237428837148 -0.6459663539650791 -0.971416815646321
H -2.004075310672683 -0.1934429675813848 0.5910837111459969
H -1.285547783919371 -1.4858848524110917 -0.3960822394279998
H -1.380668490375436 1.2225771571352457 -1.1935524773395827
O 1.8740533163971382 0.12287719392274347 -0.4830590491835833
C 1.8202135198205522 0.21455661688540195 0.9215652740275629
H 1.171466805474226 -0.5559875832568638 1.3500644229891177
H 1.4683158798229181 1.1995706474355305 1.2462804244893169
H 2.8350612373319675 0.06518769356615844 1.2888629061183248
H 0.9684090096193713 0.20793718711171294 -0.8287514279989378
