12
## STRUCTURE-ID: 645665e53933d41ba41dbeae ; CHARGE = 0; SPIN = 1
O -0.9514998317490349 0.3599413429048823 -1.7392908922205077
C -0.7951307014192506 0.3383239972276027 -0.39955831351630594
H -1.2197775061060527 -0.5299431171002511 0.11345869539430875
H -1.1742231261177334 1.2787209201471612 0.016549381696399044
H 1.138888757453724 0.874512175405365 -0.7396350480193697
H -1.1636450869611352 -4.691956279638807 -1.0352227056420586
O 0.6797253979457921 0.2699610175466012 -0.10560113566647647
C 1.0331023055186181 0.6084922278309804 1.2560626456530248
H 0.5131564520914096 -0.08363598309635412 1.915724973646099
H 0.7583882751564907 1.6350264649384747 1.498201409890332
H 2.1061768088924198 0.4606977170643375 1.359349981792415
H -0.925161744705239 -0.5201404832300107 -2.140038993007876
