12
## STRUCTURE-ID: 6456689eb066304ab032dfd3 ; CHARGE = 0; SPIN = 1
O -0.6162664277903086 1.1500903923838661 -0.8531614314329031
C -1.31012278404573 -0.1939000869406937 1.4340366320035398
H -2.127513163408659 0.476253746468328 1.1500271898551413
H -1.212893062904625 -0.21277258338050647 2.5219654409707783
H -1.5186924742168484 -1.1927207423136639 1.0557998821804724
H 0.4714924884480047 0.3448011892248661 -1.1714926508009582
O -0.10752254857537637 0.23297948272535626 0.8431816345349977
C 1.388859521828509 -0.29956535475269697 -1.480481625387577
H 1.385843622460991 -0.32144939261886685 -2.56075923616345
H 1.2426599602253359 -1.278679071116325 -1.0505528366162986
H 2.2651833678433824 0.19206928946812576 -1.085792829750773
H 0.1389715001353286 1.102893130852203 1.1972298306070344
