12
## STRUCTURE-ID: 645669a59196637a0741e588 ; CHARGE = 0; SPIN = 1
O -1.37132168364082 -0.579155927261557 1.113750316212082
C -2.064390537849953 -0.14701361069741145 -0.03284784592877535
H -2.1033306231586235 0.945691108417191 -0.08922805699018986
H -3.0799980122954365 -0.5339993909594024 0.042872303824164744
H -1.6056364061803512 -0.5361203855628717 -0.9483087257828063
H -0.464421507190926 -0.22420789452486453 1.0693892935262768
O 1.277678117992615 0.4157543394632647 0.7380345832178897
C 1.7799186028630511 0.1656190617813946 -0.5598180936393542
H 1.972084398108728 -0.8998565968128831 -0.7131610277889582
H 2.6962186321119725 0.7308634311745369 -0.7461571242778737
H 1.0149487854373063 0.494166178629693 -1.260787176231486
H 1.948250233802435 0.16825968635290767 1.3862615538590362
