21
## STRUCTURE-ID: 6456749870f50d666d390837 ; CHARGE = -1; SPIN = 1
H -1.634429022455706 -0.6450145075251812 4.7369260936943665
I -3.9275325731662774 -2.4111047963866574 -3.9397567568760876
O -0.781790225145632 -1.0600288965477325 4.5712600290339
C -2.296698117106104 -1.4686613181485597 -2.926933943265655
H -2.6164420996176307 -1.2350881856017253 -1.9197911602455686
H -2.039273219905721 -0.5675046712352617 -3.467875486419389
H -1.4640512197637794 -2.1598172259888933 -2.914911999326184
H -0.2435932026153372 -0.887006524147094 5.350198529142672
O 0.1991228058463493 -1.3223426905571427 1.840303786342164
C 0.7253887087727722 0.047637236676780624 -1.3997763568509287
H 1.0960081600898308 -0.409503958328358 -2.3167132502947254
H 0.23967555133123908 -0.7251561986015982 -0.8003808554058512
H 0.00048263970430242507 0.8297801126633223 -1.629459080680745
H -0.16155610106634488 -1.7426564852288167 2.6272147056059834
Rh 1.5472522325378986 2.1001965542362138 0.6077160819118947
I 0.9543119501611511 3.665566750461996 2.692673804399809
I 0.4475308778014502 0.608854019096192 2.327189729616127
O 2.9586430306397133 -0.03241958780452736 -0.5690847676189841
C 1.8952000045958168 0.5834098784222234 -0.5715865275041905
O 2.801804934118858 3.6999884893273123 -1.5881828588559137
C 2.2999448852431956 3.1308720052174794 -0.7090297164027117
