11
## STRUCTURE-ID: 6456884a8a0c8433143d7d74 ; CHARGE = 0; SPIN = 1
Rh -1.6936351241359646 -0.14401303595449033 0.3931933138769778
I -1.217137182344892 2.370111422603561 0.5330024322223457
I -4.15312115088171 0.19618723673981245 0.14447373447097442
O -0.03983430467490292 -1.1206313989786587 1.2865377087529468
C 0.44123503384394497 -0.6537381892899609 0.2130520672539117
O -0.5469692775150616 -1.1273372087862472 -2.079627837093332
C -0.3978112573659074 -0.8524858179293968 -0.9466162617467639
C 1.6645884536762048 0.1919454439694063 0.129893530954249
H 1.5947232485059633 0.925822853931056 -0.6706677391822895
H 1.843363907336436 0.6856762602403867 1.0839333673485718
H 2.5045976535510777 -0.4715375665427392 -0.08717431685501907
