18
## STRUCTURE-ID: 64566f48aa0eae57af374190 ; CHARGE = -1; SPIN = 1
I -3.5478855100505218 0.3308636837815292 -1.4956801929578987
C -2.9744002856269893 -0.04075241815556787 0.9746211827348248
H -3.642072502536082 -0.8885720237096296 1.0341096373917715
H -3.430313057047383 0.8936596516877967 1.2639283679833522
H -2.0456945337454013 -0.22838965322211943 1.5175602423304755
O 3.3051625747701667 -1.5157373918590575 1.3766389251657378
C 2.347517208594054 0.7518367009856214 0.23959942466553497
H 3.37645062860295 0.5043279474020816 0.44891302311103737
H 1.9703294896341175 1.4604785724564453 0.9679780954522659
H 2.2406869626336414 1.1422907709545238 -0.7674253037557922
H 3.324509386038318 -2.416252552548952 1.6981996797748913
Rh -1.0362743563454468 -0.20640192532903373 -0.7460792866033842
I -1.3667578035219954 -2.8282041367301964 -0.5161665799733454
I 1.2603888871362177 -1.049963376767403 0.3828501872734831
O -0.20248788584194632 2.6341826711185266 -0.3781686943273539
C -0.5380638635591237 1.5354346156370213 -0.5043376350093006
O 0.9855810585051146 0.2103790586265266 -2.8842665929601417
C -0.026676397639643232 -0.28918019432815284 -2.612274480296158
