18
## STRUCTURE-ID: 64567086cb8b913c903ae5f1 ; CHARGE = -1; SPIN = 1
I -4.072915936266771 0.35141339798912596 0.6503715083300737
C -2.418969485292935 -0.44885578833302925 -0.43125197528405484
H -1.5358877124506676 -0.4452764406938876 0.23295599063871378
H -2.256433733547203 0.17077452075729974 -1.3050500580380737
H -2.660512911129765 -1.4632335196430815 -0.7252161302507093
O 1.8748380426866977 0.09377237170761983 2.856517399144797
C 1.1976039792019517 1.8673746244063367 -2.597716198949284
H 0.23455146340619412 1.5381084209529734 -2.9698988972404097
H 1.9854447325567237 1.2230685280323799 -2.970879178914492
H 1.3834802109663504 2.9083339700948865 -2.833092793572259
H 1.753651795042655 0.4549570573200605 3.7566304443106415
Rh 0.7671939707903933 -0.7652560218371327 0.3943787124473476
I 0.7106030948135444 -1.803987467563191 -2.0337002593893474
I 1.1671773438450381 1.691033582591795 -0.40939355977113473
O -0.34824606279195935 0.266575147851156 2.813146912830154
C 0.6798818813490614 -0.05336014631256474 2.2174245249076017
O 0.7752561706242845 -3.25867886320159 2.0270316610525283
C 0.763283156196417 -2.326763374119147 1.3277418977479163
