12
## STRUCTURE-ID: 6456676b06f25b48335ede03 ; CHARGE = 0; SPIN = 1
O -0.5552409830655307 -0.4122033561511317 0.19652038544205588
C -1.591442435829994 -0.08010276962565671 1.0903701137882562
H -2.5228043036226055 -0.47333078611630636 0.6735116717482094
H -1.6738877208010765 0.9950658454166766 1.259786259586562
H -1.3922197299748085 -0.6207465413775497 2.020543019588411
H -3.298000215664553 0.8740694682947519 -3.3454633910668865
O 2.893759608153925 -0.6029311202002343 -0.1726224264747928
C 0.185908062322373 0.4062809847948048 -0.33570638336817255
H 0.10529901571572528 1.4842045952461096 -0.16828875993640757
H 3.1655716092204056 -1.5140389174122617 -0.035546339287809696
H 0.9880304748929095 0.019137904631151188 -0.9673291275442417
H 3.69502661865324 -0.07540530750035564 -0.2157750224752016
