12
## STRUCTURE-ID: 64566af67d89806e8e6c2b4b ; CHARGE = 0; SPIN = 1
O -2.5438866222584577 -0.33036164005259044 -1.5719386719566437
C -2.472885749469049 0.16796075237891678 -0.2538757769054634
H -2.4724811029114675 1.2616780100019627 -0.2377125406196459
H -1.583792559971169 -0.20117307411463858 0.26634209041991136
H -3.361062729394788 -0.1920093607925295 0.26232860984251927
H -1.7850312082581024 -0.004957738075988598 -2.0705006598347535
O 3.450384443357395 -0.05376461586566188 0.5726277440102019
C 2.043267726999456 0.004091419796276046 0.4883206363388271
H 1.8076094076498723 0.8146744794196312 -0.19901471561343909
H 1.5922254028382195 0.22093084633378443 1.4615850966587192
H 1.6282361671196832 -0.93000321994871 0.0967540118197186
H 3.6974168242984193 -0.7570658590804514 1.1850841758400426
