23
## STRUCTURE-ID: 6456b82af52bc31309224148 ; CHARGE = -1; SPIN = 1
C 0.23498415691263755 -2.6081202888527852 -1.7291315264268794
O 0.8430134104642483 -3.3840975387009764 -1.0980132118296675
H -0.04618437019598689 3.7581365676553484 -1.5098822469699267
I 0.3744738899802695 2.5990130121420956 -0.3482258078675157
O 0.7011408371610073 1.1246908041917467 1.3181281306922958
C -1.7019612789328893 2.665148258761149 0.13633106046030508
H -1.9483714877196823 1.712157362644814 0.5932969149115399
H -2.2378508495772262 2.7983106641913666 -0.797894586222732
H -1.8559302500379466 3.4879700650106127 0.8238196398035136
H 0.8237468777403547 1.5517141880121657 2.164700365410226
O -2.157701778778177 -1.4336374754871877 2.2347002026535714
C 0.396551012517848 -2.0110426345254497 1.6281352946289753
H -0.217572464234677 -2.5446782358576403 2.338210011743352
H 1.019835867655608 -1.2871380438350928 2.1417253572753676
H 1.0136707283879318 -2.702111544063127 1.0595007386203068
H -3.0666584937415737 -1.152470505686525 2.1209612951054835
Rh 0.7511919440089506 -0.47089539035340666 -1.6633735861506032
I -1.5838549485675693 0.27634902273309353 -2.5784748028386097
I -0.8654795200407549 -0.9976500737736302 0.33403616744031717
O 2.946479231543397 -0.7175491520765714 0.3642211921169534
C 2.11105311006919 -0.5877012885338185 -0.4227709754164991
O 2.6230734414522323 0.0257138377124003 -3.9677951761984502
C 1.8423509339328021 -0.10211161130857435 -3.1422044509413003
