13
## STRUCTURE-ID: 64568a23d6f9475af9399e34 ; CHARGE = -1; SPIN = 3
I -3.0116272472614836 0.31725453131907055 -0.38624969984442853
O 2.2497409859906905 0.01212695755729203 1.6841253006786696
C -0.3827363083058358 -0.5409525037138712 -3.2140322625376374
H 0.06719549529551787 -0.638991282374586 -4.181334205273348
H -1.4168842165240645 -0.7652098789136436 -3.0318168376557026
H 2.0985591548768205 0.9560680051662672 1.9005735986736825
Rh -0.4894903975717866 0.30309992302204597 0.5753055971956907
I 0.2841721834569775 2.8702754662490015 1.3944315516672083
I 0.547923595703224 0.7305092038761919 -1.8866601773070648
O 1.3371452930113634 -1.7235345173049346 0.6614631098314498
C 1.2378123755290156 -0.570176700955091 1.0384720783618528
O -1.4556526666213414 -0.6438140729103108 3.2384842730161743
C -1.0661582475790945 -0.30665513101742764 2.2072376731934535
