21
## STRUCTURE-ID: 64567c060d533928332648ad ; CHARGE = -2; SPIN = 1
O 0.8129363979284855 2.355638112226137 -2.106360153018794
C -1.802977420812866 1.2420106386218899 -0.3140294652996919
H -1.4117253005774917 2.1166238748810113 -0.8186479346800482
H -1.363262795739982 1.1474144402093862 0.6733383546167047
H -2.8848036748630963 1.250604714060533 -0.26899282367539085
H 0.9960493325496428 3.198666389650006 -2.567488444460084
Rh -0.7386485508149562 -2.223504236143909 1.115476742346114
I -0.8849179084776974 -4.5222963011558575 -0.09594417034493989
I -1.1973145100061477 -0.4720563185806466 -1.4770285200374738
O -0.21870853119528585 -0.08774558618473281 3.145083164948555
C -0.4247658556944963 -0.8572112282252191 2.3080550581988994
O -3.4593286120684987 -2.6441862575710915 2.2514328906200123
C -2.4153636262027973 -2.482629036360672 1.7915837887448935
O 1.2833616269568522 -1.9263693275588336 0.45443699634805407
H 1.5817164383239093 -2.648133340858077 -0.11097676594344776
Rh 1.6612905384148673 0.1236325530579536 -0.6948720572571845
I 2.8199213380874566 -1.0666969489958027 -2.708617937256407
O 1.3470846477922496 1.9166810042410622 1.6674234512097779
C 1.403232750161125 1.1386232857923886 0.7886894233390288
O 2.951007395500338 2.5736067102305107 -1.5300853860926982
C 1.945216320738473 1.8673268586640719 -1.502476212305984
