18
## STRUCTURE-ID: 645689bde989cc75ed0b3f5a ; CHARGE = -1; SPIN = 1
I -2.9492308291277225 -0.04418510528745238 -0.8756891016992306
C -1.8338040131253623 -1.3923436148574622 0.41288397867458265
H -0.27784005494934894 1.0555972770683728 -2.8062385936144674
H -2.2824396637954085 -2.382563980124934 0.33712263523604036
H -1.8984289112809143 -1.022195100320673 1.4369117375134348
O 0.2508695331348263 3.039285180136044 2.1861324370141304
C 1.6649940733394213 0.7896836163422498 1.5374523053798792
H 1.5992051191258925 -0.2897857656196679 1.4616939764853645
H 1.4578566033722102 1.1439482693086809 2.5378987652505516
H 2.62989428599534 1.1394328792852377 1.1909404681227145
H -0.23561446907931377 3.8493696489011975 2.0326339858963314
Rh -0.24219884427892888 -0.1444708297899365 -1.6453034012967835
I 2.423791210990188 -0.29351660219237685 -1.7597208225618284
I 0.16383904406414912 1.6639834324732792 0.2983278491537964
O 0.4318203095962792 -2.023428574348059 0.5528429972014743
C -0.3872176766407705 -1.394255261943824 -0.09787203718128767
O -0.14093526166843756 -2.218501166179305 -3.823479025165347
C -0.37456045567206103 -1.4760543028513515 -2.9765381544093215
