12
## STRUCTURE-ID: 645669efd620767d0b0b3f68 ; CHARGE = 0; SPIN = 1
O -1.2359391312403214 0.14513159633892198 -0.8984191219867278
C -1.835349547291972 0.009948623256617136 0.3749733839837366
H -1.1824975706421799 0.5149343452566083 1.0845360256966399
H -1.9287285451427159 -1.0414974201714187 0.6606188627957207
H -2.819936915009744 0.48287689420972585 0.4026803381812294
H -1.8091370789734995 -0.26188829461872776 -1.559415166700838
O 1.5475064179489788 -0.536534672222529 -0.903110522093262
C 2.052070800050684 0.12241652362956172 0.2341843567403518
H 1.550966828814037 -0.21616381937476228 1.1475239518940457
H 1.944316370152474 1.208586945763502 0.1488360528624065
H 3.111094750935022 -0.12439501647750963 0.30199865124948216
H 0.60563362039924 -0.30341570558998643 -0.9944068126227836
