21
## STRUCTURE-ID: 6456783c43e726350076344d ; CHARGE = -1; SPIN = 1
H -3.248150356559436 0.053811903203223356 1.8744708279720668
I -1.5457491638394403 0.018217191442683075 1.939503723272575
O 0.6223168980950208 -0.2682271318787398 1.6937086623029294
C -1.619502442426214 -0.4421923381404455 -0.14969942877658568
H -0.5911990739097486 -0.2973047872405067 -0.49163155028422223
H -2.252063451411963 0.32057636863826844 -0.5953996099207535
H 1.5467082023509848 -2.78860331255848 -1.9943381684231491
H 1.0557255377876578 -0.3081166169810495 2.54631634306734
O 0.030270699727674915 2.2976935236914144 0.3997912507382386
C -2.138159971733519 -1.8415082189206056 -0.3906161633075225
H -2.202964167386696 -2.016248301665685 -1.4629114047905845
H -1.4677313812411612 -2.580473452395455 0.042411464350293526
H -3.1263669137590773 -1.9618143426377823 0.04757164253031617
H -0.21675035338482795 3.2170478853047006 0.6237801928913796
Rh 1.968841200437446 0.3822674844521479 -0.23727384744457605
I 2.265317277875476 -2.2896610870471754 -0.6582266382902893
I 4.178512849753394 0.45898981743534845 1.4650906868605655
O 2.0160114218841434 3.2539739271137766 0.122602275184357
C 1.3693132330621463 2.209640084893573 0.11019843165906626
O 1.6295330045234333 1.5905337576497243 -2.9458554907006866
C 1.7260869501549927 0.991397645640898 -1.9394931988903872
