19
## STRUCTURE-ID: 645679d12908495cf73d7d8e ; CHARGE = 0; SPIN = 1
H -2.388348788167822 -1.1687214658500233 -3.0074649939077034
I -3.8595754332696033 -1.0735998614920768 -3.6020967052609345
C -4.272045666937002 0.8474588344559052 -2.7048126345384302
H -5.332295302247014 0.8672897099237634 -2.4701345998809097
H -3.627922023609946 0.8534351914703558 -1.824842045042994
H -3.9901563779106413 1.5999642736182023 -3.4344436298987837
O 1.2406821236066086 -3.2307057965048522 2.667295717618321
C 2.727863145855849 -0.9742485306458561 2.7194013901279694
H 2.7637030808507017 -1.872142476173339 3.315643091567016
H 2.5504712400287177 -0.1092799816201439 3.3532454651592625
H 3.6571033389234886 -0.8541391242380845 2.1688566550798094
H 0.575924175882942 -3.8762150638746564 2.426936577165818
Rh 1.1798535413263351 0.9960065167586027 0.03711031992599123
I -0.7791499503426494 -0.2902470348597762 -0.8916778466670021
I 1.1488225030922956 -1.1954371231650853 1.3873768374873923
O 3.603543977927454 1.8703646260211129 1.552275276592305
C 2.6630300741853397 1.5730680711400449 0.954508089718271
O 1.0708240051075675 3.5046204329137063 -1.6209139333904736
C 1.0676723356974704 2.532528802122221 -1.0262630318550507
