12
## STRUCTURE-ID: 645664be748c9b59a54b65f0 ; CHARGE = 0; SPIN = 1
O -1.03568952992927 0.4348277936668025 -0.033064648037672756
C -1.3118882695278142 -0.12502963200429637 1.2646387321537296
H -0.6206827558986355 0.3306784123883601 1.97021272631547
H -1.1750336287304806 -1.206119163814362 1.2718237552345648
H -2.3335965700950405 0.13644057732768106 1.533791727391522
H -1.6597996227624154 0.05505994737163836 -0.6874421727822427
O 2.558200997344513 -0.39350674144299236 -1.3541458286595434
C 0.42473424506825513 0.12056327419867484 -0.5503008368190572
H 0.5464008571123572 -0.9493762616998114 -0.5812534224311673
H 0.4770894839214675 0.5804868934385834 -1.5221709350729553
H 1.0809641724779595 0.5881068402968309 0.16423174373958813
H 3.0493006210191034 0.42786806027289165 -1.4763208410322333
