18
## STRUCTURE-ID: 6456893f82de411d275eb020 ; CHARGE = -1; SPIN = 1
I -2.5282648583549667 -1.7771811999777347 0.3254457692703983
C -0.5806467727823817 0.36452553870854565 2.1059229795512304
H 0.2340254285830645 0.9876640560581804 2.489097198183934
H -1.190905829368691 0.061825027745109895 2.980967915449541
H -1.2210797969928602 1.0009730204167406 1.486478100163742
O -1.37071736545019 1.4389748115116807 -3.2597277210602957
C 0.9944013293548628 1.733977202451135 -2.009353849958109
H 1.2335942109006435 1.510503438010023 -3.0397234266217183
H 1.8170392089977856 1.5138486890576837 -1.3422879416635116
H 0.6573401391709992 2.7574201274870433 -1.915218104607153
H -2.2728624665874055 1.1780955671055258 -3.4549267505216377
Rh -0.13277653130785816 -1.6239500403129246 1.4845271311302113
I 1.6480841260610284 -1.8419612585980207 3.4519300069774412
I -0.6294359961338806 0.4800380029230484 -1.467190467140003
O 1.716423218979301 0.11447229080660642 0.3502140210048715
C 0.5669085687243555 -0.21211122254839163 0.30365183320459466
O 0.7426680877793321 -4.335635279528209 0.5474392588564716
C 0.31620529842693257 -3.3514787713160246 0.9627540477800457
