12
## STRUCTURE-ID: 6456697da8c4b54116374198 ; CHARGE = 0; SPIN = 1
O -1.439001117650115 0.8426996868544456 0.829939298726993
C -2.0532363158814926 0.04544213089200759 -0.15429726213678344
H -3.085255411646393 0.38369651467058913 -0.2407771353935823
H -2.048670035792651 -1.0127711025415373 0.12685450543013937
H -1.5606933005491348 0.15912967056585473 -1.126092721540792
H -0.518472744550004 0.5382780434219611 0.9321971747964714
O 1.2518849623015575 -0.09325542629621826 0.8808021310822712
C 1.796950497777782 -0.26910397740672465 -0.41208004227280104
H 2.735971659340405 -0.8267608583950472 -0.37369307549826786
H 1.9635657083550306 0.691803118346799 -0.9073666543536587
H 1.069421473785959 -0.842957305240907 -0.9835501371221214
H 1.8875346245090638 0.38379950512877603 1.4280639182821244
