12
## STRUCTURE-ID: 64566a53e0aec708d83ae5e0 ; CHARGE = 0; SPIN = 1
O -2.586613451346536 0.5728964020027614 -1.2287309825354638
C -0.7043351813936499 -0.03886679358645175 0.014170772912204019
H -0.6745634849011599 1.0202177568908337 -0.18082382685525095
H -0.613030669816655 -0.6253640518191503 -0.8843987868552002
H -1.5459082601758138 -0.3345377776363135 0.6166972911657387
H -3.0861041673039655 -0.22358334460904603 -1.4452260712772795
O 0.5649294649491026 -0.4147268330031428 0.8789837937460045
C 1.8084690371577576 -0.058704945586805224 0.24615913093629832
H 2.6195903394751396 -0.3465044453544943 0.912442576578131
H 1.8525474558652508 1.0067061815504794 0.021355210142155332
H 1.8777080538047801 -0.6260190574677006 -0.6794166705733913
H 0.48731086368575216 0.06848690861902816 1.7287875626160663
