17
## STRUCTURE-ID: 64568a6b708f6d27084d91e0 ; CHARGE = 0; SPIN = 1
C -2.455473041773182 0.8677229832260743 -0.9359477428267428
H -3.0445880804078955 1.4638711832521496 -0.24123497883929876
H -2.6350096524780158 1.1975414884397546 -1.9621512469923332
H -2.8288974108162677 -0.15888210769059197 -0.8335943771794201
O 0.466154688894436 -0.32101840951413957 1.9359614992363434
C 3.1238341437116035 -1.5353729432892191 -0.2574666140140365
H 2.8997961960851995 -2.1517887646879394 -1.1210356577384468
H 2.6253747049270486 -1.909042770095577 0.6298327954285355
H 4.191478464005164 -1.4271461870475872 -0.10627404053038333
H 0.42759734632239066 -0.4513341547793985 2.9080416928824206
Rh -0.39230051038154057 0.27696596754536 -0.5477244946376036
I -0.4778407921401243 -2.301076664877383 -0.9938230892191348
I 2.3279741744655706 0.44998175378626243 -0.6378823178286395
O -1.5984149480333099 0.565449363042918 2.000780592420943
C -0.6137083802153873 0.21203862484802677 1.4146948380601299
O -1.0846340728338995 3.1819998588192795 -0.6547750159640056
C -0.9313428293318072 2.0400907790220435 -0.5974018422582719
