18
## STRUCTURE-ID: 64568b9f5eb96d352128a810 ; CHARGE = -1; SPIN = 1
I -2.007359997187794 1.7559140818880519 1.7252990655811877
C -1.533439850542675 -1.6844586579523213 1.3421509362990838
H -1.858511279940874 -1.3896830841929888 0.34597736143985547
H -2.366223959612102 -1.6056528538606714 2.0410080546112206
H -1.1805772476261847 -2.717750077329904 1.3213755718392872
O 0.2894208923213488 -1.2321173597231634 -1.0217502154149651
C 0.4928273380354454 1.6793826790130322 -3.2181748538366137
H 0.6950468613308852 0.628591799651749 -3.3884296172350656
H 1.4153009806854446 2.245213773444889 -3.1692505484942743
H -0.1651407711330366 2.074174374056786 -3.981331033101801
H 0.6862582835554256 -2.108196775689163 -1.025961049509301
Rh 0.7296174175720104 0.044092100368564466 0.4474504050007355
I -0.5057301720628766 1.8219260535493536 -1.3082514133818228
I 2.845147031724984 -1.4022571191983464 1.0557627270438177
O 1.6811985029158822 2.1872975470806706 2.302726241348519
C 1.2473673900083044 1.3613806739944903 1.6320785241190907
O -0.044889261506641194 -0.8138072688639861 3.01482380597725
C -0.42031215853754755 -0.844049886237038 1.8844960377137985
