18
## STRUCTURE-ID: 6456890761147a24ed76345b ; CHARGE = -1; SPIN = 3
I 0.9743578995205514 4.239568096135372 2.1886161506154114
C -2.2155194449976063 -0.6049551791872859 -0.8706377328085222
H -3.0603333406920683 -0.3214484666833058 -1.4892295043477581
H -2.183732587504316 0.031585742945631934 0.012626094415270728
H -2.298031691209151 -1.636147436194564 -0.540115495138943
O 0.09791222891903074 -0.9825640319955575 -1.018564218947576
C 1.1821812835690497 -1.8253282513790694 1.8886126863810544
H 0.9803367273839404 -2.498543147975656 2.7127432819278643
H 2.240052150469396 -1.6052636031948502 1.800821050724157
H 0.7817130846342234 -2.1928829604040883 0.9516976998725978
H 0.9271159783287282 -0.8883260145993895 -1.5221525924880253
Rh 1.1215909019738792 2.033011907285115 0.6821686261174591
I 3.2991093975492114 0.8745000113889052 -0.315695226267362
I 0.15746885760356383 0.047896503467780856 2.327410689347997
O -0.8331510666960009 0.15243235388113568 -2.6963534786602046
C -0.9404533779022224 -0.42237826119610705 -1.635385881307465
O -0.1878872462824362 3.1741005036525336 -1.6793609683014359
C -0.04272975466770803 2.4247422340533094 -0.7972011811345473
