12
## STRUCTURE-ID: 645669a2db34e4747b3ae5e8 ; CHARGE = 0; SPIN = 1
O -0.7737784199665871 -0.6172001568319052 0.46501302232727926
C -1.1349561974710936 0.09003277677303356 -0.7425503430803231
H -1.5440540150205986 1.074735001557978 -0.5246042299164846
H -1.8460722155937728 -0.5241208224884121 -1.2885352637354985
H -0.21016436722362555 0.20905289344664085 -1.3185554868439897
H -1.537716095072839 -0.6141470807169713 1.0857217698418655
O 1.9278743851670526 0.39781973193446546 -1.2000223040476152
C 0.3909666044927003 -0.04466572578503351 1.1103021608837447
H 0.1616070690292606 0.903181862053103 1.5888487428940985
H 0.7661951097540596 -0.7704188818633851 1.8232787927862604
H 1.150679641085074 0.13050883172517316 0.2828102015313202
H 2.6494185008203694 -0.23477842980469202 -1.2817070626406648
