13
## STRUCTURE-ID: 64566e24e833ea411564e480 ; CHARGE = 0; SPIN = 1
I -1.863451196242188 1.5456903906814128 -0.03561017971088018
C -1.971194249732815 -1.0254194898455735 0.24377057386136686
H -2.4953216961409135 -0.9118342675628318 1.1834769628563646
H -1.256251086416223 -1.8559469968336402 0.28848922567672963
H -2.6390195354128125 -1.1149495960554396 -0.6011256309513048
H 1.979102442483097 3.364616732971199 1.1132042532422153
Rh 0.26925599454877835 0.02323724919035687 -0.01935482783745021
I 2.326118810178595 2.751835247569143 -0.2962320580522329
I 0.5559187431284841 0.10332512374905702 2.6198941263742737
O 2.687935419082943 -1.7337601520134378 0.26844275520032634
C 1.7645016025528315 -1.0834388593038011 0.12036592398589425
O 0.3512839850514878 -0.026158911734269357 -3.0115368899702073
C 0.2911207669186388 -0.037196470812209066 -1.8737842346750928
