18
## STRUCTURE-ID: 6456893b950d5657024b6a5a ; CHARGE = -1; SPIN = 3
I 1.2530997174017682 2.543116309203578 0.7205784417219232
C -2.0043799025081768 1.9343054878964747 -0.8440763825483321
H -2.046603953864274 2.524835994860696 0.07340833185703313
H -3.0118562993632225 1.5981464114024533 -1.0883106874600952
H -1.6018341193108019 2.5595630844611206 -1.64091059294781
O 1.3287141181873652 -3.4821475156538098 1.3665844122256747
C 0.5430664283526218 -1.0016802264619917 2.365858459871985
H 0.7385821687117468 -1.8556070418388424 2.9994094080915854
H -0.4973652496270795 -0.9661272278533212 2.064451968581379
H 0.8586569428250813 -0.06912894231171296 2.8204490523932786
H 1.8378776318680976 -4.09782331819593 0.8390399007817979
Rh 0.7680699821590234 0.711060218085919 -1.1257009295644802
I 3.2422259767585078 0.6521026274428705 -2.2571935434453003
I 1.7051244161513572 -1.3055529644039792 0.5999910237393165
O -1.5478855945858334 -0.24887635362798893 0.022358867077191043
C -1.1431012996940093 0.7307919918287803 -0.562826450580503
O -0.4525492861790319 -0.31402476922225325 -3.661031276330155
C 0.03015832271691762 0.08704623438792605 -2.692080003464499
