12
## STRUCTURE-ID: 6456662066a93847cf293426 ; CHARGE = 0; SPIN = 1
O -0.3414119316903135 1.4075548072176516 -0.6863170693528584
C -1.3282587188813775 -0.2817104091275904 0.09636553662477156
H -1.4241375354226753 -0.6585119256299923 -0.9077216062989113
H -1.9905923936460648 0.5311165104054576 0.3409771600360283
H -1.4003731860317903 -1.075424869643032 0.8380602801240428
H -0.6501718200005522 1.3752255601720165 -1.5920422339685973
O 1.7192684673853862 0.08336411414113452 -0.5819429968783739
C 1.2701840433642806 -0.45661180159553777 0.585141053421823
H 1.552891483072401 0.1115065981899853 1.4799173854355119
H 1.5241766308019706 -1.5141972308776226 0.6719072972923646
H 0.09482044874531358 -0.3347385804439472 0.5196293815361568
H 0.9736045123034193 0.8124272271914716 -0.7639741879719562
