18
## STRUCTURE-ID: 6456898e876a63184240f1f3 ; CHARGE = -1; SPIN = 3
I -0.6694910288967687 -1.0917516078114329 -3.527827326176377
C -1.9066248702181794 0.6530654081427533 -0.28330495973285924
H -2.416465124669963 -0.04724370380881901 -0.9605327040367703
H -2.3026860732654257 1.6525407546288378 -0.46513571366883905
H -2.15963186766823 0.3479995640778316 0.7305416669229537
O 0.14414983664205333 0.5655001490929119 1.5351465115424543
C 1.6580436861324626 -2.417700725572451 1.5343904269936373
H 1.486997373998663 -3.186843173650128 2.277221863818547
H 1.722697352918257 -1.4330071375619455 1.9804172425533486
H 2.5351245733674106 -2.625413794857307 0.9320143012380606
H 0.3047883679917099 1.1506547089095485 2.300118384579462
Rh 0.06532526671045857 0.2435889983174398 -1.2542862930999488
I 2.7558713822312133 0.2173942624376965 -0.9756674301752113
I -0.055348889972743016 -2.403622032682269 0.21121512504698295
O -0.05937829949100768 2.5090854174876127 0.4566743684034422
C -0.09769496477970867 1.2904408871162214 0.4193115971656089
O -0.9387490450831117 2.652476002106956 -2.5689773581115705
C -0.06692767594708553 1.9228360236265332 -2.3413197032629594
