13
## STRUCTURE-ID: 64568b225f2c03686d67f9c0 ; CHARGE = -1; SPIN = 1
I -3.0575672224821133 -1.6029901425104962 0.8327704698726175
C -0.7950934072294356 0.9061854389934438 -0.9255861249652545
H -0.03588750083994085 1.6846636188025546 -0.9616782895404925
H -1.7938238895468919 1.3426368098049581 -0.9706358221738736
H -0.6628826909078489 0.2612259889352201 -1.8135756417555475
O 2.09316255689608 0.09414740840663288 -0.3834405054254226
H 3.043080756572803 0.18017276344404975 -0.15991792792352227
Rh -0.5163572238371815 -0.8715561717273828 0.3108424431733786
I 0.2569864658644606 -3.153178620195093 -0.7173181794489235
O 1.867235907784569 -0.8701563709236594 1.626431939139392
C 1.3938655057222815 -0.5156978621327427 0.5603212543670122
O -0.9627448258070341 1.755204245994148 1.6144055688889902
C -0.8299744321897219 0.7893428931083953 0.9873808157916354
