12
## STRUCTURE-ID: 6456677679f42e6d54051b88 ; CHARGE = 0; SPIN = 1
O -1.1312285044615635 1.2446701456001628 1.0231561956023651
C -1.611751254601069 -0.04422708589332633 1.326056634333336
H -1.8230861654722759 -0.61697681362378 0.4170671336439093
H -2.5376331069414353 0.08480746304098195 1.8853946387581821
H -0.8991869644296783 -0.6028637871210549 1.9411330226712211
H -0.297568842799901 1.1460769127552557 0.5331410138808386
O 1.2839336601359082 0.47796913632403487 -0.3497521982558745
C 1.232626516935978 -0.3798917837770907 -1.4708162646604788
H 1.4785003527884228 -1.409409039436704 -1.1952197270351896
H 1.909681184980572 -0.04361352838242441 -2.2604190138841624
H 0.2112152148323237 -0.3473223388357625 -1.8454862300734527
H 2.1844979090327157 0.4907807193497087 -0.004255204980688081
