13
## STRUCTURE-ID: 645673e73eaf9f042528a807 ; CHARGE = -1; SPIN = 1
I -2.2591503242741595 -0.2721593578216825 1.8247514684113944
C -3.4267719437434105 -0.6096232370639522 0.05342330909405869
H -4.223348266281336 -1.2938890290437368 0.3129227377328459
H -2.765637843095085 -1.0328286627015726 -0.6973709462266408
H -3.813133407271453 0.3475419416998238 -0.2701178122420334
O 1.9190235598795198 -0.8626550627864212 -1.8931599531014907
Rh 2.0913816938444185 0.5275779688377943 -0.3556570648752168
I 1.5966361065683925 2.4513402049071114 -2.0591932497612886
I 0.02199359396879701 -0.9448321945146692 -1.4532562805441962
O 3.275684156947712 -1.7749213894685343 1.1412034681537393
C 2.8129276017080693 -0.8564074736140966 0.6259501993435582
O 2.4766873214466956 2.5584396345124394 1.7914041518626516
C 2.293707750301827 1.7624166570575617 0.9790999721525602
