18
## STRUCTURE-ID: 645670f38a20786b0e67f9c5 ; CHARGE = -1; SPIN = 1
I -3.1258012172153196 -1.3417087552726188 -1.4439619102916188
C -2.366980293323682 -0.4629034972325486 0.34143724009260945
H -3.0592435757678182 0.3013388268984069 0.6714877277799229
H -1.3830652460536896 0.009926268406525805 0.10787452133688111
H -2.2617620548661987 -1.2397524857472066 1.0887337359925853
O 1.1605261646982439 3.3176885252853543 0.5686947439653853
C 1.884160549455687 -3.107782518807425 -0.04109870372698976
H 1.1389618277028117 -3.2236976538974806 0.7374528291517441
H 2.806080749344309 -2.7187748082212244 0.37528211585433513
H 2.04379704614438 -4.030316835955396 -0.5854859707825366
H 0.8827187999476426 4.155031557306817 0.9891809866008017
Rh 0.5711086696333012 0.7105534246951215 -0.3051000059072596
I 1.2220617284225592 -0.07597155817971044 2.097146678580849
I 1.133465478531991 -1.6362963115083948 -1.4718325859114534
O -0.9854370326357365 2.7997178848419524 0.879562310330449
C 0.12165549339248323 2.4419141724060585 0.47998508203442053
O -0.0069837798992252766 2.431377776686957 -2.6702694023603946
C 0.22473669248825548 1.6696559882948079 -1.819089392739711
