13
## STRUCTURE-ID: 64568bfb1bc86d7e63399e40 ; CHARGE = -1; SPIN = 1
I -0.9983450984550363 -1.7224831608167812 -2.1894460682614074
C -1.291418852700843 0.8143010937557875 0.7437349807130474
H -2.076521454650281 0.31410744938466184 0.16009885432708948
H -1.416676677994711 1.8888577112841438 0.6215467176218628
H -1.433271850610557 0.5288338624596064 1.7857370775099033
O 0.9800050490128935 -3.722729948596918 0.654747458838588
Rh 0.3582616418378423 -0.20042557782344367 -0.37671345731398076
I 2.9064809932281777 -0.9276662306204897 -1.0820530327397095
I 0.2485948274824387 -2.198344839214406 1.4308777247703024
O 1.0713255793251626 1.6785522806626876 1.840479754297732
C 0.6935372059105885 0.98007378269008 1.0124018161844477
O 0.5311168661499145 1.5934515040833301 -2.774459620621446
C 0.4269117714643922 0.9734720727516751 -1.8269522053263816
