18
## STRUCTURE-ID: 64567355e1745d51692cdf83 ; CHARGE = -1; SPIN = 1
I -1.9408294732135312 0.22499427535884248 1.5870193606335259
C -0.8018000054592795 1.3062216534458193 -0.5963911049522174
H -1.8079003840716676 1.482089070193055 -0.9292247827064533
H -0.38659546895769215 0.3174756983568726 -0.7003560376123246
H -0.3721699029102231 1.9773313746972927 0.12299053715825563
O 0.26419346814338523 -1.7691269111926893 -0.39522212110432564
C 0.11894325775514787 2.031445414454263 -2.0970652828985115
H 1.0799219851020687 1.8166602012568742 -1.6641075591016643
H -0.3314825003934893 1.3189629106480705 -2.76287686410896
H -0.33388324769994254 2.993733415087999 -1.9438654210513047
H -0.12668433570789878 -2.5516546752521827 -0.7880614314977376
Rh 0.478816894393117 -1.657235469416519 1.6688605469083675
I 1.286605244116824 3.0086411281229495 -4.077639519905911
I 2.2072474272243814 0.3115505358036841 1.3364419147511193
O 1.018738494411185 -1.5678931407262824 4.605808756632175
C 0.7881462437484915 -1.5913108266284766 3.473044447097754
O -0.8090676416209248 -4.344882063993532 1.4923819719153457
C -0.33220005485994825 -3.3070025902160363 1.6682625898428738
