12
## STRUCTURE-ID: 64566a1eca1b3126725fdace ; CHARGE = 0; SPIN = 1
O -1.3761896959386228 -0.42181681286413225 -0.35052178567906095
C -1.2161518479707265 -0.7563301071012711 0.8006974166836849
H 0.920600917743088 -0.028263884034662144 -0.824509743597039
H -0.8356199506964329 -1.750351521792204 1.0722677056680754
H -1.5979665812456303 -0.1630260299904072 1.6429229381895432
H -1.6293620777745323 1.2510832981586957 -2.2982298297106185
O 0.7863193828962454 0.044712825095074106 1.2395912834589422
C 1.536423304857084 -0.20029779785363583 0.06520366198907174
H 1.8329858560626588 -1.2468333328041545 0.09375310805665464
H 2.425987090852073 0.4288696483358639 0.028077856067515304
H -1.4818925302242352 1.8444457518472757 -2.7807928879169124
H 0.6348661314390269 0.9978079630035542 1.311540276790149
