12
## STRUCTURE-ID: 64566af3ee55652c63068a16 ; CHARGE = 0; SPIN = 1
O -0.793581580159103 0.10919973772558084 -1.3874739588645442
C -1.181827681698763 -0.06850667727181917 0.6739179335127485
H -1.9713167062747408 -0.6455377741590865 0.22345766943920917
H -1.3545276940620152 0.9938901429047317 0.7000602721480973
H -0.9261923472267899 -0.4623707317018791 1.6562460136310462
H -1.219309276143338 0.9475729619398274 -1.5683049391277533
O 1.5270202822166905 0.610217226829251 -0.776599883711943
C 1.422060220718412 -0.30070403224521125 0.23075863281105072
H 1.6907125119397695 -1.3236247906091514 -0.06034221175914887
H 0.25983741566299534 -0.35211725069613276 0.4459112478538879
H 1.9469324537638915 0.021851434209945415 1.1313486508256887
H 0.6001924012629971 0.4701297530739433 -1.268979426758343
