12
## STRUCTURE-ID: 645668ef8068097c0032dfdb ; CHARGE = 0; SPIN = 1
O -0.33667333940366 2.6290351456353274 0.8199210639614671
C -0.6159518790087875 -1.1858270715428372 0.596759354995423
H 0.16322183431748213 -1.4820309877319529 1.3077541530331662
H -0.8597536905477715 -2.042222537238481 -0.041152303545464015
H -1.5036758911963346 -0.8686776127893502 1.1390348594812294
H -1.0547991981431237 2.9728983904238246 0.2827092446699118
O -0.19942531398017127 -0.08390170314784504 -0.18043302994809785
C 0.9396321190888763 -0.3647482710180484 -0.9652495558301397
H 0.7376341218776061 -1.1820457257187957 -1.6658728550894926
H 1.7933410407434225 -0.6371416771436584 -0.33514531375872986
H 1.1707294517675018 0.5428907650223065 -1.5178941760797515
H -0.23427925551498793 1.701771285249528 0.559568558110415
