19
## STRUCTURE-ID: 645679d12908495cf73d7d86 ; CHARGE = 0; SPIN = 1
H -3.9882007141066986 -0.5786430474312004 -2.7793645702884864
I -4.368360770208854 0.4399307956288232 -1.626247383622625
C -1.9152113255735363 0.7061824201197201 -1.1489449290225588
H -2.0257004297730403 1.5540445475079963 -0.4843420846076709
H -1.8333579141236158 -0.290779681131468 -0.7290882992938857
H -1.698649112209712 0.885296194699425 -2.195135413964863
O 1.9632724383218763 -3.2270355694909894 1.9891676399281846
C 1.2296311640351574 -0.6613048123887911 2.558749550254204
H 1.3365596943084093 -1.4958641413801201 3.2343021117881783
H 0.31288710025725014 -0.11669044932257787 2.7492700780691965
H 2.0930977022699038 -0.010540707606979238 2.6335408410074264
H 2.112090032475225 -4.028597283971947 1.4909484633294954
Rh 0.6372289536798368 0.6309061868279121 -0.8777989054580085
I 0.5884238614594731 -1.2282285157223582 -2.692545309381149
I 1.1683465345189634 -1.4893068441169697 0.6169902665842452
O 0.9991993672970365 2.386332070111906 1.5133170272524297
C 0.7932924549017631 1.7203987126649536 0.6036407262164779
O 1.6051179067285282 2.774934921032896 -2.7301868255561996
C 0.9903330557419588 2.0289652039697432 -2.1262729832344727
