13
## STRUCTURE-ID: 645689d8c0a052302c2726b3 ; CHARGE = -1; SPIN = 1
C -1.3414633775955893 0.3332263970140723 0.15108700202756126
H -1.4953505610772095 0.486815665052999 -0.9161413311506025
H -1.3323407427761775 1.2929474326197707 0.6789984240184846
H -2.14048941126152 -0.30005676444169005 0.5385035715437475
O -0.3839681387919099 -2.276479925733033 0.16264722090497574
H -1.0618695843648855 -2.487495768549145 0.8141078253047976
Rh 0.5183549182621113 -0.510521078756886 0.5750769820039345
I -0.07684495610190296 -0.7874783804217205 3.1037988915998036
I 2.66587834770805 1.0207245016576993 1.1110823857110352
O 1.3984970250449242 -0.7056812578289936 -2.2515809810389458
C 1.0327614565824028 -0.544977005985182 -1.175718549540807
O 1.4208270294071608 2.3041958539610756 -1.8674672254323956
C 0.7960079949645533 2.174780331411037 -0.924394215951585
