12
## STRUCTURE-ID: 64566943f6902b5ea7750f04 ; CHARGE = 0; SPIN = 1
O -0.03538395268863431 -0.41547740437581 -0.358757426581981
C -0.9159471075519288 -0.5793397537290391 0.7737748987633923
H -1.0539568173537253 0.3541796923041819 1.3186566172878165
H -0.4826952414434851 -1.3393077617190219 1.4215126514444152
H -1.8774720162700265 -0.9228133994351947 0.39830338978115815
H -3.96970109676642 2.629600746524065 -1.0458762780680488
O 2.0278914127197813 0.3014745189199572 -1.1343970853773149
C 1.3588096282466622 0.04759428089720288 0.004777079475062223
H 1.755382866984147 -0.7708026375084828 0.6154621942370548
H -0.41988221396139014 0.22472166844236416 -1.0015661078358435
H 1.2680156440505592 0.973833517707124 0.5812801487250006
H 2.344938894034469 -0.5036634680273514 -1.5731700818507142
