12
## STRUCTURE-ID: 6456676164e01a1de21fea70 ; CHARGE = 0; SPIN = 1
O -0.829358914191841 -0.21634689042942096 -0.7293055852735275
C -1.7994967242432394 0.046617407239260396 0.30189698824605665
H -1.6800462636188571 1.0464364129025618 0.7185375861947348
H -1.6494194539459706 -0.6913465703599951 1.08691626600292
H -2.79124307607648 -0.07576372011745251 -0.1294584524579775
H -0.9581345185910516 0.422099311874686 -1.46251736160241
O 2.872783176846584 0.24502309265962163 0.46609057529836495
C 0.6641359869256389 -0.05744280182116563 -0.23532050800581153
H 0.7888723860677358 0.9457111890746083 0.13701871901555238
H 0.7834535360133306 -0.8000580600409304 0.5354450540765184
H 1.2649211283694282 -0.26392396980709903 -1.1043988996736374
H 3.3335327364447043 -0.6010054011746657 0.41509561817923585
