15
## STRUCTURE-ID: 6456b78be70b222a5261a6d4 ; CHARGE = 0; SPIN = 1
C -2.8146774601223834 0.46967837849426936 -0.38983613351134483
O -3.6878199815773067 0.5422109361238373 -1.1075645159112222
I -1.1722156744521397 -2.0532457551484993 -1.0988773256183346
C 2.068480658478849 -0.8739602814824182 -0.49316082756545304
H 1.8146366597849806 -1.8110532875087693 0.005988529411996137
H 3.132341009337278 -0.6705483054139726 -0.36726854120647473
H 1.834560311816577 -0.9963210042085339 -1.5505017555285885
H -1.1983491901683887 -2.3165329718245946 2.3106082222010493
Rh -0.7770398996776471 0.35370562958957996 -0.015373718371974935
I -0.7667034353304043 -0.8088049761100939 2.5907511970786246
I -0.2576439888863564 1.5186565666753131 -2.4069188869956792
O 1.7852015293075105 1.1487694374056656 0.7410923931352481
C 1.3071560074776147 0.25415975902089394 0.10410676722998273
O -0.6037758800268527 3.159217550922973 1.0165100901037714
C -0.6641506659613573 2.084068323464309 0.6604445055484166
