12
## STRUCTURE-ID: 645666fde3571362344b65fb ; CHARGE = 0; SPIN = 1
O -1.816218752177757 0.1421686620979711 -1.098662395442949
C -1.3235793728339067 0.31221995865580426 0.11767799603906957
H -1.9450639692548586 -0.17993169653782023 0.8682406824439463
H -0.9840530154775506 1.311843949832117 0.3952880009693773
H -0.24450767416243868 -0.35492231776039224 0.20864049044311742
H -1.4638836753535414 0.7511372557213879 -1.7687806960871268
O 1.279166207798358 -0.9314675042451396 1.540244728864159
C 0.7716046500536904 -1.110537408739017 0.3319655730092417
H 1.3709727394996065 -0.8048344639699017 -0.5278957681283819
H 0.3162777608519371 -2.097676720864727 0.23605801007429622
H 2.1318379035293584 3.155069985122804 -1.9145877766119306
H 1.907447197527151 -0.19306969931305717 1.6118111544271654
