12
## STRUCTURE-ID: 645664cccc2bac76577cab88 ; CHARGE = 0; SPIN = 1
O -1.1933842752703627 -0.8933165262274412 0.35093395291213986
C -1.7066772588075605 0.3859372487762703 0.6659703586156285
H -1.407819803480647 0.6972168903727642 1.6708228778254834
H -2.796387187781508 0.40619289507555983 0.58809735143515
H -1.2884171880546043 1.0798111710829517 -0.061029210209208526
H -1.57972534782792 -1.5426967142662946 0.9510969743170015
O 1.6407068230936954 -0.902692933039169 -0.061169835945814884
C 1.8564787731735473 0.21964613455301638 -0.8832764211152455
H 1.516927840006243 1.1416040442536388 -0.39888186572486
H 1.3474432024373613 0.11444955684819626 -1.8467493828896173
H 2.9301267422259363 0.28714390821339547 -1.055724040527441
H 0.6807276802866101 -0.9932956756438662 0.07990924130641529
