18
## STRUCTURE-ID: 645688db58c5374a194d91dd ; CHARGE = -1; SPIN = 1
I -0.6664574740148026 -2.4753709746102888 -1.9545230135133878
C -2.05571122518581 -1.4865904752975483 1.1675650949150504
H -2.617522655760066 -2.36424545890365 0.8496071139706645
H -2.47036147783089 -0.6323084747460682 0.6144416874691953
H -2.20481946821128 -1.3189832803725605 2.2327471551304146
O -0.012664544569218377 2.821701707683633 -2.623018318128667
C 1.8686471742011626 2.049387423337055 -0.8244886692968552
H 1.829857697535619 3.075054922964455 -1.1638817530476997
H 2.5030315501073788 1.453427549629658 -1.4695091518838892
H 2.180293532298183 1.9706401730090188 0.21032632632823395
H -0.7601015602838731 2.778208742506279 -3.2198194692060245
Rh -0.017331921659618627 -1.1426243874100916 0.3421233341012515
I 2.6701796869417533 -1.4459907423061553 0.139070686238824
I -0.11857907800244143 1.3103387645654574 -0.9792008883254784
O 0.5432098833174217 1.2172997424013365 2.1267672028698903
C 0.2568380865131943 0.45517376306062357 1.2862587237792626
O -0.5041337526128277 -3.622778973653876 1.9367773784062652
C -0.42437445278389424 -2.64234002185731 1.328756560192918
