12
## STRUCTURE-ID: 64567b084fde255a55399e3d ; CHARGE = 0; SPIN = 1
C -1.5473821434369612 0.02168450119019436 0.023009986442052755
H -1.9633762738267986 0.5802796361989525 0.8606788675939139
H -1.858504858186328 -1.0250413316623987 0.0786054136194433
H -1.864467220814684 0.46696095024982603 -0.9183858180041499
O 0.6826817959870983 -2.0993682646155998 0.17511845957377187
Rh 0.573725804919966 -0.035025973214351976 0.19711051285261236
I 0.4876582036704931 -0.04414646402336509 2.8230217107028777
I 2.607263636967463 -1.9699083922348026 0.32807483670615084
O 0.7954342096473572 -0.4608545111141582 -2.7544166936913532
C 0.6884914239314032 -0.19536090434186007 -1.661054625722378
O 0.7278003716830987 2.939757305905196 0.5063371636754792
C 0.670675049457898 1.82102344766237 0.3419001862515822
