13
## STRUCTURE-ID: 6456893e368f2e767e75cc20 ; CHARGE = -1; SPIN = 1
I 2.0819941412714322 1.6172815620353487 1.2880724961828556
O -2.2674455956701105 2.3951488204134037 0.07454075598698712
C -0.7282560479508485 0.22761817435427636 -0.7503482307529636
H -1.6156424444951047 -0.03075099696472879 -1.3258830060922615
H -0.34439981030656863 1.1688444090155037 -1.1594758767449074
H -2.5566136997358 3.1023264735297866 0.6556726147119898
Rh 1.1835496131845804 -0.6097978376321246 0.16648239679167454
I -0.6036778317948575 -1.600895535100904 2.44888700320781
I -1.5475378628358236 0.7979700042282996 1.1280204230143498
O 3.6854842987740213 -2.204047638197762 0.514215195159036
C 2.7065229642269335 -1.608060980013596 0.3702867258355755
O -0.21927258651980963 -1.8929827835923192 -2.1804147818473556
C 0.22529486185192799 -1.362653672075259 -1.2300557154527176
