12
## STRUCTURE-ID: 645664e17d0ce05e5b6cd4bb ; CHARGE = 0; SPIN = 1
O -0.26762926112555524 -1.8128785269572112 -0.19604288952088406
C -0.2901168555947823 -0.616443863225077 -0.8111560323171304
H -1.2656615324794942 -0.3034949402203669 -1.1964433772793788
H -4.335827145730097 2.256599011976358 0.3727260598936057
H 0.4783482868652433 -0.6149282296515081 -1.590976183502486
H -1.0463449289803093 -1.9616857045383058 0.36102011751796464
O 0.07280935553585874 0.44044326336231876 0.20470672568020445
C 1.4493464137178689 0.3426669709412895 0.6545090399667138
H 1.5574981903346223 0.99504138926014 1.5176677751420669
H 2.145148021954774 0.6238963862289657 -0.1349516506728211
H 1.6165088106816055 -0.6917608037141303 0.9516374577237983
H -0.1140793551797261 1.3425450465375275 -0.13269704263165888
