12
## STRUCTURE-ID: 6456670cec3e444acc1f8bd0 ; CHARGE = 0; SPIN = 1
O -1.3763142840001332 0.019816213966893884 -1.5543330045771093
C -1.2128438767067236 0.03183738607459315 -0.2947830053272154
H -1.0093784082054107 0.9893478143480501 0.15659667826539142
H -1.1235475933300005 -0.8608129431607816 0.30148497416949593
H -3.032772729265637 0.1538409501565468 0.4297946932804709
H -1.525137113012623 -0.8632097235473268 -1.9474026787579948
O 0.9909538741529759 -0.2341596078914429 -0.39037640914326477
C 1.6145268207935728 0.059978089142745904 0.8463907455799181
H 1.1448830397546979 -0.5698665979499371 1.5987835553313048
H 1.480000770503745 1.106974259012088 1.1255710314663634
H 2.6803686947508254 -0.1720947116956243 0.8018790701924686
H 1.369260804564716 0.3383488715441996 -1.073605650479838
