18
## STRUCTURE-ID: 64566fad20d1ef24f03288a4 ; CHARGE = -1; SPIN = 1
I -2.2185863102977335 -1.011964712652546 -0.9219890429126153
C -3.874408298772841 0.2973699632204091 -0.39440949107721546
H -3.9294880301598214 0.32706479153456935 0.6866137099465731
H -4.770124706619024 -0.11958505035866068 -0.8370163377386144
H -3.6421000831597716 1.280702705478229 -0.7855585353683783
O 3.3177268692174637 1.7095622634446073 -2.1352751413285085
C 2.8376135139241563 -0.7099349570728709 -0.9311766060138161
H 3.4052754904060745 -0.9210690890508185 -0.030996086918822236
H 3.4998495750731764 -0.4420058893199531 -1.7391446644297752
H 2.217564464670352 -1.5595121771162075 -1.1984691452231828
H 3.175695149700548 2.622328648148917 -2.3854531634303697
Rh -0.13140365407400276 0.023725127534115136 1.1834180789580993
I -1.0137302496938805 2.464117493637621 0.856285539088293
I 1.5992124788047706 0.9614697044681613 -0.5797006502584209
O 1.6178057675032094 -2.3735946867579703 1.5766363483270671
C 0.9250856832831574 -1.461641687567876 1.4187438374811643
O -1.794993905989896 -0.6963435412870584 3.581424271408065
C -1.2209937538159212 -0.3906889062826768 2.636067079490468
