12
## STRUCTURE-ID: 645666c72bd91f049a32dfdb ; CHARGE = 0; SPIN = 1
O -0.12083159529782789 -0.2773538825661947 1.065310962295046
C -0.45674121564671205 0.45662734446689646 -0.0029567906317796086
H -0.12078346627285474 1.5000466259999767 0.029229313552817486
H -1.5303598469704545 0.3618274867176615 -0.18218835106797007
H 0.09792338915166665 -1.0771281275988585 -1.2927053275846354
H -3.6471484475704976 -1.5093774872845225 -3.4655581786681138
O 0.2722860755139452 -0.10837047499794546 -1.2284876511609413
C 1.1445867862833135 0.02850885826948018 1.6605196333148124
H 1.232009474014424 -0.6246141747234224 2.5238552400181002
H 1.1695841328471939 1.0704710021345123 1.983787572889108
H 1.9617124674586541 -0.16746615295635356 0.9656290128024329
H -0.002237753510848394 0.34682898253877914 -2.0564354357589076
