19
## STRUCTURE-ID: 645679c9ac275a3a1e15987e ; CHARGE = 0; SPIN = 1
H -2.3254738282194887 -2.732151926854515 -1.790702620763345
I -3.784742141236451 -3.3604477051760293 -1.8376841992340616
C -4.240833059719688 -2.8850541211292873 0.2199080259404235
H -5.264840232363495 -2.5251652597364087 0.2428530856752771
H -4.104772309627244 -3.7970697914378304 0.7922073627754957
H -3.5059058342912275 -2.115236236040531 0.4605955646628701
O 1.1749797605951613 3.3484140811317684 -2.5468294990347053
C 2.7142479887565862 2.880083108875424 -0.3753710388709415
H 2.735839940639912 3.6646143358443326 -1.1150326706508196
H 3.64214874248762 2.3147581508888777 -0.4025899907179195
H 2.558305675458862 3.3018253091307765 0.6140770453406114
H 0.49164606663375815 3.2649415827886887 -3.21187690675293
Rh 1.17545394841011 -0.15710191079123725 0.9878490210099696
I -0.7741939784193792 -0.8085911425406118 -0.4708248525568815
I 1.1252083797259065 1.6329925457895094 -0.8611452048991416
O 3.5488692576744096 1.191199634083401 2.205934105889221
C 2.63389169171055 0.6444303975616059 1.7654700173478832
O 1.1140119853929078 -2.330317119318445 3.068033228179559
C 1.086157946391187 -1.532123933069457 2.255129526659423
