12
## STRUCTURE-ID: 645669b917003764a7051b88 ; CHARGE = 0; SPIN = 1
O -1.581043289418175 -1.1262700770701035 0.2864425372357078
C -2.0754220719202547 0.003567764687650973 -0.39832851402405717
H -1.7480012589685232 0.9336110122987821 0.07648255604094938
H -3.167954483036136 -0.006736522898748473 -0.45681868513846713
H -1.6687695067045876 -0.03961712037307814 -1.4071491706776524
H -1.9593648251230582 -1.1405158895944851 1.173803735518291
O 2.995581732252518 0.7269103368318379 0.18427195713238698
C 1.6761850555818476 0.2256265493289233 0.19256862375060813
H 1.0703062691960548 0.9559739232204219 0.7251851281339875
H 1.6108789870429518 -0.7352172971212394 0.7107482794346985
H 1.2819444993984397 0.110155483027764 -0.821143408546854
H 3.5656588916989205 0.09251183766226795 -0.266063038859724
