36
## STRUCTURE-ID: 6456ec272c8a1458737c7c34 ; CHARGE = -3; SPIN = 1
Rh -3.0391619649046206 -0.7350566191902987 0.4221834632145847
I -5.41802344759857 -1.1118581226501076 -0.6068249061690433
I -3.2148904638980413 -2.5820662052599097 2.3361492104976445
O -1.0361493094940977 1.1383365389865656 1.4607836680358093
C -1.4810582937018577 0.07172543499034292 1.1293316301634178
O -2.901943760110252 1.9067109399494622 -0.6405563587696915
C -2.7679559173341084 0.6909632091338086 -0.8648902733645116
H -3.405968868273427 -3.6887190163970387 -0.9324557768650151
I -2.128187776448615 -2.7393980256062416 -1.203870757325122
O -2.3981772577493103 0.3200747480760389 -2.135960664711607
C -1.6978846589920293 -4.5812946588734205 -2.540730349249705
H -1.6110240558940903 -5.4376389899292 -1.8840192377807221
H -0.7682956409983495 -4.378229469182361 -3.055351430823759
H -2.5273052470868884 -4.665548228798709 -3.231310131806345
H -2.2630728375141382 1.0932313706866712 -2.7136114933902338
O 1.6360986270768891 4.043455632894374 -0.781840700497868
C 0.9054114377312227 3.074854024964906 2.71313358723387
H 1.366724478673011 4.009158446296362 3.0117232431548797
H 0.27583780963397625 2.69588598763463 3.51182487357368
H 0.30101777312187117 3.231206530100486 1.8200546786949399
H 2.517790228073012 4.450480131603875 -0.7118824835271391
Rh 0.40006411586330515 -0.45749456825655355 1.9116431501313533
I -0.13767139462082578 -0.17813988369453773 4.519904757289372
I 2.416010648260292 1.6619410873589933 2.227350170376973
O 0.11218753585183931 -1.0179852819130593 -0.9385498810357704
C 0.8679040388066577 -0.7361556895922513 -0.008627013916627724
O 1.3043386827035142 -3.2898685663338414 1.9940183280378452
C 0.9980929249009616 -2.1781247188323514 2.0357470123136245
O 2.2046459956907714 -0.7283578756956327 -0.2887063695122434
H 2.3822379426800424 -1.0359241182393863 -1.204142973270782
Rh 3.338048662288035 1.7261117479544255 -0.16756911986495093
I 5.133958381184426 0.41036635481249484 1.2286988249351152
O 0.6347079496751095 2.0707702655554057 -0.8943815387822989
C 1.708959403769142 2.6537420266978082 -0.7232090614581284
O 4.283911376209991 2.2580086672977173 -2.9477213082977314
C 4.008822882425157 2.0348368934505556 -1.8463347672338126
