12
## STRUCTURE-ID: 64566b196465f35f4b5fdac3 ; CHARGE = 0; SPIN = 1
O -1.8474016431904212 0.5880716870541447 -0.5045793350699982
C -1.1599249139580756 0.012902408962638452 0.540675380407724
H 0.37027532094148086 0.2377339744281284 1.4764111791624188
H -1.287388897368274 -1.060879871686455 0.6514117059060555
H -1.4718979540860582 0.5654264026620451 1.4209502706080337
H -1.8185345117002853 0.051988888685707474 -1.3101395225340282
O 2.0727345649180795 -1.1129068629744968e-05 0.20163478529000467
C 1.2359043382179609 -0.12630539748952405 -0.7936639950519236
H 1.2472397623264242 0.693896372660465 -1.5254563790390436
H 0.1412632311480632 -0.04043624564457387 -0.2658856280037693
H 1.2238068981934738 -1.1164881554993658 -1.2711101821023165
H 1.2939238045575867 0.19410106493550586 1.3797517204269512
