12
## STRUCTURE-ID: 64566656d7222d473f2eaab3 ; CHARGE = 0; SPIN = 1
O -1.958476964265126 0.17148647008180645 -0.7979453668830859
C -0.6934516279681339 -0.33900112712156 0.12831317019211314
H -2.8123512014371457 -0.12736734213297507 -0.42080812758467884
H -1.0062775104269828 -0.11091888749831028 1.141434408111861
H -0.709549128624981 -1.4012536399949913 -0.08546851201344055
H -1.9256514909467644 1.1490839959493713 -0.8559289231186163
O 2.518213903019634 -0.6498667719407543 1.308556958892686
C 0.5287349736302834 0.3301239413096964 -0.27578951125864554
H 0.5356685011571499 1.3978670648630427 -0.08448342406221804
H 1.3796928361133414 -0.11290539668971254 0.4172273687118514
H 0.8306249888469038 0.11302996440287967 -1.2940405245256552
H 3.3128227209018206 -0.420278271228493 0.8189324835378351
