14
## STRUCTURE-ID: 64567af53aa3d570426f2ca3 ; CHARGE = 0; SPIN = 1
H -2.196924329140033 2.7727143831835797 -0.5408816699765131
I -1.2832258797742164 2.395038831017618 0.707019745414471
C -1.7993665270325554 -0.22199823359815565 -0.2166653599200235
H -1.3720929497908734 -1.1172057449449668 0.23767987976821572
H -2.731067175695423 0.05426055713071506 0.2520885425673475
H -1.7623240957135982 -0.10388380051087681 -1.293125157982819
O 2.0219902423251703 -2.5882280505179205 2.604540646350749
Rh 0.9629051465719363 -0.45995083319999475 -0.29973738169496145
I 0.5383784352457823 -2.001582622039242 -2.3601323074864395
I 1.4626288106272487 -2.7476471797882644 0.8431731699870993
O 1.9360422264257502 0.733221251334188 2.264231387243899
C 1.5272405872916084 0.3515013838464305 1.2713156227661937
O 1.4891323124466116 1.8990609523204238 -2.074856179940845
C 1.2066831962126425 1.0346991057664565 -1.3946509370963307
