12
## STRUCTURE-ID: 64566ab112f03e5eed7c7c48 ; CHARGE = 0; SPIN = 1
O -0.5141318317138086 -1.4636153349651204 1.037771099970956
C -1.4496889940151612 -0.477652220954922 1.4047129927485287
H -1.8798773566564544 0.012592032230622519 0.5246899289264277
H -0.9984547249679451 0.2819588124456751 2.0512403668539836
H -2.24620092410103 -0.9808804878838763 1.951877395067759
H 0.2193433498052049 -1.0237301629815752 0.5705483436332145
O 1.4663617018712256 -0.005667620403651481 -0.4231170777308324
C 0.917690037090412 0.8621034022445838 -1.3951424657654279
H 0.129008381286995 1.4272567241504457 -0.9018451924064219
H 0.48791580373533855 0.3019212348348372 -2.2301858751146697
H 1.6684608281891973 1.5598128863441902 -1.7737051731654914
H 2.199573729476025 -0.494099265061192 -0.8168443430180254
