20
## STRUCTURE-ID: 64568e245940803daa4efca4 ; CHARGE = 0; SPIN = 1
H -3.9999490615879836 -0.9997181471015248 -0.13425232167437828
I -2.155598503346626 1.9487268746541995 -0.5491845822930014
O -4.533498792568114 -0.1742030068780238 -0.35317731268341884
C -3.990449888052161 0.6324386674705119 -1.3072927072595921
H -3.541234647007554 0.03572527627257314 -2.1085847367882797
H -4.679822840009456 1.4318371435322113 -1.6185059855652988
H -4.950602548179422 0.2929362238753625 0.41641347678124113
O 3.1276538063939867 -3.0727503030482857 0.8866598181980039
C 3.4367576894070675 -0.4259459903221815 0.7376886839108574
H 4.111527824570082 -1.1990229047168113 1.0747928282549053
H 3.3797322378399888 0.3648894699768112 1.484512820739686
H 3.7884964458055155 -0.020688464546507135 -0.21030135100085928
H 2.7589962606050458 -3.955998283129891 0.8683130321648138
Rh 0.01721266290519081 0.6472002127424008 -0.04138124938348559
I -1.267319591267295 -1.593770895941239 0.024612186085014507
I 1.62250290346017 -1.3483668819648604 0.4906682091810855
O 1.623614476845803 2.2651323849101703 1.8334941949545727
C 1.357604979504199 1.8536507109241585 0.7122191238274913
O 2.2763258708319425 1.68447609729701 -1.6174095493951228
C 1.6180507138496245 1.633451815993861 -0.5892845780541951
