12
## STRUCTURE-ID: 6456881d75b57c53f13dae4d ; CHARGE = -1; SPIN = 1
Rh -0.5846982403368847 0.5016848111352192 0.08537819233637045
I -0.768547562759977 2.1584666675719157 -2.096396077237358
I -3.137129734604252 0.9289305578627294 0.9944461111434053
O 0.3754973408747828 -1.4927815599779501 2.096088751259115
C 0.09733584023215976 -0.7401925103029714 1.271342424523456
O -1.954861682763292 -1.2849261142611963 -1.8820157212664546
C -1.3915172146994375 -0.6360763457451616 -1.1308679512903308
I 0.48699981383765284 2.349428603363366 1.7218016456578888
C 1.4555858965464994 -0.39762712710644066 -0.15915141993566134
H 1.7037488108663528 0.2671915989444356 -0.9981187901176218
H 1.5059325304065574 -1.4281123043270332 -0.5090035889555768
H 2.2116542023998345 -0.22598627715690867 0.6064964238827751
