12
## STRUCTURE-ID: 645669579415141eea662c6e ; CHARGE = 0; SPIN = 1
O -2.722731883927401 -0.06465277958630919 -1.1594726029126015
C -1.300289103139642 -0.004440291433622494 0.7588557611712415
H -2.0342468930620847 0.5883621275014609 1.2978929793515188
H -0.3044789616444599 0.2504676033089914 1.1080679027039517
H -1.4934832456711848 -1.0550860037741905 0.9572963535174144
H -2.800832391069646 0.10067924904366832 -2.105841205144152
O 4.756256937273012 -0.704594747378653 0.5740261076173367
C -1.413466479680865 0.2681144538039902 -0.7336075701551157
H -0.674576884993792 -0.3360965628979796 -1.2790070850642836
H -1.21070731345491 1.3299575842905704 -0.9340826022805782
H 5.226371716662003 -0.15582825597702962 1.2072119691369165
H 3.972184502708971 -0.21688237690086473 0.308659992058287
