13
## STRUCTURE-ID: 64568b2ec95af84fee6dc15a ; CHARGE = -1; SPIN = 1
I -2.589525329610039 -1.8466731844265085 1.8450790282190728
C -1.11897825240727 1.0492352059789096 -1.248276708878953
H -0.23251781468596838 0.9647469122596292 -1.877272853378917
H -1.503007087708611 2.067776687087262 -1.2730213000001953
H -1.8651258822216963 0.3526033041865703 -1.6313022675448972
O 2.1932818987768976 0.1692396876788142 0.15750210690058794
H 3.11810101085926 0.3292667448616159 0.43755573628052324
Rh -0.3260829453102758 -1.0759911756418674 0.7790291165555705
I 0.22164671699327043 -2.357602909288455 -1.3969689771028593
O 2.0067894663776094 -1.1429154924611526 1.9790485664198476
C 1.5391880989205247 -0.6465533806379166 0.9629082995923374
O -0.6964331903547599 1.4360175097734815 1.1120268466358718
C -0.7473366896289773 0.700850090629573 0.15369240630195474
