12
## STRUCTURE-ID: 6456668edb39155bf711299e ; CHARGE = 0; SPIN = 1
O -1.5910300599718137 -0.6068202052487052 -0.1313023680135302
C -1.913836534722748 0.26398963862660046 0.9264757183572392
H -2.1236747065357195 1.2754147136947287 0.5629857702764995
H -1.108288986353863 0.3119695776371993 1.6668526779860402
H -2.808827666415358 -0.13304600099889988 1.4047347839803945
H -0.7824764154054683 -0.27229579591013314 -0.5630993249574178
O 0.8903683050145575 0.24902694067607986 -1.2230789622536529
C 1.9012530129811396 -0.16623817373359154 -0.3245317151389093
H 2.893868105990999 0.1025779329207608 -0.6922284253455607
H 1.8559727906528922 -1.2447299915618186 -0.14971095504811083
H 1.7198294928188005 0.3544474335120414 0.6140215867812419
H 1.066842661946589 -0.13429606961426177 -2.091118786624239
