12
## STRUCTURE-ID: 64566997da97fa60b34d91e8 ; CHARGE = 0; SPIN = 1
O -1.7728165649483285 -1.5956887371383455 -0.4974592041335067
C -1.7998824145726855 -0.20272840035514342 -0.7372096598898822
H -1.0450160306019052 0.3195683941004304 -0.14420856143888106
H -2.7867141885525837 0.2176114683678563 -0.5186183466737991
H -1.5842365457709144 -0.06530704587976742 -1.7956395287718636
H -1.9150853617317822 -1.744951392415544 0.4445893659945225
O 0.9470013473221728 0.8864405057450414 1.067946752531142
C 1.9651527327900553 0.27719179937608496 0.3030499289898837
H 2.7378634460296336 -0.16014202057856788 0.9419567177256036
H 2.426593382663964 0.9898207465512885 -0.3870870714135141
H 1.4926216744414527 -0.5166049144940992 -0.2732299213651604
H 1.334518522930933 1.5947895967207528 1.5959095284455023
