18
## STRUCTURE-ID: 64567052f01e5e3e4f28a81e ; CHARGE = -1; SPIN = 1
I -1.8632890086266842 1.9347893275248444 0.6924402727190312
C -2.0793138020396653 -1.1832571220275812 -2.1898589730866713
H -1.4132632394508775 -1.8764454620419944 -1.6895095761445393
H -2.1776403492483793 -1.4644142753936307 -3.2291466395956028
H -3.0478845807332617 -1.2076950100578845 -1.7085292062347932
O 3.367805187907261 1.19350779520208 0.7773305014469797
C 1.1047710026899464 0.7887377945241557 -1.716243302181719
H 1.3472847983875216 1.4195262760213312 -2.546774138069817
H -1.6770329721620423 -0.18042875903426403 -2.1205867016817948
H 1.03418430937589 -0.27349699742098416 -1.8473486386642424
H 3.946813277516364 1.9261053095641405 0.5591532627706932
Rh 0.1438001642480703 0.2597524924150469 1.9900584113354476
I 1.040909294541481 2.213653593455245 3.5852481999714603
I 1.3733398348923866 1.5249714372567715 0.09299348089983742
O 0.2937003948098522 -2.2609606663625614 0.38292888657808155
C 0.19179830525189942 -1.313542958335958 1.0293290811443951
O -1.011536726189749 -0.9704202033807395 4.452633293885254
C -0.574445891169995 -0.5303825719080101 3.4858817849079906
