19
## STRUCTURE-ID: 64568dd381ea3303185fdac0 ; CHARGE = -1; SPIN = 1
O -1.365127107032369 2.180512571418944 0.730073291832153
C -1.5282605764561759 0.6508844180627318 -1.4325185024874914
H -1.5251628155954746 1.2270923492266874 -2.3552378449676414
H -1.4702468766940144 -0.41660762126462736 -1.7057640111823738
H -2.4691355568899787 0.795482712079888 -0.9059400734581503
H -1.4952703175010078 3.1300231694563885 0.9101520482544061
O 1.0390958613238879 -1.9471860768685068 -0.7152278399264873
C 0.3886257804487605 -2.3727439483555313 2.357144502988647
H 1.1305931303002443 -1.9420691674665416 3.0206925843802583
H 0.839207539647529 -2.7105480862741893 1.4273728541217692
H -0.18984583233045446 -3.151710128646206 2.836880368770333
H 1.9249581338270956 -2.0444632315856937 -1.0689365990689024
Rh 0.3881380223471931 0.258544570230221 -0.3420386463217627
I 2.474748237840523 0.883894176130974 1.2799596301695542
I -0.9598537544201214 -0.7870974470338851 1.7727414685196348
O 2.205593667763805 0.6964923360967453 -2.627952186850551
C 1.453296771656139 0.5896823730701987 -1.7618382332851863
O -0.23685077243664132 2.965044884775027 -1.0352746165132862
C -0.6045035357988474 1.994772146947462 -0.3842881949747583
