16
## STRUCTURE-ID: 64568cbab4aef706060b39d0 ; CHARGE = 0; SPIN = 1
H -1.2378606997088584 -1.7823879186980771 -0.34938144859463266
I -1.1007944106435006 -0.1894797647157079 -0.29248347812286446
O 0.5358072793852393 1.6866360843543313 1.6870082678566793
C -3.305322758007094 -0.27280236887988907 -0.7671296626584396
H -3.4063730092692137 -0.7547156176259882 -1.732931886470357
H -3.653045923367935 0.7528628913817283 -0.7994999616008008
H -3.7852050921341966 -0.8271750926662073 0.031301515606643446
H 0.502736751132054 2.0174547273289196 2.6074354037286365
H 1.8042765292881833 -3.2760651817079385 -1.8301386229472103
Rh 1.644300847685279 -0.309689937628515 0.005609933850252846
I 2.0374449636055827 -1.7409116281085244 -2.2053898658455386
I 1.3862154268379245 -2.3011095629345952 1.726758545489901
O 2.7610151794069666 1.5802368317536162 1.951713521268099
C 1.7677001544844777 1.3953576923008613 1.2661808458013255
O 2.144321134425969 2.5421492150310097 -0.8844393885823273
C 1.904783626879143 1.4796396308149866 -0.4146137187793495
