12
## STRUCTURE-ID: 6456678d9236ce40af2eaabe ; CHARGE = 0; SPIN = 1
O -0.9897691643042132 -0.2238556187696689 -1.0222378737038917
C -1.9918524596886371 0.04171795443924798 -0.06084007386438314
H -2.2424442852255293 1.1056788207319341 -0.03140379142020782
H -1.587395595803562 -0.2551500485006108 0.9050724557007646
H -2.8953427791021484 -0.5398377585820736 -0.25987975200592023
H -1.3288300316350956 -0.00040213207202958356 -1.8976248911977045
O 1.6576488339729358 0.662246585621524 -0.42815401099939754
C 2.0628909723739377 -0.14158852547290562 0.6541433239948293
H 1.4260696089620617 0.017507472770976012 1.5310308447823149
H 3.083304714290254 0.14834228358559404 0.9024751476465451
H 2.0479839198016823 -1.2041364221041404 0.3920273523279517
H 0.7577362663583216 0.3894773883521515 -0.6846087312609042
