13
## STRUCTURE-ID: 64568c33c7e7fd6654610ab0 ; CHARGE = -1; SPIN = 1
I -0.7869084679352072 2.011913028429095 -1.4881372713693055
C -1.6631200402787825 -0.5958030698480167 0.9173793480803265
H -2.4125551399707232 -0.8550827182529502 0.16011314895887005
H -1.9206551841973776 0.37726973823027055 1.340498291351732
H -1.6778088200463825 -1.3417341127174858 1.709992033296972
O 2.6082849127794616 0.6073979900197467 -2.7080402532685017
Rh 0.13909017885217562 -0.625009018509502 -0.2100925598898147
I -0.22281419877882627 -3.165093748418902 -0.5945752358029515
I 1.8600815972045674 -0.9975848411586511 -2.145455432103088
O 1.9216255688474444 1.8762336995790825 -0.25120148297564426
C 0.907481772025387 1.2487672498573716 -0.20785131332423967
O 0.7289493966447266 0.9635810318451988 2.2655067834446156
C 0.5183484248535615 0.4951447709447301 1.211863943601039
