13
## STRUCTURE-ID: 64568d741d2e37058461a6e3 ; CHARGE = -1; SPIN = 1
H -1.7578271516961235 2.6096714961521927 -2.111062333385254
I -2.1864236785952746 1.2722867999568377 -1.3766302338799503
O -1.3021976031853397 -0.4191443300873371 1.8121478344259707
H -1.4887578032444868 -1.2010064034692558 2.367400501970601
O 0.8679970828292121 -3.037039910582104 -1.7352414500130566
H 0.9292792530769362 -3.4535754688840345 -2.596645942607837
Rh 0.45097697235443285 0.6327834125621586 -0.16754237797871666
I 1.8138297183582037 2.0106805083165584 -2.0601247016124447
I 1.2671539211034601 -1.042818397018459 -1.9446322408659455
O 0.8405983632923769 -0.8940377747872675 2.26381626220939
C 0.02147564500790819 -0.1823326965379285 1.6880225669590103
O 0.2584161133021346 2.1990576412841225 2.4114771800738852
C 0.2854791673965779 1.5054751230944803 1.4490149347043715
