18
## STRUCTURE-ID: 645670697bd33f39801d80b3 ; CHARGE = -1; SPIN = 1
I -4.871731539821478 -1.038899277655028 -0.40880871128223617
C -3.0396671269616826 -1.6776710667151147 -1.1710129889711869
H -2.3004017075391463 -1.8566839440637226 -0.20800083120540344
H -2.5412776225853824 -0.9000482280912142 -1.7435172033175317
H -3.1108279157239616 -2.6526654602048705 -1.6422197965566043
O 1.1168618523077527 2.821375214153606 1.5452416661327735
C -1.3491371751851655 -1.9334361975621681 0.5420796154798767
H -0.4981664590200006 -2.070508172879672 -0.10728802828940256
H -1.3488615293705823 -0.9766389918326495 1.0429170761862996
H -1.5492183002498907 -2.774279093401514 1.194116992500099
H 1.6058923974576926 3.46783304126906 2.056603006285462
Rh 2.151184317315635 1.577144589919079 0.16535312148619205
I -0.14809290856525725 1.1957978160892844 -1.2296373018696842
I 1.6502200206853264 -0.6738255814759756 1.738533581936906
O 3.987131336921475 3.8783876047970067 0.7145690625564546
C 3.3912030261141806 2.925583237551548 0.39874088162343113
O 3.7537201556131006 0.06343593919447858 -1.8347335402902027
C 3.101169178607348 0.6250985709078771 -1.0529366024052376
