13
## STRUCTURE-ID: 6456734db0e0182fe0224134 ; CHARGE = -1; SPIN = 1
I -1.6528832162686866 1.1886072550839657 0.20101529601459073
C -2.4658185866539006 -0.7876233953355457 -0.0639983892948628
H -2.416172592064261 -1.2917679629309327 0.8932301452233002
H -1.8539556601293306 -1.3031832659610578 -0.7994753310467199
H -3.4843487785840606 -0.6771386517731777 -0.4106944795890558
O -0.2700665683670459 -1.9478929276672592 -2.1287680990021167
Rh 1.415648368278375 0.3895676117319342 0.1698215386658711
I 0.9043871300723492 -1.9169618202790504 1.3526431983249358
I 1.0460809313451667 -0.5981366396551917 -2.265329412979867
O 2.583448495918092 2.827150870175348 -1.108986895102225
C 2.1123130627791484 1.9009182110356238 -0.6207271797162628
O 2.193615033141789 1.2564022587190302 2.9226661273000776
C 1.887752380532354 0.9600584568562885 1.8586034812023469
