21
## STRUCTURE-ID: 64567c73d6cfb62f0556edd4 ; CHARGE = -2; SPIN = 1
O 0.23478119159808433 0.07134462856187723 1.5566181775300398
C -0.31662204956720524 0.6598857739230862 -2.030635952931966
H 0.6489865864724043 0.24749767368886935 -1.6888577930237687
H -0.23275818756574335 1.0578792574032128 -3.0336960351022793
H -1.0822613789623137 -0.10717039969278487 -1.971405874278556
H 1.9112716345386782 1.7262095011011191 1.1255213099475967
Rh -1.8553225551774817 0.49724438382396274 1.561436832664256
I -0.889810218566656 2.265602222396261 -0.7227117804140558
I -1.5779869968661575 2.3206183194950443 3.460163808113498
O -4.827230878847247 0.49206116771333425 1.371214302716311
C -3.664613166138532 0.5356313001388012 1.461708397429892
O -2.6299544085167863 -1.9441014584074678 0.060565847429849155
C -1.8014963590125865 -1.1962091267746426 0.5699070118886691
O 2.329766058519537 1.3960776167613766 0.3202824482162877
H 3.0666932191322256 1.9821776844144727 0.09139798122025106
Rh 2.2384601414810197 -0.8071984980833555 -0.2428374112769289
I 4.2062402758978035 -0.35325973302998054 -1.8550747524431936
O -0.4319217165788061 -1.6737616024589979 0.33791775321253764
C 0.5492851321768454 -0.8429497857775184 0.7630963106815425
O 2.0125348433678494 -3.738173726229618 -0.6406848783379808
C 2.1119588326152705 -2.5894051989666655 -0.4939257032419709
