12
## STRUCTURE-ID: 645668b3e2b89f3ee56231a4 ; CHARGE = 0; SPIN = 1
O -1.0782873718995583 0.6881955883321209 -0.1807743788247709
C -1.887462757962376 -0.33322985199110283 0.4363718119184416
H -1.4435126114735681 -0.5884069249950736 1.3982547539857697
H -1.966929147147885 -1.223249290978907 -0.18779120763262344
H -2.865398338770506 0.12324526563261778 0.5962743118370296
H -1.4479792852916722 0.9332229393891388 -1.0736604838240376
O 0.26827129946383316 0.17852149327766617 -0.5504626028833061
C 1.2264414928913479 0.5402196665348272 0.39671117896301844
H 2.140607907003814 0.1333652051726632 -0.04084546870440934
H 1.0553870529676261 0.06636604471715332 1.3657205342887826
H 1.3222691834003746 1.6240207522531493 0.4893088477072336
H 4.676592576818576 -2.1422708873442673 -2.64910729683113
