19
## STRUCTURE-ID: 64567a378d8e9d766233a746 ; CHARGE = 0; SPIN = 1
H -3.739641431040377 -0.9061124263370149 0.6852572742931677
I -3.890585950647214 -1.1349555583112745 -0.869152226437535
C -1.0125327796805228 -1.046143905472707 -1.0601477156013257
H -1.1518186668206793 -0.011294985906259143 -0.7314681172433506
H -1.0944674502325156 -1.8406432361391307 -0.3347614928439811
H -1.1473133370662807 -1.27376412133791 -2.1049600985210937
O 3.37681778405763 -1.910625533071732 0.9664767810536218
C 1.5755390315364015 -0.7958137933258601 -0.7848037568786921
H 0.4650457689382951 -1.0156702931262604 -1.0477322895635846
H 2.1586135856078053 -1.6967038361169662 -0.9294561946827978
H 1.9077342949370515 0.04272422346230157 -1.3862024281622727
H 3.570065528118005 -2.4106783981383946 1.7561732197324307
Rh -0.18919666859376166 1.6195689282591865 1.0120659574154847
I -1.7411430815733124 0.38700963704541524 2.668751985048625
I 1.5966869768776946 -0.3202125897191302 1.280139675687445
O 1.8323843820928967 2.9597779293094746 -0.7372074480115931
C 1.0304977030839626 2.434261142714978 -0.10631455161113607
O -2.1376173957682614 3.8990573789937533 0.8377736308298179
C -1.409068293826801 3.020219437217526 0.8855677954967673
