36
## STRUCTURE-ID: 6456bf01fc9f79398b4dd539 ; CHARGE = -3; SPIN = 1
Rh -3.859707817508235 -1.553683785672625 -0.7157249274186546
I -6.0465663585600815 -2.689428193897558 0.11373511641325035
I -3.872090244895897 -2.790936822551553 -3.0188107090624254
O -1.263641514474672 -0.12570429461276314 -1.049949365604528
C -2.297097914371775 -0.6601982606948046 -1.0584702282093192
O -3.571064569339749 -0.055282487073738215 1.8412467102557075
C -3.746062808454725 -0.6521561003333107 0.8714753061171943
H -6.023502246684739 0.9067055196104277 -0.29797652364267474
I -5.397523342592851 0.7017807234525931 -1.8601561694789364
O -3.7517166372132693 1.5380412342056773 -0.7420830318108325
C -3.9356015997379674 0.9220906823561382 -3.490663316575391
H -3.808369269020637 1.9746682920126355 -3.7072908377129696
H -4.335131691360954 0.38643179590102766 -4.343291880102592
H -2.987396677438945 0.4920308572067083 -3.1826145998145923
H -3.8724193733834955 2.486595075657654 -0.6762444024433208
O 4.967766640735617 1.9548337264404587 2.2533042685991265
C 5.368784513865973 -1.5202694931578975 2.1757131046603853
H 5.998241534197971 -0.7210143259226294 2.5507172754258134
H 5.292784705373901 -1.4801644673579526 1.0940541548737728
H 5.695288815374633 -2.4943316705550838 2.5219476046245095
H 4.6859934280300735 1.8221919407494216 3.175979069786155
Rh 0.40715155660401947 -1.3785864956959033 0.5731231509318866
I -1.3978504763982063 -3.314325309127848 1.1106097497307834
I 3.34738305143469 -1.2020550401212002 2.9238942201763183
O 3.1204756955378006 -0.7242010425256222 -0.1890479416585159
C 1.957335324672317 -0.2704351438776698 -0.0873154908403443
O 1.2076879859592908 -2.3974052974025573 -2.0920058003548365
C 0.897860732066132 -2.126008381752485 -0.9980999489682223
O 1.6219117759971444 0.718376234161601 -1.0202857466837578
H 2.425363106625294 0.946735444522716 -1.5230390005546992
Rh 2.2288806829844727 1.0156371495042258 1.8929719238983231
I -0.2171164246151194 0.09778327496679429 2.680858735280201
O 4.262244964581537 1.9754050407383403 0.16889648511640495
C 3.9715956478656285 1.7286846180160784 1.3288507543553334
O 1.2684013657973963 3.763989344255497 1.2146734621499622
C 1.6577074383474635 2.724205658575077 1.5610188285417768
