13
## STRUCTURE-ID: 645673d1875f4928ac22413a ; CHARGE = -1; SPIN = 1
I -1.6789934036426952 2.0163976625165367 -1.3399123918415412
C -1.3942968985277715 -0.8819883740582514 0.3715573347789537
H -2.0111360814462107 -0.28356347708314067 1.0433292331729715
H -0.992087661307208 -1.7277563273088974 0.9314597373538235
H -2.0243972109093358 -1.2558303989717312 -0.4370189699824973
O 1.3692944880177158 1.3002165184103918 2.9598759372058026
Rh 0.16788797083957582 0.36528827825111126 -0.4080853966434238
I 2.3516881656898505 1.7975670876384868 -1.4519710296888524
I 0.11111203851215294 1.9334681581504163 1.736665215693175
O 2.2833472579250955 -1.0574612093335285 1.148677825749252
C 1.4581403041160224 -0.5855949362816356 0.524796207125737
O 0.19766195763738703 -1.0534470273647127 -3.0518553251937317
C 0.16177907309540315 -0.5672959545650659 -2.027518377729667
