14
## STRUCTURE-ID: 64567b1ac671c4722a28a813 ; CHARGE = 0; SPIN = 1
H -3.793478213974902 1.6983943875582415 -0.1518033214099108
I -3.832777338842897 0.2611373201806809 0.5171982644234082
C -1.2648549157137865 0.12743142381676084 0.3167732711653938
H -1.2058249851141065 -0.7458345483032129 0.9537288832299248
H -1.3486679734151137 0.0036291437041611413 -0.7573486627872097
H -1.1869023065314364 1.1133070794327442 0.7559613510060577
O 1.907199807752464 -2.5551804693113023 -2.622313181785472
Rh 1.2475537629751814 0.15719698031362775 -0.1400974228622595
I 0.8471804718418087 2.428282419600102 -1.32084805848378
I 1.4565178569424522 -0.755060051761173 -2.555416606523486
O 2.024804268202681 -2.6270139163575457 0.6192895413408392
C 1.6803844880866456 -1.5617195964407025 0.41198336801237484
O 1.9089217014551114 1.4813248362087772 2.4643640579632087
C 1.5599433763359039 0.9741049913588395 1.5085285167109002
