17
## STRUCTURE-ID: 64568a8238541847806f2c94 ; CHARGE = 0; SPIN = 1
C -2.4048657220820226 0.46113484221720175 -1.6716459427808794
H -2.5648162545311473 1.5443522401863727 -1.7719516110009765
H -2.4220286073182082 -0.022659152546850234 -2.6563206429103694
H -3.1851277720149374 0.030526522827994874 -1.0473360516416506
O 0.4277344676912691 -0.06105794967244918 2.0214487498446783
C 2.9161129182187677 -1.3635916537804236 -0.27920912587624813
H 2.752133092392391 -2.113774897416502 -1.044433899354499
H 2.3112572120280577 -1.5630668627046054 0.5976877827145397
H 3.9666215249106433 -1.258239733821841 -0.03623769672571296
H 0.5227752993572878 -0.4755633494517911 2.905105358957786
Rh -0.4740720754806876 0.40420526744264507 -1.0267198755236966
I -0.7780989041598071 -2.091483651313568 -0.5763725170286407
I 2.2510819694539332 0.5486239741020577 -1.0779281549348743
O -1.2446126929962935 1.1677992739928185 2.877159097562826
C -0.5338081002448144 0.8286813152028316 1.9660192022407745
O -0.867328976114383 2.5540284726552915 0.25100016311093704
C -0.6729573791100742 1.4100853420807757 0.569735163345932
