12
## STRUCTURE-ID: 64566a19cefde33b601d80c1 ; CHARGE = 0; SPIN = 1
O 0.9027866335529485 2.229909715422944 -2.003588751687945
C -2.1160887758395424 -0.6463078333852673 0.9851338072882513
H -2.802465639167386 -1.2618329864381537 0.4184896171143355
H -2.5192877366522213 0.35381835075035883 1.0757114631561382
H -1.9815352603832816 -1.0702728203046359 1.9716932044121047
H -0.007712856783754546 2.2170984326076617 -2.308630231560528
O 1.2259826449525622 -0.2140802277156976 -0.3629780443672173
C 2.1749380298799834 -0.6666319558777452 0.21546119641908057
H 2.121763670628461 -1.613188704001613 0.7700329051830033
H -1.1625540475522484 -0.6047209050811219 0.4752204660019767
H 3.150142615553206 -0.1612616170097164 0.22461631904965015
H 1.0140307218112798 1.4374705510329795 -1.461161951008857
