18
## STRUCTURE-ID: 64566e1ea53ea274652eaaa4 ; CHARGE = -1; SPIN = 1
I -1.965745032581886 -0.866880966431393 1.7376404265730228
C -2.998841703321943 -1.1019462566434848 -0.14486694361212962
H -2.4130854159887494 -0.5882583803354302 -0.9014264271740294
H -3.9811175494070254 -0.661603790458054 -0.03262777551666787
H -3.0496215510664086 -2.163655654886686 -0.35526716831744426
O 0.1949476419895665 2.3329305039429777 -2.785174671175967
C 1.1637858136349848 2.3189677482119397 -0.21450493099151283
H 0.876834751748853 3.138132324293119 -0.8549473871429933
H 2.241020897213241 2.291664564255964 -0.09068798322949366
H 0.6704828336247051 2.3820043342119823 0.7497199248716246
H -0.1482764725314747 1.9846324511044708 -3.607649528604898
Rh 0.9798854406228515 -1.2758326384541854 0.683519089194317
I 0.09306514763670791 -2.8444172495954656 -1.2204156822168188
I 0.5566252046922587 0.5410807255366774 -1.181582393366194
O 2.5534765466130187 0.7342483375018607 2.244797293941449
C 1.9181297228106156 -0.03514100411988697 1.6610725387496472
O 1.8526695659259937 -3.5055710474699584 2.5016314056275935
C 1.4557641583846708 -2.680354000664458 1.810770212390509
