8
## STRUCTURE-ID: 645663c4bc542c244d248af4 ; CHARGE = 0; SPIN = 1
H -0.8547321089848917 0.9270588418948074 -1.3957513989309915
I -3.902889112082512 -0.5972604902837014 2.2664104123155666
O 1.328677975249302 0.49704693269767514 0.5688254939039847
C 0.8885702071536347 -0.25174441481184284 -0.3882510565238636
H -0.19109361773327693 0.43927518828895956 -1.060669995451539
H 0.3130151008322043 -1.1505323213932854 -0.16438658977997894
H 1.5574236885682995 -0.2865182469417255 -1.248641267480366
H 0.8610278669972327 0.4226745105490842 1.422464401947244
