12
## STRUCTURE-ID: 64566b196465f35f4b5fdace ; CHARGE = 0; SPIN = 1
O -2.1105752752608296 -0.11193560619321877 -1.1250695425673436
C -1.8599779931139795 0.07091443495191475 0.2521948803894662
H 2.3986478008665424 0.36695283172527343 2.8019142383594313
H -2.664072529589884 -0.3467143345658394 0.8649203123190932
H -1.8096205014120295 1.1454249696492516 0.4197210353039706
H -2.1936422231832404 -1.0569963960121598 -1.3003985777079698
O 1.3917115518871104 -0.5608522879332841 -0.2389256918531403
C 1.755941803815062 0.09666548063392606 -1.1723253325742038
H 2.056581736256455 1.1488971359152615 -1.0670151229305271
H -0.9072173076433865 -0.3795730972558607 0.5466116844126366
H 1.8114868208635493 -0.31118522295218654 -2.19157051506466
H 2.1307361165144445 -0.06159790796321161 2.2099426319134428
