12
## STRUCTURE-ID: 6456671b3d17e756da324928 ; CHARGE = 0; SPIN = 1
O -1.0251325625272383 0.796979134126561 0.42192069972399815
C -1.6823737926775388 -0.3127459390892517 0.9976894720220137
H -2.3328975154606306 -0.8101025282626823 0.272692855616728
H -2.2700908007730325 -0.019289294962114147 1.8715709459760679
H -0.906434108984578 -1.008168001773941 1.3122024999158344
H -1.682248076491795 1.4519840493265508 0.15805084760774216
O 1.8174909338359497 0.5472932134582951 0.0736775035334504
C 1.787950820935421 -0.20223398236304044 -1.1187651259441014
H 2.8201526713386325 -0.4489160982112622 -1.3649156532137838
H 1.3531308725923799 0.373280225891709 -1.9423755346318285
H 1.2198572166490216 -1.129746263405781 -0.9951111494122424
H 0.900594341563405 0.7616654852649585 0.3133626388061279
