12
## STRUCTURE-ID: 64566abf82bcd963752726b3 ; CHARGE = 0; SPIN = 1
O -2.0059905404589524 -0.5325072844762809 -0.16882049439574576
C -1.136445009622127 -0.4828115428099403 0.8051124091858021
H -0.11870180040224644 -0.08665934504073824 0.2659704652011992
H -0.8519895481645693 -1.4571055232864156 1.2274247178530506
H -1.3404171295492517 0.2689225839063614 1.5807888540076094
H -1.3403559096264477 -0.08340620056602563 -1.3457531635368756
O 1.6473289729712703 1.0171856740487837 0.5118012790146061
C 1.0983925532573777 0.34504810755462323 -0.5577794432276321
H 1.4965484475977862 -0.6499111276990905 -0.7392147039308073
H 1.227700085742338 1.0106271640361515 -1.404978630399791
H -0.46314676440483327 0.20629119304991814 -1.4540523336963314
H 1.7870766426596452 0.44432630128263606 1.2795010439249435
