21
## STRUCTURE-ID: 645676884b8de25d274609f4 ; CHARGE = -1; SPIN = 1
H -3.8228298371797518 1.2156628992266236 -1.9733022741481867
I -0.4540674446602608 0.7969072527627972 3.8044729982614993
O -2.9993194043285314 0.8957934406389081 -2.4019166596486317
C -1.6435646987586077 -2.048576950623661 -1.3516599170264303
H -2.272792462626177 0.8282386473756915 -1.729433050090395
H -2.3235354202637035 -1.5043311863835171 -1.9944423230508217
H -1.5219247968145644 -3.0598926975379714 -1.7337023714861108
H -2.7163415823503803 1.4809261796075388 -3.138199585344245
O 1.9787731615482476 2.7103372105408017 1.3350262643581778
C -0.27004623968219577 -1.4225479009167366 -1.328747757685132
H -2.0522196144201894 -2.127356228613547 -0.3488365198083536
H 0.445351624557063 -2.055134298147895 -0.8113378964299073
H 0.09759102035388485 -1.174504153187908 -2.3199619124588162
H 2.3815594884156663 3.587545282162047 1.4783573530616134
Rh 1.5613506978731364 0.032909705849601775 2.189045490306265
I -0.16709288577548556 0.5153271185538837 -0.16313590709019413
I 0.8964468847384589 -2.5830762492715547 2.1640438023763267
O 4.358664214998689 -0.08053844962747966 1.173238638558283
C 3.227650998131797 -0.15659910123726176 1.510352349713176
O 3.014484332778231 2.303697935869092 3.265706642474942
C 2.2818619634646597 1.8452115429605749 2.3744326351569396
