12
## STRUCTURE-ID: 645666499bae23539a750efb ; CHARGE = 0; SPIN = 1
O -0.6059693937407983 -0.8448018187879623 -0.4159663855025771
C -1.2578491826141822 0.4394657536125333 -0.5141846449168206
H -1.7969671850790998 0.6876156050601132 0.3989375583656111
H -1.9243845470560403 0.4086218596647821 -1.3724597395318683
H -0.4717634281962081 1.1785539554964695 -0.6740050290923669
H -1.2718360368601997 -1.5282495827666247 -0.17266349720801813
O 1.8222506447294844 1.506463099927575 -0.14826643751135885
C 0.4749347247162583 -0.845261942941211 0.548672627808133
H 0.10418290253240033 -0.7720445308940153 1.5676445640787688
H 1.0506403426137598 -1.7524367714924425 0.4009935622541173
H 1.118164449221547 0.07045244339666794 0.3125984516174544
H 2.7585967097330784 1.4516219297241113 0.0686989696389216
