12
## STRUCTURE-ID: 64566798587a9427d91aaa18 ; CHARGE = 0; SPIN = 1
O -1.1989246135746296 0.11033854508318856 -0.9478282513406286
C -1.8454977339950418 -0.05010988181341377 0.2994153030050226
H -1.9178599093849094 -1.105784588522515 0.576405336649283
H -2.844672246672728 0.3921747242150631 0.28753006692856703
H -1.238064967186265 0.47113429849888805 1.037238420367625
H -1.7335357265852718 -0.30760178748113925 -1.6338620706978877
O 1.6015653077049676 -0.4879308479056397 -0.8392423455268876
C 2.031858964886467 0.18696957142418405 0.31902154239044345
H 1.5050248640258281 -0.1718553975938949 1.2098552664261557
H 1.887189559194949 1.2687041241529275 0.2313087894763451
H 3.095494641161244 -0.019939413178105898 0.4317780952527281
H 0.6574218604253989 -0.28609934687955035 -0.9716201529307587
