18
## STRUCTURE-ID: 645673ed07455027cf1dbea3 ; CHARGE = -1; SPIN = 1
I 0.44387395555074943 1.1464313008390385 2.9228712290675145
C -1.6702484834170983 1.5210786951003192 2.7051216560746223
H -1.9469937589419015 2.217674541174753 3.4896211910881556
H -2.177979004896014 0.5693659493234174 2.81555836170275
H -1.8182491947485269 1.9488889717781746 1.7175555905588835
O 2.1974185116077183 0.37694671230592514 -2.0487305825945943
C 0.6443039069343577 -0.0016603127179689113 0.9368466426717004
H -0.3816782974708821 -0.3131485301832892 0.7804294360377839
H 1.3366782203053125 -0.781669594649823 1.2226733166370032
H 1.0385527093687783 0.7660658540958255 0.2790126934963677
H 3.1151448696894586 0.15722918423579457 -1.8620526726878766
Rh 0.8611815256007649 -1.0661434479729972 -1.5605007876257566
I -1.6054730218634206 1.5831407604115666 -1.4161639788099878
I 2.77437493786958 -2.6207887766109392 -0.5867133361983533
O -1.3117702711860237 -3.098122454441081 -1.5549507154944249
C -0.44972564506452983 -2.323566527131106 -1.4305899614019217
O -0.6823449442509848 -0.020153557876029352 -3.7738313676417024
C -0.36706601508730385 -0.061568767681567105 -2.6361567148801703
