18
## STRUCTURE-ID: 64568a89b673fd1cc06dc15d ; CHARGE = -1; SPIN = 1
I -1.6147240982262652 2.585455471939775 0.16408362926239467
C -1.465790952877992 -2.421741785869786 0.740493695253935
H -1.6952010039087442 -3.108428764867349 -0.07516131810724355
H -2.289217126996328 -1.7032177011691358 0.8410768878705082
H -1.3623647709053515 -2.9800116402659422 1.6701893255243876
O 1.161930694275635 0.9028246845935436 2.1792767890151645
C 1.5629411166671217 2.1208648387636972 -2.512828377058939
H 1.0139486981928592 1.6049844113508722 -3.2941775677945775
H 2.511850981493451 2.499174714366002 -2.874281282121328
H 0.9623049894296607 2.9101922408132594 -2.0717827069404224
H 1.2798762061709896 1.000535073243931 3.1461958751905432
Rh -0.48607991441603143 0.11499689078799127 -0.015433382566727636
I -1.5016902162637915 -0.6024401419393052 -2.414054752897456
I 1.9968099133600972 0.6721041217344986 -0.9433942070786646
O -0.8496102625390649 0.03214525913901593 2.664200468999927
C -0.014773838671611738 0.3877056827762488 1.8483490140610714
O 0.9377667249350379 -2.2635127638171193 0.5192712884094917
C -0.14797713971965426 -1.751630591580193 0.42797662097795997
