19
## STRUCTURE-ID: 645679e51dda862b242abdca ; CHARGE = 0; SPIN = 1
H -3.956600004881528 -0.6644625345302962 0.0841624744661082
I -2.3236022497049285 -0.5453766480835854 0.3485120945139304
C -2.858734262269153 -0.8788485057046679 2.426122370152496
H -1.9377137783545924 -1.113361029936531 2.9508797029832285
H -3.261585205048143 0.06188147041115893 2.7958691977114976
H -3.5720939309781548 -1.6994636806548917 2.445233618205725
O 1.9148487239692606 3.5819377504396352 -1.8970383179343906
C 1.9297178492892346 0.9387721449952715 -2.563820746575357
H 2.2324190228998297 1.813076771252728 -3.1183657842296655
H 1.133146177841939 0.4173494602022512 -3.0837959708736413
H 2.780182592769602 0.28166407200651544 -2.4093648539451173
H 1.7497513539915177 4.38731250070421 -1.4090250955001427
Rh 0.6052372736939333 -0.6026193784782825 0.5628512255825386
I 0.12329244737361059 1.233485182921933 2.3292513644768866
I 1.2462393916185617 1.6400221599946851 -0.7087384763057595
O 1.4334855852635833 -2.168261955776335 -1.851926114749669
C 1.0820381477307752 -1.584525130659211 -0.9266411211710046
O 1.0227382390036182 -2.9984730656600314 2.3136125998901194
C 0.6572326258557784 -2.100109583376134 1.712221833309993
