8
## STRUCTURE-ID: 6456642b42068d7a696a6038 ; CHARGE = 0; SPIN = 1
H -1.7402615479388823 0.07954736281700654 -0.11539237892723775
I -3.225522094435167 -0.053902900516328865 0.4341003996316899
O -0.020942001646771548 0.08441082501063234 -0.7222931834434216
C 1.0034953237455186 0.09931221511184846 0.2551392108782196
H 1.9696214317257486 0.3372089020191784 -0.19413700444713336
H 1.0680771182716426 -0.8603609955641588 0.775022688570285
H 0.7450904097961392 0.8772725602545572 0.9712589886639564
H 0.200441360481774 -0.5634879691327325 -1.4036987209263618
