13
## STRUCTURE-ID: 64566e0d868c1d01e05c71be ; CHARGE = 0; SPIN = 1
Rh -1.3549594060454553 -0.4627332153880962 -0.36696797086516
I -2.2421265657892255 1.193287398324817 -2.199199216221332
I -2.443927225268487 0.8300452470439708 1.635040755687304
O -1.0563982852517382 -2.6027295283994603 1.70179076723963
C -1.1171615105109032 -1.7963111554243736 0.9079505977298507
O -0.6252458859866336 -2.0200498933140034 -2.8205559583339657
C -0.8615652945779299 -1.442146243862264 -1.8748117809248699
H 2.605913643684835 3.2494561965543904 1.8511805955666083
I 3.5433200179801587 2.1288413942850597 1.277848765123607
C 0.6525351255369017 0.13616951232299726 -0.0651501922086926
H 1.37420605113355 -0.5955483368727255 -0.424756647162526
H 0.7904961316689508 0.3091143091276144 1.003344557478307
H 0.7349132034259807 1.0726043156020655 -0.6257142731087569
