16
## STRUCTURE-ID: 645679064152bd3d972726b8 ; CHARGE = -1; SPIN = 1
H -2.423495812110442 -1.4716470495669907 2.073882524664425
I -0.9394452417172194 -1.002612499458151 1.3292376501219776
O -0.26444536858952666 1.769415293773181 -0.05030412034481471
C -2.389434335011188 -0.4022522493343546 -0.17246598551411121
H -3.014156264970487 0.35789735401787515 0.28559484842704314
H -2.9407255385367157 -1.29566299641241 -0.44691754092643193
H -1.841036773503423 -0.013130728503737261 -1.0204858870417033
H -0.4608481280422573 2.674638132282534 -0.3659748652196593
O 2.02383548812389 -1.0758716594870488 -3.2631301722686024
Rh 1.496642991538813 -0.4401471462023705 0.22288200735765748
I 2.5531890157542363 -2.8446144441771004 0.7592460562554286
I 0.5509719747485383 -1.2663852207943413 -2.112193827373498
O 1.7294673446200963 2.1037606568063145 -0.9924139761448113
C 0.9829533450214035 1.3593765605252386 -0.35979917400013023
O 2.722149149143944 1.112598204882312 2.4510075963754723
C 2.21437815353035 0.43463779164905847 1.6618348656317632
