12
## STRUCTURE-ID: 64566d89dc7b5c650a6aac54 ; CHARGE = -1; SPIN = 1
Rh -1.3940931490566697 0.10554935799617308 0.19198975258503334
I -1.135742567904885 -1.2675982814485869 -2.0633201801945056
I -0.622910885556441 -1.8966087603710997 1.7519380109070917
O -2.1993283300124826 1.4767024087022655 2.7185569360581354
C -1.8637229653250624 0.9665677146219713 1.7400812781815849
O -2.7640899141897766 2.1789237282184284 -1.462360482978673
C -2.209645500159041 1.395220245302055 -0.8230244091229943
I 1.6245656503801011 1.1187597367833417 -0.0498291515528499
C 2.5404284589236235 -0.8012999543312128 -0.4553172119840875
H 2.350541234970385 -1.441186064581023 0.39912809870046834
H 3.59916906172951 -0.6310441087288037 -0.5997983017945596
H 2.074828906200758 -1.2039860221634435 -1.3480443388046315
