12
## STRUCTURE-ID: 645668874374f252530b5358 ; CHARGE = 0; SPIN = 1
O -0.6320702367748425 -0.26630862753734524 0.4606357999054803
C -1.4122295185396487 -0.71638912198634 -0.6085555183124258
H -2.305096434291936 -1.0779672781453968 -0.09630981649367062
H -0.9367589645010576 -1.5387192284696023 -1.1468490189582592
H -1.6922246260835403 0.09173159569255283 -1.2873652036830132
H -2.1268477561843557 4.3299034481394365 -0.6994786688046848
O 0.6705568535163317 0.2546964408486759 0.0029755525480527362
C 1.744307623319086 -0.44465899556416516 0.6698828311510535
H 1.6609439306646099 -0.37388826118399526 1.7541503406465793
H 2.6659168350389533 0.02001764312975791 0.3172888022575656
H 1.7093356333962793 -1.4876188103191808 0.3549636134765128
H 0.6541666604401194 1.2092011953955948 0.27866128626681413
