12
## STRUCTURE-ID: 64566790f65c4f2be3390820 ; CHARGE = 0; SPIN = 1
O -1.2329871522908806 0.8220573146030653 -0.27806656034664784
C -1.9570981138442667 -0.018193729154100304 -1.0196551622502832
H -2.1995265909836976 -0.9916718834677021 -0.504896646271618
H -1.4644179933298789 -0.31459092995185267 -1.9899430237602211
H -2.9542493243262453 0.402966590388445 -1.321366594022724
H 0.6407653119786524 1.103534205860012 0.7704734109786573
O 2.2338548750974536 -0.3681994272840318 1.0020320506294258
C 0.790480783025322 0.08774403501955809 0.4516418413355473
H 0.1169101491574071 -0.6189157562449219 0.9022406260793052
H 0.8813357073126381 -0.03142332850362554 -0.6130891669202353
H 2.231121521404526 -0.299062783223778 1.9795956452798036
H 2.9138108267989713 0.22575569195892964 0.6210335792689876
