12
## STRUCTURE-ID: 645664f26d63f510a40876fb ; CHARGE = 0; SPIN = 1
O -3.539462776819926 -0.6061452463464662 -0.5129629289660739
C -2.196730270226954 -0.25315469763699805 -0.2624883650956217
H -1.6435828468001772 -0.09569397519152077 -1.1934698591179826
H -1.7493491008055437 -1.0870786716570358 0.275336772424574
H -2.1300020679831615 0.6474923791751785 0.3559472967453194
H -3.9629227725756433 0.1086974327714927 -1.0036222294572854
O 2.415190722714842 -0.643743248011581 1.0403691097391048
C 2.6292761764803037 0.3525640091958727 0.0647430831237463
H 2.9907016856016564 -0.15625495448802784 -0.8271619909109831
H 3.3825215448053596 1.076328162233637 0.39046976346288736
H 1.701536638056952 0.8799246231217537 -0.17756944448494844
H 2.102823067552324 -0.22293581316629218 1.8504087925372192
