12
## STRUCTURE-ID: 64566abf092396687f41e58b ; CHARGE = 0; SPIN = 1
O -2.344777138325177 1.1194549624241787 0.004287609109698263
C -1.60786193571206 0.6640507461268209 1.1212659918034544
H -1.2496451949667389 1.5521408677192872 1.6391618707316626
H -0.7521074365192737 0.0547245834896057 0.817971306497127
H -2.23886560200242 0.08644997058541386 1.8041636655546596
H -2.6490628195455987 0.3524562192058183 -0.4948137224431594
O 1.398177119867543 -0.879133804457582 0.1595465795977173
C 1.7757559510519436 -0.6393680283827973 -1.1793463259268544
H 2.72698834457682 -1.1225018167452663 -1.4202356981922508
H 1.850249972145641 0.4325504750185922 -1.3867489670450621
H 0.9952810829496634 -1.066443999572734 -1.806680642629938
H 2.095867656479658 -0.5543801754113487 0.7414283329429266
