12
## STRUCTURE-ID: 645666fd7d0483503b4d3033 ; CHARGE = 0; SPIN = 1
O -0.9024439920746979 0.7383679015547241 -1.0098752697746876
C -0.40891789328921907 0.7565264934774015 0.25223383435935326
H -0.9500024311377979 0.10978477128396144 0.9415701691364756
H -4.284141236544431 -2.6509994093305966 0.6470362793117678
H -0.33304182088660655 1.7820386906412644 0.6112697943699648
H -1.4181214449178836 -0.05503430704256211 -1.2007754691753332
O 1.2846628502474289 -1.1233199914447392 -0.37185468164564
C 1.249807731693439 0.1741790417360764 0.16585143324758062
H 1.4383062865169243 0.9802031243720409 -0.5781449845994323
H 2.3404917995365704 0.35886020573266314 0.5073033572961776
H 1.1242546245087477 0.08878532466968912 1.2730240460385145
H 0.8591455263475218 -1.159391845649918 -1.23763850856474
