12
## STRUCTURE-ID: 64566ae941a86c591e1aaa1e ; CHARGE = 0; SPIN = 1
O -2.490838626820467 1.9365708697618806 0.6596410044223777
C -0.05544353956731886 -0.32119188633131657 -0.5981114985601859
H -0.8854961145394252 -0.002682739217818996 0.01011753666284581
H -2.3015010404659884 2.8361867079871006 0.380268610008552
H -0.27922512425343743 -0.8678159357822328 -1.4938011477315538
H -3.3890732755385415 1.7445500576514639 0.3785029986176497
O 1.5870292712940737 0.6403932987046239 0.8361424557101945
C 1.1930754001533226 -0.03987471551402557 -0.26858422468237136
H 2.0446725637324152 -3.5952206800154887 -0.18897820090930886
H 2.0448284313504117 -0.3320836686465777 -0.8679075645938003
H 1.7249822884256034 -2.885310946422033 -0.20189124443073658
H 0.8069897662293424 0.8864796378244187 1.3546012754863375
