12
## STRUCTURE-ID: 645666f5721c93639a5eb028 ; CHARGE = 0; SPIN = 1
O -1.806937249928678 -1.110898183242233 -0.024818071897814417
C -1.8170427602504586 0.16126878507988643 0.5912387112697062
H -1.0025405121998887 0.7889550056954953 0.21982901148389883
H -1.680203854187694 -0.009120682492516335 1.6579525524369916
H -2.7721350618616034 0.6716658208228042 0.4327915314568781
H -1.9151642584905058 -0.989103870292207 -0.9755025199495307
O 1.2868622950443056 0.9207472304710614 -0.7336315551291955
C 1.8313735471337471 -0.25316778099535725 -0.1682098972253182
H 0.9946493800223949 -0.9126802010483874 0.056566403186156786
H 2.3702275449654957 -0.035814989544744415 0.758918791603401
H 2.504414182624436 -0.7582345969135439 -0.867292161586799
H 2.0064967471284536 1.526383462459747 -0.947842795648379
