12
## STRUCTURE-ID: 645669cf39c5d56ec86cdb51 ; CHARGE = 0; SPIN = 1
O 0.6857871100334169 0.3836324675893708 -3.001761449745906
C -2.083345086189223 -0.1747629386892769 1.2698321570704088
H -2.6820268686977884 -0.696703893986635 0.5349455581045736
H -2.5591923047891116 0.7639697194794345 1.5216989087913348
H -1.9950456116339739 -0.7842107249897449 2.1599022266061865
H -0.15026562433728907 0.8536640880274222 -3.0531653562207026
O 1.2662750812088799 0.2094136959335225 -0.11697527947956116
C 2.258614246888227 -0.16410542443670562 0.44465451771588765
H 3.1127791138926466 -0.5910138087277966 -0.09820105657004702
H -1.09930589437026 0.01711835842243709 0.8627545412984974
H 2.3689115308305375 -0.10063329160718124 1.5353647657523606
H 0.8768143071639564 0.2836317529851559 -2.0590495333230523
