18
## STRUCTURE-ID: 64566e70a7597840d12726ad ; CHARGE = -1; SPIN = 3
I -1.4151080554936661 0.32582605403643855 -1.686213299825667
C -3.345444055059831 -0.046872428083121996 -0.7356283738482958
H -3.2184415385987513 -0.8657347998963965 -0.03555464554924513
H -4.050232876209415 -0.2958895585960619 -1.51886348750931
H -3.630420966142658 0.8599805030159445 -0.21461244012340625
O 2.8167183246424883 0.8608823486578672 1.314021774312293
C 0.9967651563404155 -2.4730903541737264 -0.5402425262409483
H 1.67231330368021 -3.2714456818893454 -0.26093731631745726
H 1.5382366594063075 -1.6270281407858393 -0.9501191181142284
H 0.2384630853747333 -2.8171072384192715 -1.2330214435115263
H 3.767497203173798 0.8127667708772724 1.0836446450351191
Rh 0.07107321615613688 0.9772030451243394 0.6732033407957705
I -1.741221298117744 1.5485710569203577 2.6092712839586776
I -0.013504117699490193 -1.8134388447556895 1.261788853079282
O 2.556632061266604 0.5728895267638902 -0.8837323528373865
C 2.0222070286518745 0.7513332606929751 0.2116572921048807
O 1.2842835433848405 3.643446300944917 0.6050200951002973
C 0.45018332524412485 2.8577081795654524 0.300317719491152
