17
## STRUCTURE-ID: 64568e8e7e789a19e47ffa7a ; CHARGE = 0; SPIN = 1
C -1.7905899342229878 1.4919223146223564 1.232536095773883
H -1.5687386550016942 2.0731527582365645 2.1282838682847185
H -2.515682287090043 0.7132227451217983 1.4832606427254604
H -2.244131071629174 2.122678401379847 0.4702405164645079
O -0.23086166226287988 -1.8648455579863699 -0.46351490140068013
C 2.7888709211714597 -1.6636683726344814 0.1885668465544439
H 3.5892215158112943 -2.297846445615703 -0.17258986261596776
H 1.8560726093344946 -2.209614514858927 0.29749033280900333
H 3.057599259360435 -1.1446624689281002 1.1009668249417428
H -1.0045873014665645 -2.4130872151690825 -0.30237640346621364
Rh -0.39407916066811727 -0.02394458605638584 -1.0413240831064983
I -2.9171971131314507 -0.4473603977683125 -1.596120650875704
I 2.4105415472360456 -0.1655188004859858 -1.3160642135553333
O 0.4656447292882343 0.6607229389220796 1.3803634017755764
C -0.5382906223519653 0.8464871356660093 0.772255176665743
O -0.5070268923143415 2.6613514577171986 -2.3577830492258482
C -0.4567658820627206 1.6610106078374902 -1.8041905417488366
