23
## STRUCTURE-ID: 6456b7897367fb07934975ad ; CHARGE = -1; SPIN = 1
C -3.1652564847263087 0.5594906165438289 0.6943354009362859
O -3.7243855555095378 0.3027648084383913 1.68174384923578
H -2.0277355807964046 -0.1303647128045448 -0.619183396505899
I -0.4823729110807475 -0.2243230396698045 -1.1170304589540736
O -1.2709932058817446 -1.4392563185550529 1.5403700540324812
C -1.4042575816628642 -1.0404221807674727 -3.064059487150953
H -1.9359014099970369 -1.9486885162827592 -2.8164441465661674
H -0.5915249605529295 -1.2368210953267753 -3.7497515937602834
H -2.067851149823287 -0.27698113241258054 -3.446464844686279
H -1.6576586310930526 -2.071110967804467 2.174427416094003
O 2.1811091599422676 0.044954028473458245 2.71844872654605
C 2.794661727331737 1.1189807124192086 -1.5612411535036932
H 2.162998526199548 1.1625867322260477 -2.4422006858245955
H 2.7404129964312274 0.13698250220858602 -1.1016123077330673
H 3.8159478667169973 1.4095506894753864 -1.7761272017692364
H 2.8684119888156747 -0.6164617811156973 2.9258096408659524
Rh 0.15072825721251937 1.0230588115948978 1.1388758512826298
I -1.908357009888856 2.7688260647138367 0.8724448197748548
I 1.9884446985267221 2.5371973530502263 -0.12466332272521162
O 1.8722591858897444 -1.2959387936782067 0.9581600252516295
C 1.5246820259819744 -0.27910914299784617 1.555486466807498
O -1.0284226447286149 -0.21043064245448068 3.388932804253794
C -0.834939307307005 -0.2944839952741767 2.169743544098495
