12
## STRUCTURE-ID: 645668c4122d50476c3eaddb ; CHARGE = 0; SPIN = 1
O -0.995261289315265 0.7488076605030457 -0.2843388341212215
C -1.919400452730537 -0.08115181117792869 0.4475886505699073
H -2.1081785023632613 -1.0292208367318862 -0.05558611922396106
H -2.8346536622210032 0.5068456560621432 0.5309849359018984
H -1.5081509239310946 -0.25953643562716666 1.4407952742850447
H -1.324458622151593 0.905759227882645 -1.2126263920800944
O 0.2945424301345893 0.053673284868097804 -0.5415694338494184
C 1.2791576313338893 0.45644984628296353 0.360881613509636
H 1.468760403423303 1.5302146462818669 0.307329932469318
H 2.1553782966667745 -0.08133931151620767 -0.007542562054518638
H 1.0671831849391153 0.13572364597499295 1.38294141394124
H 4.4250815062150926 -2.8862255728025894 -2.368858479347842
