12
## STRUCTURE-ID: 64566661d9fb2d1f39230d7e ; CHARGE = 0; SPIN = 1
O -3.2259536794523966 -0.02116939430750998 -1.2391206538405715
C -1.9477339467062325 0.06872561422847795 -0.6490738442275792
H -1.4233748439868106 0.9761398328756097 -0.963615969724172
H -1.3322778682199095 -0.8038008295134567 -0.8883965242862797
H -2.1042936890582955 0.1059734557723751 0.4274599410760084
H -3.1250817190504305 -0.05310285419724511 -2.198016568047261
O 3.224632900156067 0.023977559229218223 1.2424275017480566
C 1.948675396100416 -0.07071198329201513 0.6483224558209908
H 1.3321906402308243 0.8034298502888192 0.8787387352888834
H 1.4233159154854458 -0.9757743131883388 0.9678137715488085
H 2.1093818203668695 -0.11610417363614908 -0.4272777007829753
H 3.1205190741344615 0.06241723574021824 2.200738855426085
