18
## STRUCTURE-ID: 645672e4db24f617f156edeb ; CHARGE = -1; SPIN = 1
I -1.4496195918954813 -0.07117084929121814 -2.5930991816310143
C -2.978080375506604 -1.1680320522296928 -3.665740288343692
H -2.8580672439397934 -2.2188736525452275 -3.4381872040796346
H -2.840732142278189 -0.9820475846114296 -4.722670914982572
H -3.9414377705375157 -0.8062706591469766 -3.331448824338966
O 0.8889453694840003 2.9250429605750425 2.288421299507979
C -0.5599840141984814 -1.4235058368689544 1.1547112068260152
H 0.06293093750069563 -0.9785109494208873 0.38626186641460963
H -1.596384320131047 -1.1418321750446199 1.0199272811452615
H -0.4410326677978968 -2.49908518701154 1.1851396989254972
H 1.197610646317721 3.264035430062573 3.13465253281007
Rh 2.0417926975342495 1.3917794941759791 1.5799979859876547
I 0.09132561250372864 -0.632120015223807 3.05599209751647
I 3.7093211734290357 1.6071926686765072 3.6151607391883624
O 3.7980928603838136 -0.7497956084471791 0.45968082207599986
C 3.10299107815595 0.06593784941993923 0.8981303141890371
O 0.6318832976176769 1.8075807480375938 -1.022316906648286
C 1.1404444533581728 1.6096754188939157 -0.004612524562779222
