4
## STRUCTURE-ID: 6456634b7bcdc91f2e068a04 ; CHARGE = 0; SPIN = 1
H -0.2360635079406407 0.019282460794120274 -1.0510577109064936
I -2.328803077653035 -0.015488150227990403 1.3943127995768292
H 1.9567955829733756 0.0034722285453474217 -0.6399715892632748
I 0.6080710026203012 -0.007266539111481376 0.2967165005929406
