14
## STRUCTURE-ID: 64567972e5a5d948c60b3f6e ; CHARGE = 1; SPIN = 1
H -4.738566554534583 0.1507749583333184 -1.079726806708288
I -4.158829244598355 -0.4996088309553745 0.2240540798606414
C -0.6587950969332522 -0.269133142533489 0.07409522176691888
H -1.0013126780166384 0.006605373601547037 1.072385782756735
H -0.8806600018000617 -1.3130803184951745 -0.14167534549037972
H -1.0558342339528533 0.39930977325149153 -0.695385591892455
H 0.913636708758049 3.4743031823137356 0.5349290897029901
Rh 1.4345875408195479 0.12258679931993655 -0.015061432825978195
I 1.3319950383598076 2.3432360474676317 1.5701090258471928
I 1.7036770358341644 1.4876117291268092 -2.219144382801956
O 1.8974455420649075 -2.07399499560732 -1.9945049565522717
C 1.7067072700967767 -1.2603976430230452 -1.239048562748331
O 1.8594223915225765 -1.6073650181851782 2.403136950983228
C 1.646526282379636 -0.9608479146134263 1.5058369281050301
