18
## STRUCTURE-ID: 64568b9991bc410d8a248ada ; CHARGE = -1; SPIN = 1
I -2.5996360680406316 -2.76489139305949 -2.03048806971564
C -2.3383625145389266 0.03427366296685821 0.14768588691864093
H -2.5480635504852316 0.8798990575569764 0.805386901600876
H -2.711468227513216 -0.8785268720042679 0.6244530004819029
H -2.853759447178409 0.19920588497275096 -0.8032521672852965
O 0.011482184126839856 0.38124930155570524 1.807101824227387
C 3.05605297646158 1.2451423912087405 1.0746390153031578
H 2.2543630353355715 1.328199693208281 1.8017013046942811
H 3.0726810916524814 2.1018060858948955 0.4096222719249619
H 4.016288453210384 1.073169827305034 1.5452428793671418
H -0.4328331776088523 1.1904218414780674 2.076370389811668
Rh -0.30211145194800804 -0.21578141205682497 -0.14462579635805098
I 2.5835193132775376 -0.5025562947071 -0.12124332104374164
I -0.14219099908475163 2.25653671509386 -0.9471600455142777
O 0.173966379051418 -0.8002898934110181 -3.0859959456083175
C -0.16822844602899942 -1.018546464403745 -1.953488089474787
O -0.400636763535115 -2.424019848094348 -0.018989610636570082
C -0.6710627871536784 -2.0852922835043803 -1.1869604286933213
