12
## STRUCTURE-ID: 645668dc8651ef67532b66b8 ; CHARGE = 0; SPIN = 1
O -1.4763302587602283 0.5570844374993594 -1.0304035608761384
C -2.0621022917887837 0.015849381003425384 0.1299563376707194
H -1.5888876349525276 0.4082272560965611 1.0366546772963863
H -1.9986588929005875 -1.0771535227253162 0.13774776331359792
H -3.111106766409021 0.3101835711364938 0.1251724108670275
H -0.5457815480233923 0.2701711333424964 -1.0587013058325687
O 1.2607401537926655 -0.27796017198358475 -0.8119610581794612
C 1.8112684811621669 -0.09082144076584392 0.4767532101109006
H 1.955075417939533 0.9707718792499659 0.6965901434235503
H 2.764006947872886 -0.6153392394613879 0.5812445379443048
H 1.0993873209198248 -0.5084312153147973 1.1864157720861175
H 1.8923890711474693 0.0374179319226268 -1.469468927824441
