18
## STRUCTURE-ID: 6456b87a33c5c02b0e5a851d ; CHARGE = 0; SPIN = 1
C -1.8743391284844908 -1.6164245817950447 -0.6247002383875985
O -2.756183629846305 -2.420585001329039 -0.45998093531550793
H -2.3490557359931517 -1.0771834724558411 1.8573696994230313
I -1.1815829818953936 -0.3051614716293351 1.0211797700652356
O 1.4935219117227365 0.51445895425568 -2.971431491122855
C -0.5672648318814828 0.520849922506595 3.025641821067116
H 0.4817747811528613 0.2928070195487048 3.1853921279078112
H -1.186825834084518 0.01925039748372632 3.7612426180676386
H -0.7293299499260576 1.59360890139204 3.0403040744924565
H 1.7870981173671159 0.8438895621991928 -3.838633489976254
H 2.5871442781678318 2.514662237441494 1.8037242246458234
Rh 0.8852998741525445 0.3172498285090913 -0.4418718861551769
I 1.4265355953328531 2.6919814191634526 0.7310609721380044
I 2.945155458731565 -0.955213612289066 0.5780644239407002
O -0.14075867445731582 -0.5176497187675139 -4.142635325847891
C 0.37874218046281577 -0.2614498613769879 -3.0675609600858533
O -1.1328146411490847 -1.4959567160598761 -1.7047442058344005
C -0.06711678937242904 -0.6591338067972942 -1.7524211990223035
