12
## STRUCTURE-ID: 64568eda651fc45bb04f7340 ; CHARGE = 0; SPIN = 1
C -1.6597599584638374 -0.4368848712065809 -0.2688162524871902
H -1.9826438675986668 -1.4866763673476637 -0.23099394627550926
H -1.8750080783395036 0.08304459533336987 0.6671428771783078
H -2.1098066442162637 0.07806783520663872 -1.1173007970697657
O 0.7418055742550247 -0.45479470628858243 1.6283714789680013
Rh 0.3939815491101379 -0.6212024169168525 -0.45955632744172054
I 0.4787446868181422 -1.4512389148919427 -2.869318761521464
I 1.4572512680213194 -2.2474250722524856 1.4820663277022907
O 1.427846716519787 1.9367241808725235 1.9253127894772037
C 1.6353931727557875 1.1759173867926573 1.0928475729956575
O 0.7822089735820675 2.2455610153523864 -1.1330555175899688
C 0.7099866075560087 1.1789073353465338 -0.716699443935837
