18
## STRUCTURE-ID: 6456898d170d19403d0b39d3 ; CHARGE = -1; SPIN = 1
I -1.0993743188237992 -1.4308765193093054 -2.7932295503838733
C -1.8212364077395002 0.7713305959735085 -0.1863670396647619
H -2.381354253618547 1.5579616129014302 -0.7002409973708889
H -1.6825920395015 1.0807743286570863 0.8533839358384895
H -2.4347564218786704 -0.13077556337709836 -0.19299201200337068
O 0.3443481157671628 -3.2936793959863766 2.0060486686244863
C 1.2407377577703689 -0.7473000782141846 1.8339233271080162
H 1.0909156548671384 -1.2540272991745347 2.776970601620794
H 0.87726446227541 0.2758684108626651 1.8597862277285526
H 2.282967921999493 -0.7811828315607887 1.5355830910050179
H 0.040948323301816664 -4.157584907473986 1.7219098326089488
Rh 0.057804553873355466 0.3829479751176863 -1.1470272662393852
I 2.632883968369763 -0.2693603827809378 -1.808068257029529
I 0.11130774163147622 -1.8304326039637826 0.3866432593770357
O 1.0076190297683096 3.1681845821288386 -0.35395610797654303
C 0.6359807397785777 2.083751946161635 -0.634815229519096
O -0.7197601998359321 2.640765639783626 -2.953105185387188
C -0.18370462800495294 1.9336344902545664 -2.20444729833677
