13
## STRUCTURE-ID: 6456888d3f28793fd1530d5a ; CHARGE = 0; SPIN = 1
I -0.538943149250295 1.9217008125276576 -2.138897664120458
C -1.5096479963647027 -0.9411028431754571 0.2851605520817283
H -1.3271004664711885 -0.8411387917549964 1.356487608601585
H -2.0545198489811765 -1.8677369933668018 0.09513060947698625
H -2.1189196828251933 -0.0954058461241772 -0.04151701709010455
H -1.3320319477771225 2.821443833033729 1.1260941408765968
Rh 0.9713803108201553 0.6384205247912561 -0.4381256775991356
I -0.07215480650917193 2.0467900086464907 1.714249787706441
I 2.905451444353814 0.29300106097949663 -2.256237037386788
O 0.1860724841238858 -1.8859432876973687 -1.1511211212511117
C -0.23707236209105548 -1.0141715738210328 -0.4736751113242495
O 2.9577230022786245 -0.8124611702249923 1.268556493708457
C 2.169763018693418 -0.26339573381381415 0.6538944363200577
