19
## STRUCTURE-ID: 64567a2fa2c4063187324931 ; CHARGE = 0; SPIN = 1
H -3.503621423514988 2.391439729048265 1.995341615580863
I -4.686289549922521 1.5354995745232713 1.4197439752441998
C -1.6160341987833389 0.3222318238439883 -0.9336723592558323
H -2.2524402748271726 1.207696810728194 -1.0096810154313791
H -1.8919957361582076 -0.2791633615853423 -0.06363608467643511
H -1.6724833368296246 -0.2666666200044037 -1.8471720039871624
O 2.3645442398323815 -1.950915225069585 2.6134122816915175
C 1.3108081479075517 -2.32923985692141 0.14912340396607013
H 1.3378002968506053 -3.1503991307125907 0.8521215834737502
H 2.215097406864015 -2.3186291882316703 -0.4463143717714756
H 0.4200172379668369 -2.3530355210088936 -0.46630490471433816
H 2.5210726007269857 -1.5740915091430012 3.4784910934234112
Rh 0.29858434231686243 1.075573417369814 -0.5423223846771587
I -0.3039646771289514 2.4964810852241675 1.5357551930980609
I 1.2592510212140509 -0.5671446886927904 1.3385339439010226
O 1.6242375666574922 -0.5630906002398032 -2.6468502694645393
C 1.0434092880570711 0.01902458982810497 -1.856310050516705
O 1.1661175647927065 3.539975217450613 -1.9065437354311008
C 0.36588948397825105 2.764453453593068 -1.6637159104527703
