21
## STRUCTURE-ID: 645676a52540d632765b5c37 ; CHARGE = -1; SPIN = 1
H -2.0468488282219215 -2.272365915655414 1.1422060584899683
I -2.789486452757183 -1.2451809915727103 2.2309819387381307
O -1.255688004974334 -3.1006354160188625 0.24742103585822392
C -0.5736551063135982 2.9249467949492676 -0.507323465770318
H -0.9349882734355215 3.9157143377242094 -0.24269115441872394
H -1.275579160742532 2.5001513560048836 -1.2242733302380802
H -0.5657037792012464 2.325707347983478 0.40301823356972816
H -1.662102849069515 -3.0746348887141197 -0.6274306172696082
O -0.5258400637743642 -0.44619830061875265 -0.7039560356503045
C 0.8268038311169312 3.0135872690658285 -1.1003038775163505
H 1.2256262983162305 2.0262105574003897 -1.3295131288078252
H 0.8198413556008345 3.598531717855151 -2.01651379019742
H 1.5056122122566906 3.4841282345853744 -0.3931200299618344
H -0.7286591902320881 0.5132698729597013 -0.8075748247363596
Rh 0.7825179073804275 -2.6431071705221365 0.26058278337292545
I 3.408242898950207 -2.5907316131738876 0.5337866774606047
I 0.9003781111209131 -3.1288013913763795 -2.289044446121515
O 0.7837490371960253 -2.6162278713798246 3.2441518506161113
C 0.7515061420392282 -2.587938901354927 2.1036556812015235
O 0.9631785870641046 0.10167661260243464 0.8813575020740263
C 0.39109532768071564 -0.698101640743711 0.1945829393071131
