18
## STRUCTURE-ID: 64568bb392c52c6f184efcaa ; CHARGE = -1; SPIN = 1
I -2.335278203132616 -1.9885990489447878 1.2483895914489802
C -2.5064694086277037 0.5406988281019798 -1.19733069176488
H -2.5530107597754026 1.4093615563100048 -1.8710896989046082
H -3.117499216788622 0.7612965392008745 -0.319880792845074
H -2.9657422515246274 -0.309672892211287 -1.7103613257542905
O 0.5413991642098702 -1.1114287028418004 1.4732843390003936
C 3.067903352593393 1.023217138885739 1.256960165749487
H 2.966071186835597 0.1149464530320028 1.8399073190255573
H 2.4346149863560487 1.8135187552867422 1.6474203449419802
H 4.1010662348840885 1.3399777035232998 1.1835349043005914
H 0.03802894020086559 -0.5647728229933668 2.10662905412184
Rh -0.488858778878019 0.2742237853759976 -0.6985398472416499
I 2.3882117333601114 0.5598438540823689 -0.7597914310345073
I -0.7073576702396984 2.095199483453173 1.1735940513225362
O -0.4498093938352215 -1.3480464517552462 -3.19969423187178
C -0.4533303642332711 -0.7233053384778162 -2.2326407869277896
O 0.22527507909074412 -2.400126390026937 -0.32260475272233796
C -0.18521463049555334 -1.4863324500009247 0.3822137891555506
