21
## STRUCTURE-ID: 6456760df26f533dcb2726c4 ; CHARGE = -1; SPIN = 1
H -4.906474400873286 -0.6993964880960285 0.8241330289944084
I -3.3253885599499187 -0.4741460450217258 1.1734071643977015
O -3.9648364844007395 1.3599144426538086 1.286360476339734
C -0.37310703624328356 -2.6693249084061224 0.2758500474468358
H -0.6276613083000986 -2.392057028879022 1.2968740122567495
H -1.167541510835779 -2.328442077270723 -0.3846922357988941
H -0.3128818599068547 -3.75245402856392 0.21610575810445196
H -3.3212556434232696 1.9011717287596492 1.7541824500306127
O 1.8309415969106344 3.14295156586114 -1.8735488576811345
C 0.9558206735655714 -2.052712363749781 -0.13332658980528622
H 0.9243171196366545 -0.9384135597753408 -0.09079737374018296
H 1.7642461550866644 -2.3748862866612197 0.5216419131975648
H 1.217043553725887 -2.3172184624246865 -1.15673637587528
H 2.3901527327033634 3.297270723879741 -2.6596201724162536
Rh 0.7474907970309473 1.383390007355819 0.03738770397516669
I -1.3288905509104902 1.1794614075239465 -1.519790715657623
I -0.6199043166510368 0.9195161299243294 2.259409190577877
O 3.4223358778220483 2.139108444358083 1.1073983835668397
C 2.3427266592718623 1.8135600304178154 0.791260574565036
O 2.521937724727708 1.0476815180313634 -2.1985427021946076
C 1.830928781013397 1.815025250082832 -1.5269556802837967
