12
## STRUCTURE-ID: 645667bf7d8e331bb7230d76 ; CHARGE = 0; SPIN = 1
O -1.3086119996665406 -0.8399663551755778 -0.9433581970779226
C -1.4676357074997806 0.10154362857882575 0.028164405308270347
H -2.0610412815077845 -0.2695201025123098 0.8652382146399573
H -1.8315943194892321 1.0685409182312366 -0.34023492897962615
H -0.3633985162246224 0.32260360238994884 0.3916546754685464
H -0.3521612568775728 -0.5819807214295144 -1.3160419860122496
O 0.9828815367806154 -0.029634680424495474 -1.2651835677269605
C 1.0577615914570386 0.25205402841644653 0.8203853197499389
H 1.3673900907551713 -0.7746961554792964 0.9164367528546699
H 0.619269265041063 0.6319120205830611 1.7417267800747847
H 1.8161561441896472 0.9219962336805754 0.452610422156294
H 1.5409844530420078 -0.8028524168589105 -1.3513978904557018
