23
## STRUCTURE-ID: 6456b957b9a3b1486112b093 ; CHARGE = -1; SPIN = 1
C -1.9994145468425226 -0.6087515300859363 -1.2040564682279673
O -1.9085836137151213 -1.314549388630822 -0.30039954097643135
H -1.743532543099247 1.126917198434784 -0.6080254205772636
I -0.5172815712886374 1.5662397594114392 0.5816962269833279
O -2.1996317061751802 0.8823431832865648 1.5388152678929945
C 0.28256992769643485 1.8601276970633234 2.590479999495107
H -0.28292882635613137 2.6312495144856505 3.099093627805049
H 1.3125368278694798 2.169119210715199 2.449777579319746
H 0.2541632725233836 0.922927350605875 3.134978805144278
H -2.0916745142669324 0.8669070660538184 2.489381827502057
O 1.8004728110696715 -0.8724256022131013 -4.34739881652871
C 0.363076954150404 0.9515753324854521 -2.8462138496304052
H 0.8312212780262441 1.1904743598637684 -3.792067838365216
H 0.41586501869878173 1.7701332063505928 -2.133129322591197
H -0.6553250198408811 0.6105827372729756 -2.989706887990748
H 2.516302340749611 -1.483428799742902 -4.519492319440397
Rh 0.3343438814404397 -1.0160618291317922 0.2974632662506972
I 2.7546987890045624 -0.8638927697774276 1.3269496962344611
I 1.4944438048677835 -0.6778321286336484 -2.043697024595961
O -0.45218396999084726 -3.731658524229957 0.6108775463546275
C -0.04732146336082248 -2.7728173340078994 1.2431233693045163
O -0.2736840710109006 -1.462311228437333 3.304528566739923
C -0.18813306014954428 -1.7448674811386018 2.1170217098975335
