12
## STRUCTURE-ID: 645665fff3c7d373252abdd0 ; CHARGE = 0; SPIN = 1
O -2.0226194168880065 -0.32075547624850953 -0.06029423262303106
C -0.3534148679969337 0.5545226299986905 -0.6871425286959482
H -0.24055500008070688 1.6244160722686103 -0.8381012631277185
H -0.002338614453661839 -0.023108874406896355 -1.537112695456111
H -2.6067629071897844 0.3502751913104175 -0.4140086007427516
H -3.029901899622408 -1.1217407073173815 0.5003136988287441
O 0.3484348942625682 0.18519695447228257 0.5367133146701542
C 1.7581314130925945 -0.1216227383452224 0.42600588217121815
H 1.930561527967554 -0.9383518894908106 -0.2755614739600574
H 2.1255267712304065 -0.38189534015447824 1.4163665580978992
H 2.256153462573213 0.7789875562937948 0.07056308558486922
H -0.16321536289460567 -0.5859233783802155 0.8622582552526307
