12
## STRUCTURE-ID: 6456671eb3b93849cf071023 ; CHARGE = 0; SPIN = 1
O -1.3920686934095352 -0.889837367072283 -0.07998073684564753
C -1.3808126884106038 -0.5857235249567161 1.1641448081946388
H -0.9904571481865103 -1.341990481664632 1.8681107774714703
H -2.2704759018071567 -0.0755319499487714 1.5742425144776027
H -0.46214053466418026 0.40423803844511536 1.3582710513045464
H -0.5118456379679841 0.16757305536681538 -0.7876259949540725
O 0.22824196211335437 0.8799674244031876 -0.7844397365155305
C 1.4476252602541837 0.24403147115118734 -1.1539731142062621
H 1.5854337602242716 -0.6975008445277332 -0.6231459607308384
H 2.2618080771206373 0.9282339605120355 -0.9195751330312771
H 1.4282208897479252 0.05154640657086292 -2.2267376269329935
H 0.05647065498559585 0.9149938117209249 0.6107091517683768
