12
## STRUCTURE-ID: 64566a53ad734b65a66f2ca8 ; CHARGE = 0; SPIN = 1
O -1.0416455563033913 -1.1766193666901674 -0.517715099441209
C -2.0607352074238223 -0.26055906250534716 -0.17894481110937427
H -2.5708964096930553 -0.5548660523789681 0.7429991823791245
H -2.795076361853092 -0.16405694995694584 -0.9839197809894635
H -1.5780935965108478 0.7030669833098442 -0.023747229450828054
H -1.4392718819104406 -2.0419983387413976 -0.6728040421765751
O 2.075115051171031 1.4863952614659337 -0.3065703366871109
C 1.8415467845129212 0.42159707817654957 0.5933666076618891
H 2.7273373860444416 -0.2138510564925416 0.6913918778200426
H 0.9909500011797475 -0.1891844957482231 0.28053762300459567
H 1.623799626208467 0.8736921943850906 1.559652108668185
H 2.22697016457804 1.11638380517617 -1.184246099679285
