18
## STRUCTURE-ID: 64568b03a6249d3148399e40 ; CHARGE = -1; SPIN = 1
I -1.8085798802431323 1.7590653907951397 2.5842904825769706
C -1.6316730195532991 -1.3737055914791036 0.704902064265857
H -2.140363204962388 -0.5533669255976844 0.17964865276690886
H -2.1072242764194065 -1.4958134454728897 1.6778465171123091
H -1.766371984235453 -2.280261436162771 0.11463618401639354
O -0.3363162875107396 1.6629104082156645 -0.26714821801575883
C 1.1514174421615493 0.8928740102491907 -3.063996611619193
H 2.20520664200177 1.0049346647624913 -2.8316625156825
H 0.5609206677954442 1.6713973558885484 -2.592457910965793
H 0.9711742100283997 0.83529270783356 -4.130346844096785
H 0.2558142820250864 2.410585534884557 -0.14793538492482908
Rh 0.26432980299417325 -0.1946291172716272 0.5439256655288479
I 2.8350556973926415 0.5712147853209518 0.5398681355140711
I 0.48752314968916144 -0.9687736373395599 -2.1828269757447183
O 0.6463108688013828 0.32712600717040274 3.327243905981003
C 0.02379158365521426 0.48565036274326334 2.332622877376187
O 0.21544099256692334 -2.869772288223965 1.9164263490481004
C 0.17354331381267668 -1.8847287863162117 1.2949636268629514
