13
## STRUCTURE-ID: 6456885d238bb36cc65b5c2b ; CHARGE = 0; SPIN = 1
Rh -1.8758649601045378 -0.7694922184466184 0.12987176249764723
I -2.916578263059847 -1.5387631952471184 -2.0647292946339695
I -0.6209844014584016 -1.7495906120352451 2.110281846485939
O -3.6411636200419535 1.3480052866104426 1.1548922178030239
C -2.6253713367078175 0.9817612317201241 0.6305313391592894
O -0.4139071867687468 1.6812042374201839 -0.3481384510265512
C -1.3978748248006467 1.0983440362778925 0.058132772580129846
H 2.060493735495601 -1.558842388366718 -1.8387565781150148
I 1.0935158770745348 -0.33793267176861685 -1.3939288465550004
C 2.443057878778925 0.1502613590345983 0.2141947569627798
H 2.08777637269218 1.0935835574671726 0.6186040894516814
H 2.372420589582149 -0.6470957130547015 0.9510234594203196
H 3.4344801393185675 0.24855709038859547 -0.2219790740302761
