12
## STRUCTURE-ID: 645669e2c3578840a0333beb ; CHARGE = 0; SPIN = 1
O -0.0482093858885573 0.26060133355327875 -0.11768479739442698
C -1.3560103197427138 -0.1815318013170044 -0.4112126249530262
H -1.986317702164296 0.1308525091257516 0.41801280611048014
H -1.3884482127526994 -1.2723600177753973 -0.5072439113893373
H -1.7198390638623133 0.26953103546789564 -1.3406502942528975
H 0.8118501618278677 1.0795623342303693 2.8777500338022386
O 0.8494148118236846 0.1528416947134688 2.6287736848007563
C 0.8826594707790101 -0.07744430468595333 -1.1232011086654334
H 1.846806038908781 0.30824849552381106 -0.8003793248116575
H 0.6050206709342264 0.3782487544989786 -2.0797371359066847
H 0.9450283078082418 -1.163849618212482 -1.2500446297179924
H 0.558045222328777 0.11529958487727053 1.7056173023779686
