12
## STRUCTURE-ID: 64566a6b61add74fc028a81b ; CHARGE = 0; SPIN = 1
O -0.13606767213251994 0.02818679780980253 -2.7317242485493125
C -1.1414178807945092 -0.1596098261321988 0.8771263817983664
H -2.0332185354579706 0.15775893103526362 0.341858715617372
H -1.1269350852473938 -1.2524390162169716 0.9525128458357178
H -1.1452727783791552 0.2677857310983017 1.8855530212366665
H -0.04100813956654599 0.931148048586965 -3.0442014991703408
O -0.03463118455221328 0.3098574581573203 0.13786906808568705
C 1.2018294532100515 -0.029295989922394638 0.7285293849570911
H 1.9787042528254417 0.37868320687455687 0.08620403669407989
H 1.316710379884059 -1.1164179431063899 0.7996488521399459
H 1.2864548665680176 0.404958295846468 1.7304272617018213
H -0.12514767635725044 0.07938430596928431 -1.763803820347099
