18
## STRUCTURE-ID: 64568ca250ef101b9c7ffa7a ; CHARGE = -1; SPIN = 1
I 0.7921941165429188 -2.5990436991928507 2.164319655866474
C -1.6052550631290419 2.302036996358426 0.17470266077733454
H -2.457612583438592 2.9498529353323217 0.33244526523775264
H -0.6772188560284463 2.786672028616298 0.4541650230015977
H -1.5633288376789547 1.9446870969879424 -0.8488500610269921
O 0.307582314267471 -2.5474337636334665 -2.678531457966042
C 2.2157530255538767 1.0989338783395244 1.9103503696069128
H 2.649681709195359 0.2698758283594794 2.4581029079756034
H 1.232710771847393 1.3379019328773616 2.303213501848849
H 2.8686038250991834 1.9628786794776756 1.904385411879844
H 0.4784963345022423 -3.5021067227618117 -2.5976949571779473
Rh -0.14442434983221636 -1.2338248647389256 0.05095733382352515
I 1.9641097049143947 0.4531575469942129 -0.1642814594235789
I -1.8630189776275714 0.5637437181663844 1.447912444139637
O -1.3174572258295554 0.16257259772818847 -2.3263944878570015
C -0.8877934766815099 -0.7380319157592464 -1.6261111566327693
O -1.3126252400717477 -3.0371544554522507 -1.1494506355973666
C -0.6803971916051841 -2.17471781769925 -1.8092403584758616
