10
## STRUCTURE-ID: 645688b82529d54ab14dd527 ; CHARGE = -1; SPIN = 1
I 1.8594509712092264 1.6601545977441625 0.5201980633217079
O 1.7099272483239847 -0.34799328462252077 -3.207462572580657
H 2.4847332898891983 -0.8723205776090568 -3.4344592841810897
Rh -0.027870465666267445 -0.12705162662984362 0.5115647858083608
I -1.1401743971956717 -2.5265651469596584 0.4935450217041799
I 0.6115700852713642 -1.2857995737862122 -1.8285774859496327
O -2.325863990958114 1.5392619129947909 0.3530864353931995
C -1.552744198280745 0.9694909946183606 1.0693687657960047
O -0.7759355662647306 0.48495431367857944 3.3639394893459866
C -0.843092976328245 0.5058683905714055 2.158796781341934
