12
## STRUCTURE-ID: 645668bb627c9e44ec111dfb ; CHARGE = 0; SPIN = 1
O -1.0329593889699924 -0.5298739071200957 -0.2000814725859375
C -1.6110322115359608 0.5993380334111841 0.4851431145091942
H -2.657480940321471 0.336654548933152 0.6477003075921725
H -1.521176105804976 1.5194726085519525 -0.09224455420982217
H -1.1073004817353838 0.7139247292009848 1.4445462429255336
H -1.4444182988274135 -0.6360207088383341 -1.102468772860141
O 0.3938429889686146 -0.2958255133254882 -0.5459650847134864
C 1.2421470365455833 -0.9836198637524605 0.3243091027775779
H 2.224255100665262 -0.724590369191272 -0.07518809033586304
H 1.096275495291561 -2.0641857588986947 0.26618090589865495
H 1.1695743857369887 -0.6212282841326585 1.3517757610621215
H 3.2482724199871953 2.6859544851617243 -2.5037074600600118
