17
## STRUCTURE-ID: 64568e9ce612bd2b502abdc4 ; CHARGE = 0; SPIN = 1
C -1.8624135007529141 -0.5543565491437402 0.744251952491365
H -1.6387677747259437 0.2698340319122103 1.4156784635614907
H -2.4532246160694156 -1.3104324074600973 1.2708772013220233
H -2.401457976211116 -0.207243194493109 -0.14196382051085726
O 1.4423475793941627 1.9750653821101005 -2.6375694742335645
C 0.3351284798106019 1.9587291759238903 -0.12616413542197524
H 1.0346369449950525 2.7372524420701376 -0.4083210416638764
H 0.5193272414787341 1.5851727750596953 0.8739047005929522
H -0.6901890223353181 2.2858058254868268 -0.25251391846708493
H 1.5995607680062802 1.7250505715197713 -3.551370561646493
Rh -0.2233533893310585 -1.5922137937403222 -0.006583511278284282
I -1.2445185606832918 -3.273803784161051 -1.6344819868736278
I 0.6938490432065314 0.37011548235473546 -1.5068047018314452
O 0.39396350643329203 -0.6612802960647028 2.824132295160281
C 0.5981495248735019 -1.1167828910403 1.7264290026618532
O 2.4059689665952604 -2.305540231306181 0.3898485714958964
C 1.4909927853156304 -1.8853725390278584 1.020650964641347
