19
## STRUCTURE-ID: 645679f37ad96277ef051b89 ; CHARGE = 0; SPIN = 1
H -3.4851640809603763 1.7532897533172858 -0.19101038744899704
I -3.9452684546406247 0.5752488164845563 -1.1354003564375945
C -1.1728190309046806 -0.1970219300869185 -1.3555430630453817
H -1.2763398941587096 -0.39565357750783936 -0.2839969708969813
H -1.5114926841515615 -0.9480838849652566 -2.050355432744601
H -1.0770254409204272 0.8237367102768324 -1.6912883267046017
O 3.5710707479262047 1.0993636214553806 -1.4267797595672314
C 1.4089856373008363 -0.5824381086430289 -1.1875516366217367
H 0.27567104000752796 -0.48893063862901043 -1.4276157625803538
H 1.5883692232787905 -1.5671246152151737 -0.7712916576848101
H 1.978668120279697 -0.37597162959505415 -2.0848959610085576
H 3.9381278015453938 1.9775552835441874 -1.4981492016977134
Rh -0.03648439017942878 0.1063672205303172 1.9145134113548694
I -1.1767088478740644 2.419014512746964 1.7602338432138014
I 1.8273871450775392 0.9401549673895497 0.22525092685410616
O 1.5438964653795832 -2.42604086542571 2.0922453122598452
C 0.9035732076459467 -1.478570724272898 1.9952646358897486
O -2.0531665598687923 -0.7825799302984509 3.955345060569684
C -1.3012800047828554 -0.45231498110570906 3.161025326296545
