18
## STRUCTURE-ID: 645689260611b400ec1aaa13 ; CHARGE = -1; SPIN = 3
I -0.25967752544363204 2.9008212747982327 2.092420729056106
C -2.0567225458108473 1.1816446482103973 -0.5169557200330872
H -2.34783868500366 0.6511440945387308 -1.4214250613467634
H -2.6385785908729935 2.0984803365937763 -0.4302447167805537
H -2.279781316475838 0.5635019996143246 0.3621223481191907
O -0.18593479528222917 -1.471208556089602 -0.8909915278675695
C 1.7264143829859333 -2.1860570110499813 1.9334349477177897
H 1.6286850163141329 -3.148318322299731 2.4196461082043115
H 2.5308268277409325 -1.5993463230363605 2.36200238390198
H 1.8606942703234763 -2.290508842717235 0.863777861433199
H -0.19771275288988543 -2.1380665694660403 -1.6081017184187494
Rh 0.17228621674581265 1.1257716304127796 0.09161644907982848
I 2.8130401397493947 0.9935406210507429 0.09445003149568233
I -0.11611328368669202 -1.103474231247762 2.2558219612059243
O 0.5347774696594287 -0.08006817235403584 -2.471514433748648
C 0.20923392900695598 -0.2642232609206371 -1.3164915010430374
O -0.8241620166958052 2.434210514841247 -2.4818811171809756
C -0.5694367403645298 2.3321561691210775 -1.3376870237947225
