31
## STRUCTURE-ID: 6456f71b4fe9041a647b9244 ; CHARGE = -3; SPIN = 1
I -4.941421653478198 0.6749580671688071 -1.8293223153992162
O -1.54631480727208 -1.1985336190207303 -1.7882940089323147
H -1.613801610523179 -2.164175875879488 -1.825380661645242
Rh -2.4873972516821725 1.0761392082651644 -1.1163299078118
I -2.669625725419687 1.941634527039978 -5.770641733714207
I -1.2919637221069213 1.4203107183937702 -3.4339619119562266
O -1.5883024878782357 3.829745017981172 -1.0911236644897708
C -1.727506023679393 2.766023085251259 -0.5827925112130337
O -2.9263356261425977 -0.346421837609312 1.4209284038680083
C -2.426844428817281 0.4547163209540215 0.7037681758683102
O 3.860285897932285 -1.6093641720092282 1.4602472127477542
C 0.29967424942595794 -1.842044041874015 3.2569128741662388
H 1.2572612475072729 -2.2439455439746596 3.5679909952915154
H -0.1383333145399571 -2.4399933273416115 2.4655737577884436
H -0.38229822663699076 -1.7325352149755742 4.092629567970978
H 4.307045656437451 -0.8073027857606289 1.790890031349781
Rh -0.893257790698276 1.697719462224936 0.8257876683596105
I -1.9832369842508553 3.011290354755406 2.9081331142064792
I 0.6377800045333375 0.09143002272212368 2.414854357930226
O -0.5830106224031609 -1.429132210355701 0.29579239332449775
C -0.4256477397098918 -0.8240887485463358 -0.8385326268054841
O 0.23317092616316418 1.2294442449497975 -1.8627896658071161
C -0.4395551486742651 0.7163305290795619 -0.895296886083428
O 0.7206690903942662 -1.2481426603356804 -1.5921905558024787
H 1.2356654670518483 -1.8585227949918188 -1.0069112059935421
Rh 2.1487687511339413 0.44141462363697126 0.34786425495145334
I 1.5651701055678122 3.061737266815611 0.8592303795500855
O 2.3219872363875442 -2.4119445120157383 0.12799317752114464
C 2.833946747068956 -1.3928981995476812 0.5966951785295272
O 3.51544054444951 0.5834753222040223 -2.2942601054555
C 3.127987239859941 0.5526767727953769 -1.2074637823145273
