8
## STRUCTURE-ID: 645663a8c5a8757a64233638 ; CHARGE = 0; SPIN = 1
H -0.04332836284733988 -1.0901242544337983 0.6624824675399815
I -4.487951894297393 0.67201950450236 1.6370556883182912
O 0.673830897662595 -0.41946084768814534 0.5992844180858778
C 0.8056792406711226 0.045262665103301056 -0.7722213400913029
H -0.09422224510705175 0.5522000239701719 -1.1153181064682853
H 1.0086216389616829 -0.8206689643940868 -1.3971480282370845
H 1.6555412900700492 0.7222585031326532 -0.8112359843510316
H 0.4818294348863342 0.3385133698075441 1.19710088520356
