12
## STRUCTURE-ID: 645665a15f6e507ac71d80b0 ; CHARGE = 0; SPIN = 1
O -0.795508517882079 -0.4764235788531826 -0.02810363625223373
C -1.3671239615385697 0.20224181681376038 1.0165037564477548
H -1.1966070158078603 1.290191147772505 0.9593881533187222
H -0.9873622317482176 -0.15668529712574922 1.987583436151386
H -2.4545242592307073 0.03509156344969289 1.0114248849515046
H -0.30151627256934005 0.2288911794927076 -1.1622031681247162
O 0.5469651415852026 0.5251342867603108 -1.683743208510104
C 1.3051356390387403 -0.3228016841543258 -0.04754686383801191
H 2.195748407700821 0.08901916086278265 -0.5028827696969514
H 1.2273600106493312 -1.3940975504473951 -0.09716692956268715
H 1.1149138234852416 0.10553771017048423 0.921791040416854
H 0.7125192363174465 -0.12609875474159205 -2.3750446953015207
