15
## STRUCTURE-ID: 64566e22e20e00010c4d3024 ; CHARGE = -1; SPIN = 1
Rh -0.24644246483282667 0.04829202094415395 0.22493941794249206
I -1.147763622429797 2.14653144852092 -1.179356392305724
I -2.6498436212311773 -0.390208888550352 1.336816569269546
O 0.5292903872616423 -2.4272299782189557 1.6798014243137995
C 0.2629592464902834 -1.4569436463573184 1.120553760433781
O -1.6892542460287883 -1.8969497673479598 -1.5675463583118927
C -0.7334212869886546 -1.145935131970552 -1.430041827895059
H 2.061742525255731 1.015540257625498 -2.262514187273207
I 2.302038579691175 0.4543660257514465 -0.7929856507955404
O 0.15030385231206253 -1.0408792261124313 -2.459509268578269
C 0.25135770351627784 1.37778120057511 1.9082489200398451
H 0.7102592733610087 0.8439303147407595 2.7513548778395824
H -0.6341241767214216 1.887236675818132 2.303401106388598
H 0.9523351883574959 2.161784562293258 1.5992673581703059
H -0.11943733801301966 -1.5773158677117227 -3.23242974923825
