8
## STRUCTURE-ID: 64566ebf20b3154b815fdaba ; CHARGE = 0; SPIN = 1
I -1.8509740531655101 -1.485057427679428 -0.4839891658488986
C -0.25040606753992123 -0.014080283879405355 -0.6594681851982542
H -0.7311277229378366 0.8926596058410939 -1.0151837690675236
H 0.415542544705002 -0.4044254797755675 -1.4238251660789614
H -0.22121812661243723 0.5588352040926238 1.4195172664256928
C 0.4644793689630222 0.2054822330963897 0.6522302185732308
H 0.9347110876827035 -0.7108729429081097 1.0024448296546096
H 1.2389929689049433 0.9574590912123819 0.5082739715401299
