12
## STRUCTURE-ID: 645668d9cff4a4593c6f2cae ; CHARGE = 0; SPIN = 1
O -0.1376286630459573 -0.05080324063931176 0.8306966927595666
C -1.7953943223457423 0.2088554464448179 -0.8796871750708651
H -2.5197034898935464 1.019324386508268 -0.821019412990628
H -2.2334219174839345 -0.7162090209145106 -0.5150203295428673
H -1.510434836929533 0.10522529147025052 -1.9254036536061145
H 1.3897156614807258 0.30267399041698656 1.9455344944323598
O 2.15217168758178 0.4889731316207529 2.513455668826992
C -0.5956716999071401 0.5803280587166126 -0.09218553872055087
H -0.11159018032515572 1.5215013506174926 -0.41017547483476835
H 1.3488077727604377 -1.8934663898608597 -1.7769909278712206
H 1.8437097180485138 -1.3547923144527134 -2.0387703227235696
H 2.1694402700595536 -0.21161068992779553 3.169565979341653
