12
## STRUCTURE-ID: 6456673ecc286520f21a562b ; CHARGE = 0; SPIN = 1
O 0.1950554438437461 0.09923522893622222 0.22717379857642875
C -0.9625369932267582 0.5235279084129254 0.9142302798319639
H -0.7610522911781841 1.431601133605092 1.4923588840487247
H -1.2417032571505657 -0.2842182945542586 1.5866427212818874
H -1.7830360689771536 0.7197979360765012 0.21541725723580155
H 0.1889949167383517 -1.746636875730752 -0.31709116201313103
O 0.26361531386247217 -2.6880346928751826 -0.5337989077735238
C 0.6656168727289208 1.0567352303841067 -0.6970250422497718
H -0.08346471815495395 1.254792099456986 -1.4714737200741896
H 1.5603268849787502 0.6393483710975139 -1.1527872530633583
H 0.9137825657201015 1.9962979868532587 -0.1920395673360132
H 1.0444013308152718 -3.0024460316624078 -0.07160728846481165
