13
## STRUCTURE-ID: 64568886a60c3e365f11298d ; CHARGE = 0; SPIN = 1
I 0.4599066875064193 2.656438009733297 -0.9099863501601252
C -1.5846622441002394 0.6310464307440146 0.3412143524428674
H -2.1589754687766307 1.0557359227639946 -0.4818071903177666
H -2.11540346176006 0.7081038000175776 1.291733516424339
H -1.4855387987067694 -0.5235056636602267 0.1549302589161555
H 2.5118107588462486 -1.771265078216358 -2.548708338824633
Rh 0.21271122463565084 -0.7695035010524404 -0.2906642378995461
I 2.624564120520026 -1.5937306839398655 -0.9656923580626318
I -0.701270080988244 -0.9802209355538942 -2.734265906617857
O 0.4532631779224875 1.080523063406228 1.5601414252146286
C -0.19862702711665953 1.1480326363815927 0.45144382614804507
O 1.2088130488104352 -1.0009958018261134 2.5725171618704263
C 0.7734080632073378 -0.64065819879772 1.5591438408660532
