18
## STRUCTURE-ID: 64567208b4efe65c62662c6b ; CHARGE = -1; SPIN = 1
I -4.2491666535057755 -2.0091361227056552 2.7667624948314558
C -2.3555395625485787 -1.693461402155626 1.8320140677812453
H -1.699026235908559 -1.2054020165569237 2.5405572986390883
H -2.5096695455331988 -1.0666012425553089 0.9638160191888602
H -1.9618360140734508 -2.6584386023765747 1.5443143057684712
O -0.5086588714841035 1.4218309578091728 -0.9271406094598732
C 0.20731354663952717 -1.7235193247724887 -1.1964003577875888
H -0.44837025624194315 -0.8666549769145858 -1.0782210511804802
H 0.3547814012452279 -2.2348684005856416 -0.2527267584266992
H -0.14287809842864782 -2.3914450484709997 -1.9721464332270684
H -1.141467147492541 1.9179992114010638 -0.4005763837408609
Rh 1.4855591022065309 1.7416813041290498 -0.3399891800220722
I 2.1185642265768148 -0.9356469080860125 -1.8102414484162466
I 1.0418747489054359 0.4665614713063347 1.9107208168716576
O 4.246773512213603 2.462765589725569 0.5364022716420119
C 3.1920470981885942 2.154599845675768 0.1757156406215688
O 1.027550501580365 3.672736088251121 -2.5658783806540146
C 1.342148247660783 2.9469995768817 -1.7269823124294814
