18
## STRUCTURE-ID: 6456709f1c06ec7fe47cab86 ; CHARGE = -1; SPIN = 1
I -3.9974237754297115 -0.2833734683694972 -1.8911476236268288
C -1.5271176194383056 -0.4126383792154666 -0.9098845292891601
H -1.2262109624314994 -0.6233717907071379 -1.921807832641571
H -1.915777136186397 -1.2091629859448738 -0.29961435318403
H -1.6930107582850686 0.6116003664278228 -0.6124893666650312
O 2.861768243914051 -0.9962239421422535 -1.5652301367350838
C -0.4057657904587907 2.1841744657863336 2.9615052281999605
H -1.3908511536799844 2.47098687311702 2.6123468537307755
H 0.3687650399057846 2.7119602169482886 2.4148366758900472
H -0.30661526061218175 2.318703105122097 4.031886716494221
H 3.332416296611073 -1.1510646249686418 -2.408336706645922
Rh 0.6647995685883813 -0.41550476274586884 -0.03295991065099698
I 1.2792261832416352 2.0697959040453173 -0.4894694798670369
I -0.16181640881795345 0.05345750818765968 2.5546869117077446
O 1.046968210266908 -0.8898778044697372 -2.8611081199079926
C 1.536729959140217 -0.807179157266002 -1.7495296968073542
O 0.8395036795604224 -3.389401700366327 0.06836058858621907
C 0.6944116841114005 -2.242879823438698 0.09795478141201802
