12
## STRUCTURE-ID: 645669ad93216b53c428a816 ; CHARGE = 0; SPIN = 1
O -0.6952855799411476 0.549477481596191 -1.3041732113075943
C -1.33877913841429 -0.18856229468426472 0.5056848710523126
H -1.2286998127012938 0.33788817961365086 1.4412620713861812
H -1.1470991205937557 -1.2484682510964273 0.5255565515948525
H -2.2570802538216714 0.0894996492728051 0.012946565515025385
H -1.0556397212122626 -0.11169455461455338 -1.9077827494461708
O 1.6403019723037 -0.13003469293268494 -0.8932479681918074
C 1.519510917224713 0.04698635984246775 0.42275840278305626
H 0.3896469234449185 0.011985859129357025 0.6468519874182019
H 1.8408775602415695 1.0437589839611807 0.781691138236768
H 2.0031231789007355 -0.737691798640239 1.0298350143112565
H 0.3291230745687835 0.33685507855251035 -1.2613826733520899
