18
## STRUCTURE-ID: 645673ace135d3478a76345e ; CHARGE = -1; SPIN = 1
I -1.907064478421863 1.3497226090199042 -0.6173927119133977
C -2.207110384921266 -2.978565946039109 -0.31134468821013805
H -2.5796111760185014 -3.385769125641977 0.6181081280620829
H -2.5677197873902595 -3.573991185439617 -1.1391633516531148
H -2.554956021002775 -1.9590662395981433 -0.42538770009551363
O 0.5167478681582783 2.6143615331590406 1.1503315494131505
C -0.000866954142521177 -1.0894536412217883 1.8662394726546527
H -1.072012535229982 -1.072823420488501 1.7786417868982458
H 0.501804947848275 -1.1397563840141383 2.813958324780973
H -1.1237818102186345 -2.985391303937094 -0.30132100189283023
H 0.9256522795274041 2.7611676345547664 2.0096997436349953
Rh 1.6305105665655455 1.8763625546988454 -0.3568845547195577
I 1.0938409875330044 -0.703547090179435 0.21191118681395038
I 3.852430315661907 2.014238751164112 1.099800517209338
O 3.1021584497727006 1.4417311119452088 -2.917132559142887
C 2.547083684937595 1.5193637926840797 -1.9063406014695503
O -0.15065930994452986 3.065988820002878 -2.212946902761596
C -0.0064466427143680125 2.245427529330973 -1.3607766376088268
