18
## STRUCTURE-ID: 64566f147cb1433413242a2a ; CHARGE = -1; SPIN = 1
I -1.5820988869519998 2.1840247861915856 -1.3097731194738664
C -1.9516192770863259 -0.7346576768695862 0.7185089071212648
H -2.1105490035279733 0.07721838898719716 1.4204082680279448
H -2.221539397336748 -1.6847923510931064 1.1639909851862122
H -2.473156981402235 -0.5665340322149266 -0.21690276546623288
O -0.017263840620359763 -1.763618041679701 2.472709349696863
C 0.7887296442668275 0.7322827055193933 1.7695241074949761
H 0.5845131469351583 0.3886720564054486 2.7718151381366085
H 0.2365135684750459 1.6341913074093624 1.5238645847647132
H 1.851327458978944 0.8864176528253462 1.6167236495950077
H -0.09492424726671252 -2.712699880500088 2.3950001017283635
Rh 0.49321773293196003 0.5590330936723011 -1.8205064002011373
I -0.8326106991046898 -1.9658905618766813 -2.4109484528362346
I 0.14845462180506047 -0.7684600882188951 0.410482794045875
O 3.377805173133665 0.0021969127595808913 -1.18380119602885
C 2.2840897637789834 0.20080620241174385 -1.5012823338373729
O 0.8008904404033025 2.070748384355855 -4.395665869427353
C 0.7182207825880804 1.4610611419150945 -3.424147748526814
