12
## STRUCTURE-ID: 645664bd7d8e965495351d7b ; CHARGE = 0; SPIN = 1
O 0.01674128414047338 0.22456405483143532 0.22526926777519982
C -1.1644610202168593 -0.4959614741054232 0.5028523967811886
H -1.6201280381365943 -0.8714238349380787 -0.42035542342556115
H -1.8915116102909206 0.13227909075020783 1.028494745546405
H -0.8788863177149987 -1.3317529698761559 1.1374404128520001
H 1.6836914537380447 -0.77902234723068 0.4820935444885803
O 2.41623020577824 -1.4099266719675694 0.4510121310945149
C -0.20760419421910753 1.3565120496754146 -0.5863473044077049
H -0.6131627332476014 1.064323786954531 -1.5615807845157803
H -0.9043040583856454 2.051185681901026 -0.10491796105993502
H 0.7561824532171287 1.842261121418054 -0.7198440538692147
H 2.4072125753378377 -1.783038487412765 -0.43411697125966664
