16
## STRUCTURE-ID: 64568d410d15d57751493a6a ; CHARGE = 0; SPIN = 1
H -2.558909582089653 1.614672034049459 -1.4432342293572815
I -1.196850628192147 1.0921463364961586 -0.6680707357748062
O 0.20451422130792876 -2.051331861525688 -0.21497425427376982
C -2.609008801717565 0.4119745372755516 0.8321982632713056
H -3.2000566097305363 -0.38180843831610445 0.3857977250149719
H -3.206898061006717 1.2720062903373293 1.1198794379325048
H -2.030381837959613 0.05128453412544802 1.6763458290959001
H 0.0921278720529439 -2.8459795323626613 0.3433920499529946
H 2.1649256134746815 3.461526227546814 0.6587048941384668
Rh 1.2641241520134845 0.20666966035852732 0.1534228917902969
I 2.6297199965488076 2.4477927273538778 -0.4846161903376127
I 0.6906799202982071 0.6555354350095066 2.694410083152921
O 2.35366759159947 -2.742124355581856 -0.3542047121910347
C 1.4791481130963233 -1.9434017555232768 -0.674666858435631
O 2.2005527718438214 -0.5475074264803619 -2.561454583372903
C 1.7226452684604985 -0.7014544127626274 -1.4629296106064174
