23
## STRUCTURE-ID: 6456b7887367fb07934975a4 ; CHARGE = -1; SPIN = 1
C -1.7918900441415322 0.3102528677834687 1.8475611441587703
O -1.261981431305362 1.4294298442317048 2.2063776722684176
H -2.845665600947225 0.2950594642433365 1.4939412394640488
I -0.1939046400606316 -1.1408781163144106 -1.4436712965346807
O -2.122468149764003 -1.998785259551846 1.9884473102107756
C -1.2448991858383354 -0.7436637244553345 -3.33229674493524
H -2.1460856801725945 -1.344930966301544 -3.3390982216183405
H -0.5816126517941663 -1.0116921613165362 -4.145488617976139
H -1.4934795934300855 0.31210301033510757 -3.3513737599271485
H -1.8623450251899445 -2.8395287524584654 2.4091119035092587
O 1.5920564241417572 0.698657040153324 2.3275575998629114
C 2.9942121071949455 1.073244526305166 -1.5665111697227527
H 2.698111618126193 0.9010950003636227 -2.595289726061578
H 2.9713725619479647 0.14989428829971316 -0.9967534830063539
H 3.9636596235615937 1.5535105438115868 -1.5068393603841135
H 2.2629587483331832 0.1891651759605756 2.82148988966538
Rh -0.423911488739334 0.8613541988073731 0.4067811952083275
I -2.38305070695577 2.1958686812282058 -0.9734576354292152
I 1.5327931117656903 2.429845454358689 -0.6714179266275601
O 1.3771192727894994 -1.1912711639889064 1.1589131567155164
C 0.9900722621189666 -0.0489766897719855 1.3913460964548285
O -0.6098908173623601 -1.1170132961495678 3.3861595672870037
C -1.421170714278435 -0.9627399655733084 2.4845111674178635
