18
## STRUCTURE-ID: 64568aae708c8318eb5eb01d ; CHARGE = -1; SPIN = 1
I -1.6066210143514223 -3.1923247842763636 -0.3318453867511741
C -0.2648561359715095 0.7309283091795802 2.023019372419823
H 0.6181833914190791 0.15775125154364894 2.3050604036174236
H -1.134218948746467 0.11486156269494921 2.287130759765718
H -0.28772981380050394 1.6346417495559566 2.6341098295466967
O 1.3338112083142217 -0.03569437205211469 -2.426867319398675
C 1.4414306791245344 -1.8681389086542781 -0.301923033053814
H 1.6293873364247218 -2.9127608665392217 -0.5289812447154683
H 1.1277125401349406 -1.7444518213749582 0.7292379929554454
H 2.2988014044021123 -1.2484849102753182 -0.5323703020662397
H 0.9707749823520745 0.7803656823540809 -2.7696744559324866
Rh -0.9494580170263374 1.072464185644458 -0.11475376251566011
I -0.9894771035177438 2.81495961018734 -2.2052608755004552
I -0.10805361978008919 -1.149217386781037 -1.5979322505463434
O -3.9484829705180604 0.8143749604368552 -0.11555406952821536
C -2.7923692773969204 0.8457648155302736 -0.11118661080241637
O 1.880082755906653 1.7453120823653894 0.6555213268239795
C 0.7810826030307159 1.4396488404607535 0.4022696256818684
