12
## STRUCTURE-ID: 64566831fd2240666f46227b ; CHARGE = 0; SPIN = 1
O -1.350083109332981 -0.8776875945625268 0.6693307520508138
C -1.6715561137326396 0.2060441593114568 1.5086810972444453
H -0.7883024954315776 0.5773672458953941 2.03896455959365
H -2.3941241963784807 -0.15897171886161154 2.2379131242691668
H -2.118802674804602 1.0304569744188121 0.9443508353694067
H -0.7192505701571023 -0.5589985531025 -0.0020526907952698294
O 0.4557976488085631 0.23005102749998724 -1.2333004372023988
C 1.8222885514447205 -0.08411550642028869 -1.0500142558385106
H 2.461778689116208 0.5664380026107914 -1.6518253744668316
H 2.0268221929143286 -1.1287880813183517 -1.2995430641658061
H 2.043644077331434 0.07784366221788451 0.0031637234381487315
H 0.23178800022227267 0.12036038231095608 -2.165668269496865
