17
## STRUCTURE-ID: 64568e814eaa8a32822fdd7d ; CHARGE = 0; SPIN = 1
C -1.873995653838715 0.8319926125477528 -0.3775992770990428
H -1.6696473840778243 1.278469447659465 0.591392074396826
H -2.399021938165768 -0.12106593346459224 -0.2682417274084377
H -2.468672125379071 1.5213511205832053 -0.9853228873076412
O 1.479706633537286 -3.0211373249143514 1.2689377427110873
C 0.32389441481416764 -0.6081387272416778 1.8668105986130779
H 1.0172310084570815 -1.0743706232102863 2.5576869016463055
H -0.7042519319123897 -0.8173126601880086 2.137853717348651
H 0.5036104097266787 0.4548052158535612 1.7596199271885729
H 1.6619032121465243 -3.839091980728673 0.8001580142348823
Rh -0.20966105348310207 0.38891750689875715 -1.5457911297199654
I -1.1867775754525027 -0.7961305009344112 -3.58539029451381
I 0.7106868436149129 -1.5446812749495107 -0.0120201673686808
O 0.36235332298886397 2.8693270816559813 0.12269083322988637
C 0.5791372614561748 1.9453411441491901 -0.6211623444428186
O 2.3970261110351294 1.0298716355205677 -2.146803611898056
C 1.4764784445325434 1.5018532607631558 -1.5628183696108715
