13
## STRUCTURE-ID: 64568a071504434f001fea6d ; CHARGE = -1; SPIN = 1
I -2.4326835270087694 2.141936719319181 0.9867463139914928
O -1.8984899454890125 -1.4234717697790211 -0.10796726394966605
C 2.436673930824818 -0.6341534300656846 1.8251077522570973
H 2.8224283054285637 -1.5515088359136333 1.426268629934526
H 3.0795530618261724 0.16371755473425462 2.142236726715431
H -2.596272950475582 -2.0417135198049903 -0.40918692516830246
Rh -0.4800876276373233 1.0478777265829973 -0.40223678432418886
I 1.151803311777982 3.2014729367241426 -0.28688826606834084
I 0.44014892720302423 -0.30466239619821117 1.7511197497999746
O -2.473398109371219 -0.20419966739635642 -1.8887171405918695
C -1.7895946793658222 -0.3435413909511838 -0.8852300765011275
O 1.1518410352815485 -0.2851966233924112 -2.5064313130668063
C 0.5880782670056206 0.23344269614091104 -1.6448214030282222
