12
## STRUCTURE-ID: 64566793231c572cc65a8526 ; CHARGE = 0; SPIN = 1
O -1.478730637145202 0.2668802025204328 -1.0275749350514047
C -1.440844260180803 -0.06342255231236017 0.29350381637469214
H -0.28550908898996075 -0.0792609052576953 0.5484162394124347
H -1.7815220405543477 -1.0833482142476094 0.5101759038737143
H -1.9427692343051715 0.678913498226344 0.9160495256328549
H -0.5640298531445924 -0.14655615045837844 -1.362589749639582
O 0.8013641956479175 -0.6083753069191035 -1.2459559344429547
C 1.1729642124776907 0.1811648453936135 0.6693362276897078
H 1.435640436937533 1.1111203678927328 0.19450768285490164
H 1.9104058542700413 -0.5981093678712359 0.5792692050386626
H 0.8851911141414949 0.32501084947361825 1.7095551140855036
H 1.287839300845406 0.01598273355965601 -1.78469309582854
