18
## STRUCTURE-ID: 64568926ad226857502cdf8b ; CHARGE = -1; SPIN = 3
I 0.8842524201636676 4.246298262309684 2.191286367108889
C -2.192412192740507 -0.6024597325510244 -0.8180715098152231
H -3.0606468375872575 -0.45988751323941957 -1.4525161161085176
H -2.2036310718348964 0.14776425449315422 -0.027925674485138916
H -2.1957267618116254 -1.5839923931279087 -0.35435487114256026
O 0.12024155104910794 -0.9590992189131886 -1.021183122548785
C 1.1379429054700327 -1.8449444923388192 1.8430794757518638
H 1.0088231038130389 -2.4940108028190404 2.7004453137056856
H 2.1832552782914583 -1.6204610517875448 1.664179238396906
H 0.6696588442896787 -2.244307901682516 0.951984617433395
H 0.9362750257463621 -0.8651574686284328 -1.5452852703279156
Rh 1.1119051335983703 2.0410743778441964 0.6930722258003473
I 3.331086885533133 0.9057662332049032 -0.23616441884170997
I 0.13471297432616977 0.03446882915051491 2.304597998501915
O -0.8671013164012609 0.13646088636483558 -2.6928938966093527
C -0.9399922915499144 -0.4217483308340929 -1.6203393053998054
O -0.07218570320145223 3.157950048022165 -1.7423379533164982
C 0.013542052845884625 2.4262860145325726 -0.8375730981035093
