18
## STRUCTURE-ID: 64568b9fa654bd7a1215986a ; CHARGE = -1; SPIN = 1
I -0.7905164479247964 -1.3872775163094382 -3.117068143661803
C -3.181296663069751 -1.1396243799265426 1.3007139723505323
H -3.980829525233451 -1.0509220717346945 0.5665437008002111
H -3.276056744002717 -0.33408277432852806 2.0274807721777344
H -3.2581186139485974 -2.0972380954005234 1.806230345490561
O -1.636777016339964 0.1001265038025594 -0.06344638212822358
C 3.51038135928005 0.7706885254431183 0.778702076316738
H 3.785837237874779 0.9350390735892988 1.8124419755281838
H 3.101529718669564 1.6736610000324041 0.33864933723791574
H 4.349755128522961 0.40890227799192513 0.1980845043723808
H -2.3678457575329825 0.7426534514562129 0.012174559937526355
Rh 0.27727115245937634 0.40784480053619493 -1.4021986128902932
I 1.966232638619951 -0.742669280226205 0.7334007500732701
I 0.15878953403095267 2.9501511959087585 -0.5290199409956206
O 2.5466223034403703 0.9594396648945869 -3.208403259210057
C 1.6436900011152786 0.7458186467067279 -2.5035504782925035
O -0.9930830363539025 -1.8914398209016825 0.6314566836969776
C -1.8555852696072195 -1.0510712015341452 0.6178081391964381
