19
## STRUCTURE-ID: 64567aa9e66fdf2c01333bf1 ; CHARGE = 0; SPIN = 1
H -3.5833993129246613 0.9502715594124401 -1.5236354815972244
I -3.7750581905607374 2.488247226008236 -1.7422377758949905
C -0.2683018855552384 2.517011963746311 -0.12463559609169864
H 0.09325287064743819 3.5819877546822823 -0.1304734603397695
H -1.2495002482279052 2.9043677288023972 0.262133314717227
H 0.3106573891757523 2.4827281954205054 -1.0939380391984412
O 1.3631976361197249 -2.529191984504525 -1.9457671601623425
C 0.4468078248725543 1.734579822764844 0.9917975076878068
H 0.9880392635771277 2.373485750022031 1.6833742535690837
H -0.2417254471714703 1.0910763824353051 1.5327725471850868
H -0.9198486912608674 1.786093796917484 -0.7018310369650651
H 0.7529927000375705 -2.140653137798661 -2.5818159925510185
Rh 0.7220500790119629 -2.4882107696080302 0.007486496779650327
I -1.412470342039565 -1.1669883779875068 -0.6326447288387644
I 2.035971253637803 0.3151604440172858 0.20725885177324513
O 2.775403359655386 -4.503994446420451 0.8360524687487196
C 2.0338703090648313 -3.7031259535336405 0.4491296276989153
O -0.20849118437208067 -2.99546854612504 2.7878472608040235
C 0.1365526163123519 -2.6973774082512763 1.7191269426755547
