12
## STRUCTURE-ID: 64566b62f26a232424610ac1 ; CHARGE = 0; SPIN = 1
O -1.2207623811337787 0.16718143143046685 -0.33844698244733146
C -2.272135879696089 0.184058902444405 0.23974071753894052
H -3.0031826304593707 0.9918592863154345 0.10022218929378643
H 0.8878486794396311 -0.846138376379612 0.6847076372913444
H -2.563029110398812 -0.608607873601794 0.9421173892051993
H -0.5022469834830054 1.3631847219216142 -1.766513501996063
O -0.15626826559885493 1.9544613570544416 -2.448470682306928
C 1.8005510246183114 -1.1335755380720938 1.1899778868165811
H 1.5925392759848789 -1.32347808456741 2.234846146712334
H 2.525291019326849 -0.3342348431902724 1.1072444690203198
H 2.199184731284122 -2.029675277724486 0.7328242402451823
H 0.7122105201161385 1.614964294369322 -2.6782495093733734
