18
## STRUCTURE-ID: 645670afd1500419cd4efcb3 ; CHARGE = -1; SPIN = 1
I -2.8421239621429915 2.319302755081493 -0.6455190941225541
C -1.1926262077217287 -0.28254895120031814 -1.644623741544228
H -0.6214956576660728 0.6331358186972397 -1.655865870084522
H -1.805785756515447 -0.40106900981002536 -2.52556053878844
H -1.7481496978713988 -0.42840539024190843 -0.7312741052933542
O 2.484668282072546 1.4702899730758643 1.6966824973182
C 0.6749785449124415 -2.089774091841504 -1.456966840016337
H -0.3620797318836482 -1.1544487512643213 -1.6361780409007067
H 0.134605848301576 -3.0172869405160982 -1.3175036328960874
H 1.2394774771788564 -1.9954948391303884 -2.375809198519216
H 2.9394053557017665 1.3507102483544615 2.5368552274769316
Rh 0.5797207888597351 0.7158321204102024 1.6759776860131996
I 0.9252208807933702 -0.38315156125061856 4.0518016122309835
I 1.801024160897631 -1.5569111142664507 0.23198493013958355
O 0.7265133472982217 2.866173910467544 -0.3676377786554674
C 0.4809787358975162 1.9882375566909662 0.32441443788884383
O -2.240839595473513 -0.19466449074947087 2.039900188834498
C -1.1734928126398063 0.16007275749376287 1.7993222609154875
