14
## STRUCTURE-ID: 64567b0592ab547975092923 ; CHARGE = 0; SPIN = 1
H -3.8372304102336603 -0.15447540477331426 -1.5064267102678979
I -3.8727568683243545 -0.009282719464499848 0.07226439957905481
C -1.400447284990293 -0.05424396743033859 0.13459379675522765
H -1.30093091049664 -0.11936408350699487 1.208545836411914
H -1.3109928236665087 -0.9618380579815129 -0.4454714482833559
H -1.2664051028233794 0.9107544183266727 -0.3378337045617752
O 1.1034788176290948 2.089153179520209 -0.24560412952086105
Rh 1.29266214745763 0.016677495358026366 -0.08449511914691228
I 0.8547782596906622 -0.22754950556425402 -2.6575190152703674
I 3.000628921975449 2.2790394375695113 -0.6702369035134668
O 1.7881229222025594 0.6321262060111076 2.7997442618675197
C 1.5477163945705388 0.3204075545219629 1.728785686897993
O 1.8121323190394139 -2.921251728808813 0.006417592345951729
C 1.5892436179694946 -1.8001528237777684 -0.0027645432930176535
