12
## STRUCTURE-ID: 6456655ff2a1270d5b4ed2bb ; CHARGE = 0; SPIN = 1
O -0.07076372836558081 -0.30042014154724417 0.032671110043132126
C -1.249892730284006 0.180440691424021 0.6415118135014024
H -1.0908910773302372 1.1752778197644231 1.0718671343720296
H -1.5858861890013767 -0.5003518525300692 1.4309547069065858
H -2.005012752013356 0.23674636094356175 -0.13902396926615063
H 0.33113257756860504 0.420839173360289 -1.7030764424714946
O 0.49614290224318985 0.6988016308387968 -2.6166069127979177
C 1.0011093059759892 -0.4312315122900754 0.9414671661832691
H 1.2556564244336892 0.5357504873461989 1.389059993718552
H 1.8496057386413118 -0.805309013442565 0.3733886558827361
H 0.7507443439884126 -1.1388015808117662 1.7391140903234588
H 0.31805518414336514 -0.07174206305556852 -3.161327346395608
