12
## STRUCTURE-ID: 645666f82be70e0fc34f734e ; CHARGE = 0; SPIN = 1
O -0.8590485525143513 -1.0072210974909215 -0.0558673204044427
C -1.659064343401078 -1.1295242433404822 0.832744791529779
H -2.4369848628888735 -0.3770088103196941 1.0276882430634393
H -0.6361852394906193 -0.13627222273484893 2.630979762092241
H -1.6782725298055816 -2.0167463878783187 1.4815915257354113
H -0.2725843825302643 0.3808137236197791 -1.3601296922038006
O 0.25871205808809494 1.0385701786576178 -1.8356669159815466
C 1.6139493192712815 0.794887859903523 -1.5368008243768418
H 1.8138941373163866 0.9143793345339868 -0.4669120267803038
H 2.1975587054216708 1.5278545038958176 -2.092092835033996
H 1.9162300414314133 -0.21097474830111654 -1.8441166787778356
H -0.25820435089822047 0.22124190945478667 3.218581971137875
