8
## STRUCTURE-ID: 6456643cf1741a31cd6aac62 ; CHARGE = 0; SPIN = 1
H -3.471191524402845 1.0478400372683325 -2.4140844702362205
I -2.1597289217708915 0.6166503580391912 -1.6544924288894087
O 0.5387348289038421 -0.26891329682775406 -0.32736767745212
C 0.9101483741008783 -0.1817755099765952 1.0301613189692744
H 0.9663829944748484 -1.1712165571665079 1.4942514017949613
H 0.13737793968926434 0.3994781048565757 1.5298349119546772
H 1.8700240645378419 0.3297282179320337 1.1480123575639625
H 1.2082522444670634 -0.7717913541252712 -0.8063154137051318
