12
## STRUCTURE-ID: 64566b4709ca3b7e9f4d91e3 ; CHARGE = 0; SPIN = 1
O -1.4667980412989736 -0.4733811434742328 -1.2837625414021503
C -1.2083040618324687 0.16871111376186074 0.9600527873954188
H -1.7744427356563153 -0.5533304070661358 0.002007975388615406
H -2.0214110723178482 0.7411858295424238 1.3798846139921115
H -0.7578118496217306 -0.5585176244817881 1.617582059900187
H -1.6681991012807624 -0.8391524306541973 -2.1610839652921428
O 2.8831846236722214 -0.23977896737310803 -0.10330416358916931
C -0.4197739915536008 0.7509921575963489 -0.027899406885225023
H 3.3977041360970937 0.08214785944092447 0.6416641349507347
H -0.7036943685239225 1.678524015241588 -0.49413506741554136
H 0.5664013258881568 0.38147550387698703 -0.2538248346825901
H 3.1731451364281686 -1.1388759064106673 -0.2771815923602601
