8
## STRUCTURE-ID: 6456635805e79708990876f5 ; CHARGE = 0; SPIN = 1
H -1.815949655815582 0.2422132449627623 -0.20236692346276836
I -3.33583560633491 0.5518904768193515 0.10758554822670292
O -0.0382697225550524 -0.11328698700072909 -0.5902704342904184
C 1.0218124663045824 -0.1015876623829218 0.34558621827419056
H 1.75691641188288 0.6679160614953752 0.09811424600651573
H 1.5138036939602404 -1.0762375118624976 0.3955934592832395
H 0.5837382561404929 0.12418077097614254 1.3160603517298384
H 0.3137841564173426 -0.29508839300748063 -1.470302465767303
