12
## STRUCTURE-ID: 6456696eadf46419aa1fea7e ; CHARGE = 0; SPIN = 1
O -1.9902352397352898 0.6064713322980665 0.7790307154967948
C -1.7589848575821019 0.3040319019566576 2.1377613208986923
H -2.6964854613647904 0.14571893706923955 2.678753770942303
H -1.244755441637497 1.162622662444696 2.5661957272711455
H -1.1244325827629569 -0.5810483494190786 2.24664439914775
H -2.4855471813070893 -0.1190014860115902 0.3798327408210891
O 1.9392066640307042 -1.3199064623191141 -1.6126087661974053
C 2.0512184278579055 0.06904206224906444 -1.836081428592504
H 1.5001308882671518 0.641734035065335 -1.0841625915983764
H 1.6925103445038059 0.34370027093941063 -2.832845027247847
H 3.109725881030398 0.3123880480241001 -1.7624886003698252
H 1.0076485587002744 -1.5657529522964029 -1.6600322605721753
