18
## STRUCTURE-ID: 64568cf466b9cd6c502fdd80 ; CHARGE = -1; SPIN = 1
I -2.1180002276596794 -0.8760019548440388 -0.070901203450627
C -1.0915708610607155 2.86135002971732 -0.08900054887874359
H -1.8685093276568656 2.035975403689143 0.0314172863187915
H -0.9172193059392477 3.9530745205608095 0.10814127990553712
H -1.7188255446123781 3.144670105235743 -0.9755610831863044
O 3.192638488021004 -2.411554277411339 0.07001111234473582
C 0.21510210949088224 2.2282543426928663 -0.6047028396987584
H -1.1266720193313586 2.804445576237223 1.0384907436217459
H 0.06049167780704993 1.600819556202432 -1.481320191186
H 0.9998714044476358 2.954321771267159 -0.8011558686831487
H 3.435010144163549 -3.2252758015855156 0.5174946817125738
Rh 0.9831020243401097 -1.9311720483340566 0.1060817807222884
I 1.0712170596004018 -1.1679728968203436 -2.4612309499750387
I 1.171849868099936 0.817738235567337 0.9167735933132182
O -0.2904441940652383 -3.439988822289145 2.441264670771161
C 0.16651802571851523 -2.860042442648561 1.4823622231786722
O -1.393149609212098 -3.731241684181532 -0.3036271129318184
C -0.7714097121515078 -2.7573996130554934 0.07546242610170659
