12
## STRUCTURE-ID: 64568e103a545d6fbf6dc15d ; CHARGE = 1; SPIN = 1
C -1.3417990742472272 0.18277537286644205 0.5808213288957689
H -1.5264557454832537 1.0698835733479046 1.1873155468630419
H -1.7269482230809106 -0.7096679441081216 1.0773409577100495
H -1.85464897076087 0.2904063704453704 -0.3929043852890189
H 0.6773127142346334 -2.9129922929285357 -2.2100719456875653
Rh 0.6056424663392564 0.01775964650395167 -0.3515137414550092
I 0.3397790576872768 -2.673741847315477 -0.6805323437658309
I 1.616202737321874 0.3699986289770074 -2.7055803440534234
O 1.2025271649977405 2.961210944110085 -0.3054043954362181
C 0.9613517827159587 1.8613764820279368 -0.30723520881999444
O 0.5735902331020007 -0.29084353322093764 2.61360693160367
C 0.473445857173519 -0.16616540070563182 1.494157599434545
