13
## STRUCTURE-ID: 64568d3cc0df21601b662c5a ; CHARGE = -1; SPIN = 1
I -1.9867643361106992 3.5570909315884087 2.1653096311756586
C -0.9101839178983702 -0.8304507118233287 -1.012920608533459
H -0.7729091430992391 -1.838412850679023 -1.3962892115908843
H -1.8266579043760982 -0.38501061959499805 -1.3969191077823084
H -0.9969233942293452 -0.9052987696047249 0.11708501135396292
O 0.0728463787644666 1.243116659696615 -1.7547570660375034
Rh 0.4580379177976467 0.09158357884307375 0.8685700035170265
I 1.8240060177015927 1.2675465095179779 2.7242496151054696
I -0.807626708132041 2.1971142676720814 0.03748997003890347
O 1.3994737313829506 -0.5271449711396885 -1.615520807243
C 0.2996495216777899 0.020211519024833563 -1.419708610202874
O 1.9117090979806177 -2.4327967264108867 1.4326764222777455
C 1.3353427385407306 -1.457548817090343 1.250734757921273
