8
## STRUCTURE-ID: 645663688a4f4c457f1aaa18 ; CHARGE = 0; SPIN = 1
H -1.6724607410969952 -0.09288386438559407 0.5435984468710229
I -2.8666750122747646 -0.435376429635984 1.5337924160244285
O -0.28931315074996555 0.16853834273421794 -0.6195923566510241
C 1.031342258989498 0.16044346402513404 -0.10974090168842865
H 1.724458249118319 0.6258610700722762 -0.8135258159143383
H 1.3634474069560667 -0.857087082411568 0.1128762584821524
H 1.0173992373341556 0.7414591137894772 0.810503782615192
H -0.30819824827631553 -0.31095461418794296 -1.4579118297390177
