12
## STRUCTURE-ID: 645668c65e2a7f6d384d303b ; CHARGE = 0; SPIN = 1
O -0.2517345130292796 0.0008113198025916007 -1.9797651507527783
C -1.3499968437710586 0.3347731468236691 1.6004880858532442
H -1.4748963131036832 1.4108579778566552 1.604613535919426
H -1.1055443834736343 -0.04403024897987351 2.585289214938485
H -2.217197843950855 -0.16442353588157219 1.1848035238686847
H -0.18424123347521298 0.6053258863557214 -2.7440454845741034
O 0.5476517345924179 0.571113616315509 -0.9832113311299525
C 0.7000806675050798 -0.13884214246014595 0.06482686806298396
H 1.455842747503497 0.2815696517806054 0.7307166764648658
H 0.5614377313235286 -1.2217774895284654 0.020348139960517188
H -0.46876387179625434 0.09415833751532467 0.9326080380877364
H 3.787362121675501 -1.7295365196000099 -3.016672116699118
