12
## STRUCTURE-ID: 64566ae705991b1fb3111dfe ; CHARGE = 0; SPIN = 1
O -1.679498747664856 0.5967709251971912 -1.0232505769596016
C -0.9216591653448434 0.05421987676542517 0.023106139828418654
H -1.2843062901831734 0.38118609726225794 1.0088108292579847
H 1.44609569577075 0.07205056067575655 3.2489239812571444
H -1.0567374163617853 -1.031865063050946 -0.02549199643194096
H -1.66300709696973 1.561525666800336 -0.9785962401994488
O 1.3803199241728572 -0.031024637838200985 0.7100959823026152
C 0.5491348726114457 0.3488183973826296 -0.07361505898604957
H 0.21975561371706526 -1.4426648167211262 -3.088806653297399
H 0.9124484454904426 -1.693522704697373 -2.8403754581636207
H 0.8295470647167622 0.9592216539979975 -0.9523811441313879
H 1.2679071000450657 0.22528404422605616 3.9915801955232797
