12
## STRUCTURE-ID: 64566923e657db225907102b ; CHARGE = 0; SPIN = 1
O -1.9535147425718233 -0.03469847020382876 -0.0954259210252473
C -2.711944543523318 -0.7650895081656599 0.8436543544565602
H -2.707941818861887 -0.2814688879114437 1.8255562640285123
H -2.242659629951486 -1.7437719647165202 0.9292753402467477
H -3.745817164568804 -0.8959762858751513 0.5102649826784066
H -2.348155347538604 0.8392589235921593 -0.20395300516853052
O 2.6800300792668392 1.2966513989996689 0.07563465438640554
C 2.755305755775069 0.30331078319366456 -0.9236457674849999
H 3.6362928518244195 0.5295114999532506 -1.5218342966835072
H 1.8715434435361846 0.31640625821658885 -1.568274177344284
H 2.8677339889048516 -0.6942233933064679 -0.48802316998594264
H 1.8991271277083994 1.1300896462237777 0.6167707418960818
