13
## STRUCTURE-ID: 64568c3047e2d35be42b66ad ; CHARGE = -1; SPIN = 1
I -1.382926595894069 2.180264877980005 -0.9604079177843654
C -1.323692955106864 -0.6156477574999916 1.103165647993744
H -1.0239956808199746 -1.2224400229908596 1.9606028188413742
H -1.7392112963914623 -1.3060461808101163 0.35252885838613324
H -2.141949078328404 0.037470484840089156 1.4143789364814738
O 1.3680021630988188 -0.9768013463223028 -3.4216739204892423
Rh 0.2689916512970488 0.2783946464878841 -0.06242461515058146
I 2.034734787424554 -1.5509309649956766 0.8047879268461577
I -0.14544692267290185 -1.205768717052863 -2.3509502166820586
O 2.3955602662352513 1.2085829964824348 -2.0125140296630954
C 1.6281536912271772 0.9441766582245755 -1.2134019457252594
O -0.02138619667297672 1.3138072156775877 2.7261258684182303
C 0.08316616660380464 0.9149381099792346 1.6597825885275055
