12
## STRUCTURE-ID: 64566a7f1ff59e3e6230457b ; CHARGE = 0; SPIN = 1
O -1.697685558433545 0.6362912587509678 0.5086962394604285
C -1.133973418385033 0.5984168574229081 1.7991731143151761
H -0.5815915799974644 -0.3312971172316018 1.966945179551307
H -1.9590367994336946 0.6534275334765459 2.508160406414646
H -0.4630219666979376 1.4466760877019416 1.9678882464723189
H -0.9731183968644008 0.5697664686399572 -0.13521539304277694
O 0.7210989418379037 0.3174575558217461 -1.024057309157949
C 1.0989950550105576 -0.9522661253217449 -1.5143974028552953
H 1.3477759570381036 -0.9102903094198226 -2.577974826963847
H 0.24257204228871654 -1.6097999558016924 -1.3781722404316916
H 1.95017184153241 -1.354715439569773 -0.9576474925943588
H 1.4478138821043833 0.9363331855305651 -1.1633985211679547
