12
## STRUCTURE-ID: 64566536e11d6d05454d303b ; CHARGE = 0; SPIN = 1
O -1.9317681258988484 -0.6989370722477604 -0.5829830660202595
C -1.36132582779374 0.2794435388543172 0.10109035266817012
H -0.1591947298183927 0.39911592366440435 -0.29714902589005737
H -1.219287371982164 0.1399010821198998 1.1745581044240756
H -1.7771275861749536 1.2490250964007945 -0.17890273408587587
H -1.7945267674749157 -1.587246032786685 -0.21437148993533517
O 1.6955754066353563 1.2951774278549524 0.1363013736173896
C 1.0143361677965619 0.5880933181650774 -0.7506741009181204
H 0.8047595019823028 1.176626301120897 -1.6456917181064992
H 1.3365336580464466 -0.43668286284782265 -0.9462441697465568
H 2.1285425493787002 0.7702046737546223 0.8297966528515489
H 1.2634831253036523 -3.1747213940526913 2.3742698211415196
