10
## STRUCTURE-ID: 64568d9ea66bcb5bc967f9b4 ; CHARGE = -1; SPIN = 1
H -1.5321782018498005 0.8358816211161406 -0.2521781287310266
I -1.5399490593191527 -2.1401681235597163 -0.568948622905495
O 0.12095412913135506 -0.18552199365312644 1.7056377549421553
Rh -0.19919287912417044 0.1629649036256271 -0.5789751410877165
I 0.9200381489335272 2.5529873833864074 -0.20833403053456734
I 2.182226300603366 -1.0597864647241726 -0.9259171609304316
O 0.6725663809738875 -0.726768659704597 3.8573529487426517
C 0.4020481675904918 -0.4600530579227073 2.785600243801164
O -0.5824567975093575 0.5910995159370497 -3.470312920768853
C -0.4440561894301491 0.42936487549909724 -2.3439249425278854
