21
## STRUCTURE-ID: 6456790b61ee4d3e08333be3 ; CHARGE = -1; SPIN = 1
H -3.2901341866174585 -0.6446780901818407 2.3250333898366553
I -1.880087436687629 0.21567215955121 1.9419020743694515
O -1.2184091160799104 -2.3742917229456424 0.13100089113216548
C -2.587086887890572 0.20576837340856838 -0.10522356231281284
H -2.0094154054298476 -0.3663353518883649 -1.2620997802590495
H -3.0021680065293954 1.1975495412848964 -0.2938777679378464
H -3.409132488693158 -0.5041875375388994 -0.04357000147651746
H -0.953313877730518 -3.149102525463999 0.6663194163812599
O -0.16229206081679295 1.2672855350189896 1.1197317732164775
C 3.124082929048853 0.7589834374506068 0.40452765232112703
H 2.4178211065454733 -0.05300339806103635 0.5308831383477042
H 2.8768371278306466 1.3408617744657585 -0.4753432985583858
H 3.1499268549398725 1.386467121250907 1.2849822397003285
H 0.02489249896038966 2.1349329409642404 1.4763621864315022
Rh -0.5736104302486716 0.13179311922399747 -1.0349331882192603
I 5.058455193845264 -0.07759262971029955 0.1260481327104141
I -0.9942007202081616 2.5137732874844914 -2.2901674545593855
O 1.803925488682111 -0.4416204736186906 -2.7710664067539152
C 0.8916987795474388 -0.21014620733626801 -2.0873505071725376
O 0.9077043696969987 -1.8047702062220286 0.42848837319884214
C -0.17549373216497563 -1.5273591471365706 -0.0716473003963407
