12
## STRUCTURE-ID: 64566a5d8e49d76fab351d70 ; CHARGE = 0; SPIN = 1
O -0.9891393037408789 -0.7574903506200619 -1.3708698907781671
C -1.249054242413742 -0.08656298178506286 0.4870005057136754
H -2.0903184233847294 -0.7592040644233217 0.3869048812225068
H -1.5058529919488441 0.9575558925551899 0.4958096285826839
H -0.57512640684911 -0.39874868410228226 1.2664317838848278
H -1.5931934578385587 -0.2195043561550689 -1.8956097689172982
O 0.5430559629198958 0.6827582211335369 -0.3098340161404739
C 1.64959237803695 0.27479688120909157 0.3879543225213851
H 1.8013951686291283 -0.8165630579125263 0.34266328247826605
H 1.5905282832383942 0.5716681497354514 1.4484071562118894
H 2.5463263478646954 0.7530306711850102 -0.033543359015132446
H -0.12821331451319196 -0.20173632081996565 -1.205314525764156
