12
## STRUCTURE-ID: 64566678b94a6e50e7071026 ; CHARGE = 0; SPIN = 1
O -1.6350087553219843 0.4074649535674476 -0.6803228907098786
C -1.3676961358810462 -0.27518756331485394 0.46759003427784906
H -0.18654601077872093 -0.2609093961667569 0.5368743210706962
H -1.6250068375508753 -1.34072663716887 0.4257153793578401
H -1.7914029605403037 0.2160130117001738 1.3449756519142324
H -0.7695463907074228 0.18608390184109605 -1.2498294596008046
O 0.6122063913501626 -0.16605050675483204 -1.4722005955306734
C 1.2563646686605339 0.0963096882954396 0.5162951897816543
H 1.3681964885008187 1.1480307855569098 0.3145825189225717
H 2.0184185789525912 -0.5314006537662359 0.08674876546930385
H 1.1446511225260105 -0.10469854783195916 1.5804424271421973
H 0.9753698407902397 0.6250709640424524 -1.8708713420949927
