12
## STRUCTURE-ID: 645667009162891c90071028 ; CHARGE = 0; SPIN = 1
O -1.4735874290096636 1.247075979177441 -0.19067305881902968
C -1.9453406497678816 0.012134982280079554 -0.6769132414281345
H -3.027271635280537 0.0983281566707336 -0.7683744203550199
H -1.7112302587522445 -0.805578091467042 0.012260471232764738
H -1.5232650561900187 -0.2190867601312332 -1.6602103963515804
H -0.5081390165899701 1.1824607819247226 -0.09485279061536366
O 1.319348721891409 0.5679559901615551 -0.03424391286876084
C 1.6639164235218136 -0.4771346437549186 0.8517125419662123
H 1.6754158788230045 -1.4440411079349156 0.34015904216915716
H 0.9009590323213195 -0.49477698494742944 1.6280252557128367
H 2.6373027481834663 -0.29931847866145916 1.3162268426287995
H 1.9918912408493092 0.6319801766824591 -0.7231163332718821
