18
## STRUCTURE-ID: 6456893a388f57161c493a70 ; CHARGE = -1; SPIN = 1
I -2.5648436136219672 -1.6428806031158367 0.660239104414124
C -3.4133054137390175 0.3275805209755035 1.0164875249680485
H -3.302410253007396 0.5350930489041938 2.0754244677916627
H -4.452603807679383 0.2894573773685082 0.7133594437696873
H -2.832734316339058 1.0248302458679226 0.41706803313463076
O 0.41246244515520863 2.6996151520976506 -2.3346398408434075
C 2.0457564793873044 0.7798497468049815 -1.2405215265743408
H 2.3050691757815396 1.6080922333564422 -1.8824537108759973
H 2.128798749519522 -0.16676013998024602 -1.7643546503413066
H 2.647719091786401 0.7689730865342392 -0.3375486298051476
H -0.37336288658230554 3.2312507349486896 -2.4584726098935907
Rh 0.16515196561481402 -1.1516104905165236 0.9064761318026989
I -0.19978769139022348 0.18271597244049972 3.1831674864058863
I 0.0210736978363094 1.0406125533561208 -0.6745262150099894
O 1.4938647369979792 -3.2899061017653817 -0.8183880731601684
C 1.012974508113088 -2.46791068890754 -0.10414144604741465
O 3.0333820877020643 -1.9381012213612483 1.4345162475682482
C 1.8727950444651122 -1.8309014270079944 1.2083082626963988
