12
## STRUCTURE-ID: 645665bc1a87274b086b0e10 ; CHARGE = 0; SPIN = 1
O -1.4000306740991237 0.42755207012021584 -0.9826111369400581
C -0.42312021190288623 -1.0710114325031583 -0.04266096254372357
H -1.44238394846976 -0.3420052456150008 -0.12267419338977535
H -0.5070745270239098 -1.861187899188975 -0.7837180753445783
H -0.5207119792988242 -1.4319689239249067 0.9832861795942808
H -1.928898676198473 1.6776523978719073 -1.9160937603455852
O 0.8410000203961706 -0.4207925398515252 -0.1885001909062336
C 1.0971726109430815 0.5688305950686525 0.8387259391833064
H 1.1319490560932683 0.05284799934846786 1.7965528308064518
H 0.31548336931484944 1.3286203002906178 0.8414988046043238
H 2.0647197103925508 1.0195307250009291 0.6279099904222932
H 0.7718952498530608 0.05193195338276827 -1.051715425140695
