13
## STRUCTURE-ID: 64568b53545b8273097c7c43 ; CHARGE = -1; SPIN = 1
I -2.7793335331643703 -4.494041245274108 -0.6530006171913845
O 1.695303707549471 2.1112219430396317 1.4770817792982005
C -2.2278885063140135 -2.481019740344057 -0.3139441289900869
H -2.7847574664525196 -1.8494098161492742 -0.995792605950724
H -2.4402856973855824 -2.2324502565287427 0.7190849051630948
H 1.6350599923776838 3.0201534815871525 1.8357715249241258
Rh 0.4504752315042241 0.3010146442154661 -0.15977739094792517
I -1.9220739872100283 1.1248166954797927 0.5393065427052577
I -0.07077436840151564 -2.1380197520727124 -0.6702091937764364
O 1.3771582566315184 3.09618411911218 -0.5135132767290025
C 1.5033431485398818 2.074395997327066 0.14539889099340572
O 3.3481122592850943 0.7816800037330173 -0.8853596175947297
C 2.2156609630400577 0.6854739258745188 -0.5250468119038044
