21
## STRUCTURE-ID: 6456b8d44a88837af940860b ; CHARGE = 0; SPIN = 1
C -2.6849552319800147 -0.3869786475656137 1.354857374403443
O -3.70921186831529 -0.8164317113288575 1.131876338067082
H 2.942347538171941 -2.03736262351375 1.3099585689064213
I 2.1164570463563646 -0.7512078519258379 1.7735010261801374
C -0.6664104677943603 -2.2845358358905012 0.5613684154380195
H -0.5938100826766542 -2.4295901073627277 1.6399577665583724
H 0.05030036059427821 -2.936562275206144 0.04063240761230655
H -1.6704655603298624 -2.5568768901528176 0.24077121427986004
O -1.226132536717272 2.9078723296782845 -0.4075239856720159
C 3.059466524221316 0.3350935666420168 -1.8768403600692123
H 2.5799956515784683 -0.6140760634234507 -2.1006646515712992
H 3.7925914767671562 0.23823352351419963 -1.0826725305321168
H 3.4994309917925457 0.7622936145343526 -2.7707077595117493
H -1.9118819140951817 3.4590750010060276 -0.8394523668127009
Rh -0.034932838918619334 -0.3867620276098747 0.026678436595357603
I 1.5156795857909533 1.7074632494128024 -1.1907108636051036
I -1.6277189013894813 -0.4917390954186414 -2.05350357277713
O -0.2125435546562619 1.3585382167982962 2.1671144163120832
C -0.635136071841294 1.14366760584194 1.0654723886474786
O -2.879313394373656 1.7974997979470955 0.6233543298250082
C -1.7037567521850705 1.9823862240232002 0.38653340772576195
