12
## STRUCTURE-ID: 6456685b69c69b281432dfe1 ; CHARGE = 0; SPIN = 1
O -1.5552802470028364 0.12251865656509368 -2.6506489558212705
C 0.12207479384780402 -0.9291090151924802 2.495771376817331
H -0.8137085804622901 -0.6977813618089845 2.9874883887731385
H 0.8800658297210668 -1.1330732571499262 3.2407712561196185
H -0.00603683632963943 -1.7987808578803768 1.86446914737146
H -2.3735697444941595 0.1783742442904445 -2.150170663797185
O 1.2505202043354706 1.4146979756602243 0.10307952502957438
C 1.256439656186664 1.1999240394019257 -1.0781028206532763
H -1.7213031647350046 -0.463551188120191 -3.393826741541343
H 2.1658891355991052 1.3271556155041626 -1.6852882419025836
H 0.3641400027103644 0.865516265058607 -1.6242999670090466
H 0.4307689506233541 -0.08589111632847841 1.890757696613607
