12
## STRUCTURE-ID: 64566a5743874f0cb529342b ; CHARGE = 0; SPIN = 1
O -0.47062688348714654 0.9915221507424364 -1.1116803896699428
C -0.5386312577809408 -0.2620047188238547 -0.6012159195710127
H -5.28355016125407 0.2682451167837369 0.963621025918374
H -1.0926671474320335 -0.36049158735033643 0.33539689952081864
H -0.9380960065744803 -0.9499315108673656 -1.3515959829720916
H -0.6129648812389129 1.683611258343935 -0.45152200190279773
O 0.8299163740184547 -0.7853710487204887 -0.31699415288471916
C 1.5542608437640733 -0.07642152881870222 0.7245928949122178
H 1.7529450927464143 0.9572039919160711 0.44311713892310167
H 2.4868940128464523 -0.6141850557496116 0.8848503053332814
H 0.9563229089857921 -0.11456098651060541 1.6335600723964137
H 1.3561971054064028 -0.7376160809452188 -1.1521298900036412
