21
## STRUCTURE-ID: 645676d7ec4fae00420b39e7 ; CHARGE = -1; SPIN = 1
H -6.379663373746282 0.12317306533661015 2.0700457970173454
I -5.307682900680908 1.162840799553794 1.574997201438111
O -4.3330465769916175 -0.7967985461802297 2.927315429664921
C -1.4829164314731986 1.4087016111544228 -0.11049298490277105
H -0.9708166962572412 1.6763469792515013 0.8116366098114128
H -1.9822000564133777 2.2942747143804314 -0.49457338588442235
H -2.237432578821182 0.6610993464007229 0.12406870700453156
H -3.4509822920817075 -0.572858074499378 3.2193576282830905
O 2.719589353731848 -2.612698105026619 0.33974347740313865
C -0.4970604077154009 0.8700709781974498 -1.1352366449911855
H -0.9942154220847917 0.6306810826522915 -2.0725685725076177
H 0.27881889822551814 1.6170169851851663 -1.3436792590796303
H -0.03197101531407561 -0.060002189872563345 -0.7563679030825938
H 3.1889499129416192 -3.395950237834832 0.7012105835658311
Rh 2.5442854256504575 -0.026942455529882413 -0.6003875735377179
I 2.2610471930313776 0.8183896780212104 1.8002744679084757
I 3.852812402786692 1.9587950694258436 -1.7818746865310628
O 2.215970557185423 -1.5363295949640448 -3.1536947530247113
C 2.3447269213999453 -0.9440948549420716 -2.178018405694013
O 4.7325808068032575 -1.652067669706998 0.06063675216076218
C 3.529206279823481 -1.6236485810025987 -0.002392485021879878
