13
## STRUCTURE-ID: 645673b8ecee6679a34efcb0 ; CHARGE = -1; SPIN = 1
I -3.7745273755073856 1.669147763792917 -0.17048478128622896
C -1.4705961616562917 0.37321973389610336 -0.3780722778117842
H -1.0207698697701553 1.1465108792035223 0.23728375214539266
H -1.6142140909492242 0.5865858152719915 -1.420912432238595
H -2.019128586956573 -0.40353050567431953 0.12259788107261116
O 1.4891324202708476 -1.7671082561435263 3.567028269859626
Rh 1.1586930288365351 -0.10926301474786845 0.19220762016359078
I 3.257303880995606 0.7001251838932119 1.5055691949473875
I 0.19720486314098012 -1.3784610642757213 2.272593936595879
O -0.47852991260178973 -1.7805832199863656 -1.6136368691518983
C -0.14150841825660376 -0.9469893710662102 -0.8845233771743929
O 2.4850377386487192 1.1978234973617943 -2.151366098568834
C 1.9319024838048622 0.7125225584742613 -1.2782848185529456
