16
## STRUCTURE-ID: 64568d74bcdf1a0d7d73b9da ; CHARGE = -1; SPIN = 1
H -2.5502621133804313 -2.530168299354216 2.109333372834012
O -0.9258717826980153 1.6318810583208736 2.0713988404221424
H -0.1540894229145966 1.8633601532361708 2.6166232923846904
O 0.26187683095345304 0.24603231248017693 -1.8425108716791954
C 2.446227892409553 -1.8236224465181259 -1.059579294738029
H 2.040619032518022 -1.0499167522864603 -1.7033759172191743
H 2.5704773931988383 -2.761006553488237 -1.5852756645183566
H 3.360447783420265 -1.5017635956938553 -0.5778514611982636
H 0.20855318671668324 1.173366630992916 -2.071890284406336
Rh -0.848206110060126 -0.17688396126734948 -0.012166969149466356
I 0.9581886327609206 -2.104127124733219 0.45735185925174676
I -2.8852746914307534 -1.1113521319698698 1.4353761039060133
O 0.3916765520246836 2.5461828406415354 0.46318586706406667
C -0.6553325439772262 1.9271307531953912 0.7459441850831877
O -2.524610162738643 2.152416678639063 -0.842497711999015
C -1.6944204768026294 1.5184704378052092 -0.20406534603802737
