16
## STRUCTURE-ID: 6456792e4c05b935352b66b0 ; CHARGE = -1; SPIN = 1
H -4.095568335178402 -0.0642423925745579 0.9536657026687685
I -2.4818990897760003 -0.23070508737473266 1.395962658744568
O -0.24754666526885383 -0.3552395875380854 1.6305592212993205
C -1.991161278408087 0.4479851455160567 -0.5474333032899769
H -0.9130379018643142 0.6120626136340924 -0.5499610216544679
H -2.521460623532041 1.3729899723096972 -0.7334327712118602
H -2.2586194778773887 -0.31951555251403174 -1.2637049320944054
H -0.058623318635659095 -0.7781490899811444 2.46801413930235
O 1.5024395893471316 1.9349359427599986 -0.9770932111486187
Rh 1.6073729485507164 -0.15071794675220843 -0.66179305980118
I 0.8007432190393213 -0.5737969533924778 -3.1191395083397535
I 3.3707315335507437 1.9185128533973188 -1.5800097727908997
O 2.103087586949593 0.8227462386688186 2.125664620314411
C 1.7935826668731791 0.3362024716774371 1.1250923731520799
O 1.7003053505189896 -3.045460292998829 0.017388235178249587
C 1.6896537957110696 -1.9276083348373572 -0.28377937032858525
