18
## STRUCTURE-ID: 645671c918305e37b7610ab9 ; CHARGE = -1; SPIN = 1
I -3.1965969814623194 -0.8269035130902763 1.7918597601796658
C -0.684138111277502 0.40910913459369824 -1.125162886704399
H -0.2597060586605883 1.3794313596674388 -1.3582677402577483
H -1.7688306166343983 0.43909945404490974 -1.1669169317325399
H -0.3091150121031361 0.031010785774144102 -0.1470019532596917
O 1.924693991406847 0.8918445285044813 1.2241345751365955
C 0.0322477532364821 -1.3325959118549549 -2.9837744093908394
H -0.787785142921531 -1.260670839176212 -3.6799659691158366
H -0.323330354096117 -0.36510029047457415 -1.9472565581409347
H 0.09273594507623677 -2.2356362027722625 -2.3958539946230433
H 2.844434006990419 1.1276384288942167 1.461730542718938
Rh -0.6171751560263883 -0.11910551501635533 1.8854682614746439
I 0.36253208891456 -2.5150952062306953 1.4827611681267587
I 1.8580306235473443 -0.7787026084628996 -3.8113759764808193
O 1.6987800931523291 0.41333524432375646 3.3980731769418
C 1.2188149158939665 0.44828695194704965 2.2743426469521437
O -1.1082781284723795 2.687710050472306 2.743743720507862
C -0.9773138565638405 1.6063441488562473 2.353462567667412
