18
## STRUCTURE-ID: 6456734f987e832a320b3f5a ; CHARGE = -1; SPIN = 1
I -2.1105610429962254 0.6875376116976264 1.5178362530377492
C -3.082157459004891 1.0011138565127302 -0.4279428478077161
H -4.101904672185996 1.3104583895688766 -0.235613076960149
H -3.0437729224379946 0.06097093311249301 -0.9680782183579538
H -2.525809666261169 1.7748177077838725 -0.947672449878605
O 1.09600793809844 -2.1039497619187726 1.9638285600843548
C 1.0645500143544546 -0.47814697652006033 -2.8997293858471496
H 2.1186386553850447 -0.42486620406414444 -2.654993982406147
H 0.6541143251758637 0.5170108632047634 -3.0282652604463327
H 0.8874019045424062 -1.0992715378191364 -3.768171477682039
H 1.1155817405036637 -2.7593997517371855 2.6875559717703803
Rh 0.5573227176307816 0.5161315513912408 1.0428863816016412
I 0.05088095292097457 -1.3999270935283932 -1.2149412920159814
I 0.5295112846710646 2.620058397194657 -0.6282604376039906
O 3.383654406143354 0.7388031676420531 1.981578873625972
C 2.2989506235277886 0.6957462513725731 1.5444578331766392
O 0.42903567109013946 -0.7753398145993048 3.619227469849071
C 0.6785555288422489 -0.8817475892939206 2.416297085860326
