12
## STRUCTURE-ID: 645668a96141056dc8351d7b ; CHARGE = 0; SPIN = 1
O -0.08991459535626677 -0.024360364445307196 -0.5996627482445142
C -1.1737579523979111 0.5206265250008422 0.0887309178512512
H -2.022651193852684 0.03467575696543562 -0.39739103634742406
H -1.2513883004523727 1.6000218544108666 -0.0556786158137307
H -1.171329532436296 0.2578735727853524 1.1486658098326332
H -5.38405358585583 -1.555207960942198 -2.589183980538926
O 1.1964149666619297 0.5525591339012312 -0.1285674406878654
C 1.91758605822722 -0.36798325047739616 0.7149735306323585
H 2.8447422280761505 0.14424402073723389 0.977244121876852
H 2.120538247694949 -1.3133163139401205 0.21213062014357087
H 1.3297088450517507 -0.5419493745805265 1.6159656943738963
H 1.684104814639372 0.6928164005845828 -0.9872268730781127
