19
## STRUCTURE-ID: 64567a18c505eb59de32bae9 ; CHARGE = 0; SPIN = 1
H -3.82983016210438 -0.8158710918349882 -0.039695459959322284
I -4.023643488721373 0.42456335279140117 0.9166535330444382
C -1.1622104211610482 0.45390739631247756 1.3004735382439345
H -1.3401756297019276 1.2436292007918233 2.0119035268064422
H -1.3458791820587475 -0.5680938748483514 1.59352467199364
H -1.1505665778332976 0.7059706022047688 0.23529002466894267
O 3.106602641213088 -1.9843057002228035 1.5603229068953581
C 1.4405979258376262 0.1837354765482699 1.2751299614240097
H 0.3075483108023315 0.3684049174780062 1.4556757162635838
H 1.8799324931097403 1.1019894695176307 0.9025401268137854
H 1.8907993052526781 -0.17671253648834637 2.1914974595699848
H 3.2542364348668986 -2.926000398964752 1.6094289427472697
Rh 0.045655029526347105 -0.05737114958803488 -1.9144657421189728
I -1.6395683755905732 -2.0144731675370293 -1.888214749731894
I 1.5500546307509422 -1.3641361933455716 -0.16734919239831852
O 2.2125740720412495 2.0033664589293463 -1.9327624077754963
C 1.35290141817991 1.243844101816344 -1.8981183755739155
O -1.5763738526284645 1.3516231136655135 -4.013512358598913
C -0.9726545717810103 0.8259300227742851 -3.198322122314573
