13
## STRUCTURE-ID: 64568bd4ef8223477211299b ; CHARGE = -1; SPIN = 1
I -0.9154254853348451 1.0387526677733754 2.337054088222344
C -1.003785986581805 -0.006560353843303895 -1.0532275835134248
H -0.5452689900466317 -0.3797322012084768 -1.9704421143240796
H -0.9920517603737945 1.0835584458384349 -1.0413495931767751
H -2.030542013735619 -0.3775931699537691 -0.958456203736438
O 0.9602975819848274 -2.1289538700997808 -0.5662391379560039
H 0.4085412455646089 -2.9046433419936317 -0.7157846392024573
Rh 0.008886705461480985 -0.760990934786721 0.5941531250253517
I -1.5625997014949573 -2.6493991952259663 1.465097246734845
O 2.5094790697860248 0.730389723657947 0.09000665830559751
C 1.4643532838939801 0.2759567929083034 0.23408938283801714
O 1.2728111000690898 3.300887520777222 1.07218394463549
C 0.4253049508076382 2.778327916156363 0.5129148261475425
