13
## STRUCTURE-ID: 645674025901ab3f570876e4 ; CHARGE = -1; SPIN = 1
I -1.2967954072798673 -2.3389861069965145 1.1311394575773566
C -1.7084035613594017 1.0443392913610554 0.07367884419424309
H -2.5961499703331246 0.6207249681581177 0.5499652089557762
H -1.7617333241345816 0.9270711560358248 -1.0130711407944355
H -1.6113817615107504 2.095194156346943 0.3457237209161742
O 0.39864745357620474 -0.8684458984704609 -1.3516797738021198
Rh -0.07845408194149264 -0.0936977701426012 0.6939293427025112
I -0.24295145916391683 0.6946112208298941 3.163749018175562
I 2.3164578094997457 -2.4329231707595578 -2.809419870215216
O 2.0997094898252753 -1.482014095371168 -0.06309379026930613
C 1.4632871208857228 -1.4276615823291987 -1.09618310439962
O 1.938556425686361 1.9833606334496725 0.05195576927500361
C 1.079211266249827 1.2784271978879882 0.32330631768408324
