12
## STRUCTURE-ID: 64566bd09f87762b7f67f9c0 ; CHARGE = 0; SPIN = 1
O -0.6713224228753464 0.5789952330862596 -0.2738678407384356
C -1.6701850526667827 -0.09535482691167728 0.379127756881361
H -1.6852005136337143 0.14774149946011916 1.454580851619482
H -1.5827919585568029 -1.1893827109106287 0.27301727269809356
H -2.6450854124696073 0.20213735646498587 -0.034872845791251536
H 0.1636304877862166 -0.09836320176472997 -1.2041732673432908
O 1.1177302652389596 -0.4658368331117876 -1.3933481405608212
C 1.2412617393054604 0.1507180048805678 0.49838033583292857
H 0.6440763374532692 -0.3207897031904534 1.2601509746554123
H 1.2882600164605391 1.2235251393981006 0.5534477952400835
H 2.197266753686692 -0.33970624655558335 0.37373600366062204
H 1.60235976027112 0.20631628915483075 -1.8861788961541823
