17
## STRUCTURE-ID: 6456b787f0565959ad2cdf88 ; CHARGE = 1; SPIN = 1
C -1.915724932780486 -2.6018321900406876 -0.43136689080224666
O -2.9618184326373305 -3.029563465318828 -0.31345822120854455
H -2.0490978388393057 1.7097860367482036 0.4107548554557816
I 0.1343449069063153 -0.3749859447605961 1.8104109249835518
O -1.6440025697782228 1.979223546061106 1.28293739342516
C -0.23852359190824213 1.753287611731238 1.2838959544789899
H 0.21601519759780458 1.9188355918166904 0.3043702954356907
H 0.23500358137117902 2.32210549463814 2.085947103365904
H -1.874278133544997 2.910953857344714 1.5228321436373249
H 3.491412323428104 3.2864466428544117 0.19692013483659004
Rh -0.23589498080880714 -1.8762541958120393 -0.8472922186915747
I 3.224631657746036 1.8978985559555885 -0.48560859046011834
I -1.5329384897614171 0.20213290649576907 -1.7764632878770807
O 2.1231239478656225 -0.8564372874533355 -2.403959435589734
C 1.2764000542284297 -1.2240134208143556 -1.742000323673465
O 1.1354996101358583 -4.508710996653601 -0.3648684376156313
C 0.615847690779454 -3.508872742792414 -0.5330513997005878
