12
## STRUCTURE-ID: 645668599a13af2619248aeb ; CHARGE = 0; SPIN = 1
O -1.0140952700686854 -0.6210692125673406 0.22772092925107054
C -1.0690662819725496 -1.3479974216267436 1.439051219548378
H -0.7217683328775454 -2.3753784550916652 1.301043134692554
H -2.0827596903096506 -1.3575054686144883 1.8480842760821279
H -0.4083347676776203 -0.8418111492139045 2.1400917357381957
H -1.5941725322499027 -1.0462787059324994 -0.41593990348940973
O 1.5274903454407422 0.35503337166250554 -0.6365430238353701
C 1.2152369071637616 1.572095378087465 -1.2723697026884149
H 2.1562568138904052 2.0058977434036276 -1.6089210079643226
H 0.7265961921403995 2.2695183724237467 -0.5850868599175678
H 0.5660705774231111 1.4152757250647485 -2.140022015208298
H 0.698546039098061 -0.02778017759493792 -0.2971087822091792
