12
## STRUCTURE-ID: 6456686b2515d070eb7c7c48 ; CHARGE = 0; SPIN = 1
O -1.0115780816694495 -0.858343385780692 1.3269707062821514
C -1.9078959124354338 0.08232463619294138 0.784998201708253
H -1.6661545507939735 1.099518845327981 1.1092428466470594
H -2.901622315277814 -0.17784908611621272 1.1477865167747971
H -1.9108630654804668 0.04773074363113432 -0.3097957932630309
H -0.11302505831062101 -0.6234418051784566 1.031994421162019
O 1.515057630480251 -0.07735492675470358 0.22336788194316431
C 1.4526045769294247 0.2195873278598639 -1.1576159907714987
H 0.6118066232905989 0.89692164636068 -1.2955466304909196
H 1.2852628389489333 -0.6836572261318341 -1.7509641757433834
H 2.3648687732325224 0.7144089607485111 -1.4990816653838548
H 2.2815385410860243 -0.6398457301591981 0.38864368113527487
