12
## STRUCTURE-ID: 64566b3ae509b8707c6f2ca3 ; CHARGE = 0; SPIN = 1
O -2.239238132820038 -0.35204045631559505 -0.5034743696794314
C -1.5226680975351388 -0.6712048536540479 0.6068616131694325
H -2.0420170871735657 -0.4562417433858843 1.5552329743247757
H -0.23878025692857455 1.2954719024116943 1.1825997030199487
H -1.1435698776799053 -1.706767627595186 0.6076154957571901
H -0.9462788703335299 0.1773924351684066 -0.10189797022652727
O 2.1062199380893154 0.44178480132541076 -1.6184929811378481
C -0.022539847557259074 0.30003076341545465 0.8055155517168089
H 0.7102467674796615 0.3253275891750058 -0.008068617953210193
H 3.040929697025476 0.6608463937941339 -1.5838914673282425
H 0.4112402937020956 -0.29746294508275134 1.5976496358679537
H 1.886455473731465 0.2828637407433605 -2.5396495675308577
