12
## STRUCTURE-ID: 64566a616659303c4e304578 ; CHARGE = 0; SPIN = 1
O -1.0505902806449123 0.10173831528453471 -1.866922473787194
C -0.4997577023710364 -0.49629268572732277 -0.7915771400507116
H -3.4846652129347326 1.7344078757377017 2.741721745276218
H -1.1624788185954726 -0.6313075648336567 0.0686672721660829
H -0.051939537479753876 -1.4465925837940898 -1.1030422476131034
H -1.684217642470537 0.7942298722665356 -1.628929660458707
O 0.6031596728857928 0.39486338132348753 -0.28649259949755634
C 1.3984474818084285 -0.17909500130238903 0.7754738740066719
H 2.146152336141924 0.5582938097775936 1.0597062252996154
H 1.8708721738120144 -1.1105352383233857 0.46382013942134187
H 0.7393359593760934 -0.35762009369165354 1.623598203151379
H 1.1756815704722021 0.637909913282641 -1.0560233379140394
