12
## STRUCTURE-ID: 6456681b0e192a3c5f051b86 ; CHARGE = 0; SPIN = 1
O -1.5767432792272897 -0.5030155189239804 -0.7537744328807033
C -1.3978894430024436 0.1229102167332249 0.44274961998430207
H -0.22204930503537318 0.20598943913074125 0.5458668277724282
H -1.7975622287341835 -0.45997072442864356 1.2740780017943172
H -1.7469887552392098 1.1626639992804588 0.46109740574634883
H -0.7212825046714804 -0.17119594833542165 -1.282013484353654
O 0.6311357566272809 0.3114959533627153 -1.4404066824042334
C 1.2471574821867197 -0.01779087902221741 0.5466594040505756
H 1.9560084326055478 0.7060039695354449 0.18212766345335785
H 1.4636278441439978 -1.0385010795338336 0.2809536261505279
H 1.09099937370899 0.09935777007329916 1.6177634681761641
H 1.0735866266374448 -0.4179471978717819 -1.8751014174894334
