15
## STRUCTURE-ID: 6456b72229a8c072fc1a5614 ; CHARGE = -1; SPIN = 1
C -0.9075967075212464 -1.631260445671389 -2.187658938651691
O -1.2466152814324436 -1.5862741047165818 -3.2780936787452726
I -1.6695947323695493 -1.3381110306442623 1.3659370660902461
O -0.715441002715428 1.8561004101744294 -0.25058567284293626
C 0.9629268051515382 1.3012219972217869 2.948110020895764
H 0.660945266037302 0.5866270943818203 3.6928489127593793
H 0.42809222342206277 2.2314393941706414 2.8819250460974035
H -1.2808822480965933 2.6250882046876214 -0.46556599793251785
Rh 0.0895798497692497 -0.8551658922872846 -0.652492621986211
I 1.6725212717344555 0.5536624923587793 1.1903102870729183
I 1.9043769818111982 0.1467995821812973 -2.4107956444795917
O 1.8502955367149732 -3.186756960047628 0.20966717526132247
C 1.166150167833862 -2.3615760420726093 -0.18625011288499238
O -1.9068111258536053 0.8780698043812667 -1.8424204728587323
C -1.0079470044857775 0.7801354958820413 -1.01493536779516
