36
## STRUCTURE-ID: 6456db1e8b6c5d349932bae9 ; CHARGE = -3; SPIN = 1
Rh -1.5978655311126058 -0.32790222920056045 -0.9759921425891005
I -2.1209793842374123 -2.465983935984809 0.4734029076313149
I -2.815142026298124 -1.2860822247307873 -3.0878739397826287
O -1.4976786815355199 2.1072023400722952 -2.6618844508680066
C -1.38790293690932 1.1647607942649938 -1.982585785418485
O -1.2692532552381537 0.7537667308705349 1.7133525082014713
C -0.9105840191887978 0.4688751090061493 0.623505026065582
H -7.328702658103939 0.006610192575258931 -2.060811632047716
I -5.850909217346551 0.20891454087757044 -1.2356333539957907
O -3.8875843646119383 0.8163818711393535 -0.35881480484331335
C -5.347408991322961 1.4595166882168313 -2.8803936513740984
H -6.074676025542798 2.259054177221045 -2.9377829984012136
H -5.330814778613099 0.8390180783931134 -3.7684055171816713
H -4.356761560255843 1.8448511241740815 -2.6746747018262345
H -4.021514946551606 1.1601728123673825 0.5235968839678088
O 3.7046998189818856 -3.003692009356975 2.948514791477193
C 0.7738583937555509 -0.5533910370297171 3.3121614581543093
H 1.3042460264109474 -1.0023190646548 4.143334199678909
H 0.4389857723177815 -1.3344298698113577 2.6311339981543864
H -0.0781353464775013 0.018484279726803145 3.66202333919018
H 4.511020139856901 -2.729868254731799 3.4180056077681713
Rh 1.0090310021963014 1.3068475951763117 -0.10494966813042526
I 0.19555386472187575 3.7273344702938527 0.6689813623328166
I 2.105092909006793 0.6975338211940533 2.2230945489375533
O 1.1280328974005671 -1.3068571117924674 -1.3743267476035204
C 1.756744680328246 -0.3827271341578019 -0.8526454459926628
O 1.485607013902212 1.5682518999736001 -3.0556095247238626
C 1.2916672958993296 1.6743370382266711 -1.9101318559684284
O 3.1253994064388033 -0.44652340237706856 -0.9518197717828835
H 3.4037365464357006 -1.2358450799284846 -1.4586469607962262
Rh 4.26420797596801 -0.4849765163295293 1.4705904679464756
I 4.665011097599173 2.1265873809381337 1.0621863199094386
O 2.4094751435127213 -2.5088020258069457 1.2332678622529412
C 3.4079526191095346 -2.1930122687388947 1.8833587467902573
O 6.967144710859928 -1.7080986288095505 1.080075170800614
C 5.92844640864381 -1.237990151266717 1.2623977540668494
