12
## STRUCTURE-ID: 645664ce77c5ef0e2f41e58b ; CHARGE = 0; SPIN = 1
O -0.8325445137964212 2.6098942204256477 -0.09628076489968944
C -0.7112943913843095 -1.121907417630919 0.6067556948526869
H -1.2836869354940035 -1.4436658478499167 -0.27019350247140134
H -1.3892375750397756 -0.7344412879301078 1.3636509892501105
H -0.16227885549438556 -1.9800709477199006 1.0090915617089153
H -0.48592854669929186 3.064162615395646 0.6753465412305797
O 0.1713716361667229 -0.07148338833269757 0.27586845942792626
C 1.1224578919228445 -0.4400958017191061 -0.6999920934138145
H 0.6318255177433556 -0.7342477559646483 -1.634256814813499
H 1.7429644412631504 -1.2699075651394178 -0.34556739112365575
H 1.7449224800596776 0.43422372972343615 -0.8748620601837808
H -0.5485711492475636 1.6875394467419715 -0.009560619564358261
