10
## STRUCTURE-ID: 64568bd090d4785926230d6d ; CHARGE = -1; SPIN = 1
I -0.6662394088231449 -2.2475599682513447 1.371776366484291
O 1.7436855754936533 1.0220237919071489 -1.221483596457391
H 2.1940340968187657 1.6905295485046938 -0.6908762594793236
Rh 0.8053020956552839 -0.31370356442548 -0.14683713752814812
I 0.11168312270400298 -1.491424421870636 -2.3999942736263993
I 2.248463554202941 0.3407846682435111 1.9225973061837751
O -1.04731505902865 1.7405199270166556 0.5420369825091971
C -0.825497923819908 0.5733368066537692 0.3662740520011188
O -2.796961891574476 -0.7597047082367399 -0.14387772735867616
C -1.7671541616284638 -0.5548020795415775 0.40038428727156705
