12
## STRUCTURE-ID: 64566962782f080cf46f2ca8 ; CHARGE = 0; SPIN = 1
O -1.4904732627167967 -0.2698163786407704 0.20766494814514336
C -1.0646543714089025 -0.07608976583832848 1.5421508534634236
H -0.6429840382746999 -0.9938605337302993 1.9619415003493867
H -1.8869988516921572 0.2678739865587365 2.1744092077746022
H -0.2931360267927957 0.6915889875166394 1.5175680420461408
H -2.2035110341576303 -0.9197664014893181 0.1983047477499699
O 0.6766850800111216 -0.6185057928693697 -1.6343758340776284
C 1.569509147972268 0.4119656226504671 -1.283001824258575
H 1.9024685751492967 0.3156521113096801 -0.243772644035038
H 1.117489433400343 1.3993636968160421 -1.4229440292345408
H 2.43434835522303 0.321813087894347 -1.9395934426916304
H -0.11874300671307318 -0.5302186201778313 -1.0783515252312532
