18
## STRUCTURE-ID: 64568ac939615c60177ccc13 ; CHARGE = -1; SPIN = 1
I -1.7829061041521475 -0.172346668967364 3.0841511963756933
C -2.129290775032435 -0.5292247716124123 -0.1792351603265509
H -2.0467831416414115 -0.24936728959155632 -1.2316879019029818
H -2.9259610668720604 0.07372337790094992 0.2615112788452034
H -2.416055743130997 -1.5870315144294134 -0.10863631596764899
O -0.40984282041791953 1.5874908229359812 0.029394494975875218
C 1.0496110186573726 0.49949191962276834 -2.617892832601933
H 2.1134031341769908 0.6716665255393106 -2.7389870101386578
H 0.5902579753555747 1.2716543399530005 -2.0051843409640964
H 0.5394340867823129 0.3697230328968472 -3.5649426128603627
H -1.221525721928234 2.0849141821112145 0.14200247066212157
Rh -0.2959799864389366 -0.39679447890064984 0.8438927916865873
I 3.2101458381429593 0.6374256217776795 0.5493909562063818
I 0.8181698170938981 -1.3352765486642124 -1.486128816755467
O 1.4535203796952374 0.7875611282885484 2.877617929243799
C 1.4079212495207527 0.21738739135556537 1.8349330842870486
O 1.3526470729526519 -2.326600278569043 2.4773999525045096
C 0.6932347872364754 -1.6043967916471615 1.8324008367305915
