13
## STRUCTURE-ID: 64568b38aa27f443ff4efcad ; CHARGE = -1; SPIN = 1
I -2.4421356352922157 -1.601227434892476 0.28456125380835157
O 0.6924092076877503 0.11027397632861052 -1.92764560748061
C -1.3610142575428286 0.19259552989977483 -0.17222286496925576
H -1.8108552485847051 0.9516111055567045 0.4942703489502879
H -1.634329095730344 0.47464899331508076 -1.1885975759415504
H 1.0013581963766611 -0.4955809862958818 -2.6291192930067537
Rh 0.5539530719236522 0.6868962851725628 0.7277265889199701
I 2.828172994244497 1.312201966802572 1.8889300555375952
I 0.3222220920424546 3.024008448713642 -0.43625541248027083
O 0.40372583464296713 -1.7563469727512355 -0.7341523585283267
C 0.35514154826512295 -0.5450379606607171 -0.8090909128817677
O 0.5429468323601381 -1.6052473917034928 2.6310872390830515
C 0.5484044596068287 -0.7487955594851412 1.8705085389892697
