16
## STRUCTURE-ID: 64568d83566bea56f14609e0 ; CHARGE = 0; SPIN = 1
H -3.2025451469695088 2.334417114945213 0.3325954852483613
I -1.938861631208412 1.3242638737882746 0.6846873061467209
O -0.3041334312206553 -0.28403677476149364 1.0247200556175622
C -2.9028073527667493 -0.14790922933533288 -0.5029657242466863
H -2.9491405646756865 0.2346553146311572 -1.5156604832166451
H -3.8841715016991194 -0.32772206295715434 -0.08153787575067543
H -2.2817501450593474 -1.0323869771848277 -0.46113966928516914
H -0.36077132849035093 -0.6446742367328162 1.912230777779619
H 1.0115908093083672 3.205535904909256 0.21275392462458864
Rh 1.6546875527719764 -0.24347554644390465 -0.06438204436272835
I 2.050804028679416 2.3056021289390896 1.0158994233400243
I 0.3943598186543896 0.2729556384502121 -2.308455730001217
O 4.406661144322198 -1.2016155824763437 -0.9659657621981764
C 3.322552427306272 -0.9444238134687567 -0.5538063648648774
O 2.5213433011226503 -2.9777187824334264 0.8414143668471491
C 2.462182019924616 -1.8734669698691226 0.4296123143221705
