8
## STRUCTURE-ID: 645663a47847162e27248aeb ; CHARGE = 0; SPIN = 1
H -0.5873536062669524 1.0842830633643519 -2.275526300072373
I -1.591370579275682 -0.7533153195634081 1.8718748123635214
O -0.08228088779739837 0.3266771915485842 -1.9681768776954562
C 0.39227318864829125 -0.14047550714628249 1.3090735526014627
H 1.075289787877029 -0.927625826715528 1.599227362220279
H 0.6146903134282294 0.7793667469069269 1.8334201349128505
H 0.40084762922753175 0.008912939185893903 0.236484601713047
H -0.2220958458410554 -0.37782328758053163 -2.6063772860433465
