13
## STRUCTURE-ID: 64568933f5f1f729f97cab7d ; CHARGE = -1; SPIN = 1
I -0.42107803304375757 0.3756843837823241 -2.6056907389364614
O -1.7735303679097836 2.695232451351751 1.5222311101128454
C -1.5423168658917576 -0.21102991785053654 0.49839233601835226
H -2.055268520812493 -0.8616091020602599 1.2117410077168074
H -2.271362175952027 0.3770332853458893 -0.05733176878374526
H -1.4585266334271474 3.4301223341484404 0.9861860033103046
Rh 0.3691345819809501 -0.6614948461674881 -0.3003680207810963
I 1.0735922174668568 -1.3716933894692382 2.1952499275093604
I -0.4363091134444887 1.211629943310188 1.6587334739152009
O 1.5123051168237938 -2.9202120227586312 -1.6028423591332799
C 1.6804481115879175 -1.7595620837427195 -1.3264429803827162
O 3.1244811607586556 0.23950520222493218 -1.1538630848917826
C 2.1984305218632785 -0.5436062381146481 -1.0259949056737938
