19
## STRUCTURE-ID: 64567b108ff88f6ec57ccc1e ; CHARGE = 0; SPIN = 1
H -3.304634570041664 2.1264623342355398 0.01865783835614985
I -2.0058518703849324 1.649763851544966 -0.924632796284711
C -1.4011654647912049 0.6909109002504477 0.9152033625320525
H -1.4575443599273152 1.4385663424374102 1.6982358410133531
H -2.0782311159013287 -0.1395610365594278 1.0845200427945865
H -0.38517107156175195 0.3397873270175658 0.7882296458396476
O 1.0819179584412064 2.0415073620362287 -0.35577430498472795
C 0.5698844419362512 -3.5827575429529914 2.2101854589836005
H 1.417350314321652 -4.227330020274222 2.401800158970424
H 0.3769754238497483 -3.4994988777638936 1.1482834821458874
H -0.3086169027080965 -3.925134932158555 2.739807463947902
H 1.7992899486979625 2.3989775963667546 0.20724171546046424
Rh 0.05525456996661312 0.5857428220773904 -2.4421197973112623
I 1.054488409116728 -1.6303817323643224 2.944255720380994
I -0.21060309195117405 -1.7791808972248633 -1.5976847487890025
O 0.38142691268408724 2.935092966937111 -4.2638630986190575
C 0.21235478097965366 2.071976922726774 -3.518129757734397
O 2.688935732080124 1.1604142038865983 -1.6485206128553571
C 1.5139399551933936 1.3446424097815264 -1.4056956138465764
