10
## STRUCTURE-ID: 64566e8204cf20693f333bda ; CHARGE = -1; SPIN = 1
I 2.404589327130567 0.3603166134712416 1.577168754062064
O 1.043666777948188 0.05215550687748557 -3.0241157081707595
H 1.8994528280518248 -0.14636427235330335 -3.4089167899244535
Rh -0.09359732380122943 0.09338441181462342 0.7269763900559929
I -0.13309961905050788 -2.8896948706879444 0.9005621661377132
I 0.6561544019438411 -1.2111540471373754 -1.4624670118356602
O -2.6894921230626148 0.6644756198127542 -0.6468349955847291
C -1.719732784822915 0.4162774970562999 -0.08031871233413039
O -0.8077617527285834 1.6266555685704749 3.1841497765013216
C -0.5601797316085779 1.0339479725757525 2.23379613109264
