12
## STRUCTURE-ID: 64566791f65c4f2be3390828 ; CHARGE = 0; SPIN = 1
O -1.1883664637876743 0.4170732132368801 0.46326699336384364
C -1.9027728608961334 0.1290268071708496 -0.7217235883889891
H -2.8082411540888708 -0.44480348834152145 -0.5083891788572056
H -1.2438930358088063 -0.4691292975055346 -1.3482642067936845
H -2.1690301787997535 1.0436635243424366 -1.2577725052869944
H 1.8259693333924472 -0.817724260785169 1.458617371148809
O 1.6201120891999208 0.7579388284722268 0.12410572075064587
C 2.090674391771869 -0.5319554267470135 0.4358361357163785
H 3.175861747216212 -0.5065151517889388 0.3431015097063171
H 1.691761550577412 -1.2818810569036359 -0.2551881373839838
H -1.7434672164532115 0.9521459200003691 1.0435928397060867
H 0.6513917976765905 0.7521603888490371 0.22281704631879518
