12
## STRUCTURE-ID: 645668533866b13d7d32bae3 ; CHARGE = 0; SPIN = 1
O -1.2055835803567314 -0.9856607558838012 -1.2364562406915591
C -1.2462102946284008 -0.09431161877349738 -0.20854306517359392
H 0.02389296376678462 1.1491852730926386 -0.6798472317293585
H -1.605244692890777 -0.5996360439210778 0.686692169515804
H -1.830043164466513 0.8053633205527324 -0.3805576400621911
H -1.14684972265619 -0.5461382758079871 -2.097175411957439
O 1.886045166492456 0.7344190424655727 0.31028504764162695
C 1.2797504175399481 -0.2387292036310669 0.9366355064306895
H 0.1354682560620786 -0.22060907232744065 0.5246803065176947
H 1.1615964365007807 -0.09701962485916671 2.02084881623358
H 1.6290311051233564 -1.2501300364324173 0.6843281939782226
H 0.9181471095132147 1.3432669955255099 -0.5608904507034849
