18
## STRUCTURE-ID: 64566f387c10f5058b1f8bde ; CHARGE = -1; SPIN = 1
I -2.7121285888971807 -1.811166320818866 -1.5172535264932605
C -1.2724186310434416 0.8900310245806713 2.1809026634407562
H -1.6987974420337733 1.3531727652741314 3.0600872160966737
H -0.7045930608112778 1.6249120020500427 1.6219466063816992
H -2.070565996842909 0.5004945786511433 1.5593774510833087
O 0.8390191313781135 -1.9189120896477845 2.2689334314247303
C 2.3870941581242757 -0.08629256365895593 -0.2038918480827591
H -0.6218392478137418 0.07617582389622254 2.47545053157719
H 2.242832693966487 0.9428671266731175 0.06622760054608949
H 3.383790474935087 -0.4804104407554038 -0.25082470217224595
H 1.1801857399669906 -2.8083950349099553 2.387604563274851
Rh -0.6429405169623293 -0.2665357529238615 -2.106916502130919
I 0.6968400243286293 -2.1806739024287745 -3.3365681786990664
I 0.9044878873246078 -1.3503504637843606 0.1619071246304796
O -2.3410012376204885 1.9422727532885067 -1.030005867933336
C -1.6635647304658736 1.1051507791279458 -1.4291786932347696
O 1.4480841911488467 1.5849675617996752 -3.1655927679544043
C 0.6455151513180155 0.8826921535864904 -2.7422051017550304
