19
## STRUCTURE-ID: 64567b1f6734ff7cb562319b ; CHARGE = 0; SPIN = 1
H -1.3039505661557502 -2.0082691053049677 3.595274747975663
I -0.5692484685437788 -0.7668934121916334 2.8273302523257264
C -2.3369717744476173 -0.3695514756017204 1.6959321277016743
H -2.6492189656794736 -1.3098694955618937 1.2534662136157213
H -3.070748835475595 0.05326113459207239 2.3727825332166637
H -2.0599979468748177 0.34718250301220116 0.9253753812359763
O -1.5851446681734527 1.5155485780317557 -0.9555909174616107
C 2.0247530170631984 -1.8803106480517395 0.41286520314612046
H 2.200398425643722 -0.9678617495927099 0.9733268322030231
H 2.853007056409641 -2.0863580900013816 -0.25441370115921136
H 1.8307778658702847 -2.719155428989528 1.0711455312332996
H -2.2257177766505603 1.5929527366729035 -1.6641607626464812
Rh 0.4209533148403928 1.5046572289337308 -1.3856060304150792
I 0.25642791251966623 -1.5853191796055437 -0.8124235766127138
I 0.8404990163777495 1.9228619776078328 1.1806121986884126
O 3.332811670841787 1.684904136521471 -2.0214716057889897
C 2.213100587589314 1.588189829655905 -1.7433490835947174
O -0.20761430040725654 1.822940178296647 -4.29395661755328
C 0.035884435252555066 1.6610902815766535 -3.1771387261102104
