33
## STRUCTURE-ID: 6456c4940d0b826a18630f13 ; CHARGE = -3; SPIN = 1
Rh -2.500608104516016 -0.6046796684319349 -0.018184341798441066
I -3.3487433565783697 1.453300167924908 -1.4570161510788517
I -2.980290626970538 0.6332777060000281 2.350294745889607
O -4.350520117883515 -2.02758747754929 -1.5333674623885194
C -4.241257530155529 -1.4261171615569372 -0.4955008437918026
O -1.5832613751463234 -2.386763586683114 -2.1089949966330925
C -1.5861364912944576 -1.305770912805513 -1.5409975386437456
I -1.919845889983644 -2.907891573350957 1.2274463474325006
C -5.389609031708792 -1.2511587379043023 0.47392663827602904
H -6.250686889382543 -1.773972774841998 0.06212306598582172
H -5.135012205796773 -1.6666545746901558 1.4493949345215327
H -5.6225524464365275 -0.19313139759107278 0.5991257134780966
O -0.30970380113177515 0.9936097415888602 0.31302541344783086
C 4.856242847299243 3.6377099087483873 -0.03237604240956513
H 4.646678102007449 4.638627890490725 0.3355413875549231
H 5.407435499221718 3.6471912396379804 -0.9685231413235441
H 5.336472401491264 3.0146424281884405 0.7205962038767665
H -0.5682025041795784 1.2083914155737843 1.237669575378201
Rh 2.1499213368997974 0.2862748006369254 -1.5246221297714733
I 2.466686890747867 -0.09148024948348048 -4.037960952224905
I 2.848043933932458 2.713226608581385 -0.48643719765829363
O -0.4558451755296275 -0.42914802995223583 -1.9149180665999888
C 0.5616195422232959 -0.7947292117135168 -1.050138363883963
O 3.4480711839557414 -1.9303662110104103 -0.32232116843952935
C 2.978533183622489 -0.8549568126172408 -0.18244717969372432
O 0.7933343686415788 -2.1840106385349682 -0.9714025831449946
H 0.14556827739980296 -2.6281867231429374 -1.5548705745994083
Rh 2.3384653881576845 0.39063602355049015 1.202765022349808
I 4.759189463174345 0.355994283061712 2.1999123107274756
O 0.5666312660089905 -0.861628127491454 1.368561128239576
C 0.42090535835289566 -0.20245234911051166 0.31086697088909365
O 0.9260509710666432 1.3410166843428617 3.637906365704986
C 1.5924255324907854 1.2067873201355848 2.7109229103315546
