12
## STRUCTURE-ID: 645667161f55f7194d3d7d8e ; CHARGE = 0; SPIN = 1
O -0.9429835487242816 -0.539891014897791 -2.0817106073013627
C -0.3713839036317938 0.1982928560855952 1.4070114262453448
H -1.095818716724944 -0.32444694517007955 0.7863103612412883
H -0.6792164058600223 1.2364855440006493 1.5037239090538943
H -0.35117836746878295 -0.2593430256242199 2.3917542901621145
H -1.433710230678849 0.07319694534389808 -2.636081148361541
O 1.0578031026738406 0.714584763526405 -0.5090008689717979
C 1.010505661382874 0.11834434771556487 0.7675015898807545
H -0.6233997736808601 -1.2441634464073872 -2.6523033250015375
H 1.744373966503798 0.6576249807557409 1.3741536005531538
H 1.3267386642614696 -0.9342492044865981 0.7020289480875201
H 0.3582695519475858 0.3035641991581947 -1.0533881755878087
