12
## STRUCTURE-ID: 645668543866b13d7d32baee ; CHARGE = 0; SPIN = 1
O -0.630215906190553 -1.2675558420783453 -0.17929892522283628
C -1.5210057068663074 -0.21779386589367788 0.1439226454785498
H 1.226702874172991 2.827244457709038 -1.672511810186696
H -1.8715648207913107 -0.4016086523997742 1.1575089432032746
H -2.3707707119883406 -0.19630100730351133 -0.5383156405591989
H -0.4438907230793955 -1.2290375944292098 -1.1280501869175468
O 1.2232082551014627 0.5222124618819259 0.7069825860671423
C 1.2804707594205669 -0.684805638164445 0.7582294944594852
H -1.0000090102967607 0.746403520198107 0.12035200930448682
H 0.9701452491254553 -1.248958601980859 1.6476628298419598
H 1.8021736358232616 -1.2788826823830621 -0.004968424340857204
H 1.3347561055689303 2.4290834448438066 -1.0115135211277704
