19
## STRUCTURE-ID: 64568df75eed795a6a32bae0 ; CHARGE = -1; SPIN = 1
O -1.3383548891756285 2.191854413124442 0.744070587770659
C -1.5266600134019856 0.6738391999175861 -1.4248213860756043
H -1.5201571477763753 1.2540222649984127 -2.3450312026518203
H -1.48186888991357 -0.39305109427735674 -1.7028811186440995
H -2.463968908790575 0.8269299337577499 -0.8942946632503275
H -1.456653521047094 3.1419471546510325 0.9292078916528476
O 1.0148588773873266 -1.955986900490334 -0.7274308980082804
C 0.371997687253352 -2.385980124934033 2.346357747650655
H 1.1203805803201747 -1.9644360079657106 3.0085811879528417
H 0.8160717539369534 -2.7251609178104603 1.413961952635597
H -0.21216183080619422 -3.1609182007338066 2.8257209858264463
H 1.8988247051874316 -2.0613077875780794 -1.0835653147789754
Rh 0.38899957159003634 0.25495940345643103 -0.3428912478956497
I 2.487445401265909 0.8505098147074456 1.2750783717404093
I -0.9633636353221351 -0.7857358141717908 1.7716229788801778
O 2.2032589477835636 0.6836862951716168 -2.633088242116529
C 1.4528675554232444 0.5809305516126702 -1.7648357410131783
O -0.207550216869978 2.971397535349892 -1.021888030961193
C -0.5839660270443564 2.0025002812142967 -0.37387385871372664
