21
## STRUCTURE-ID: 64567802d63e381b296cd4b9 ; CHARGE = -1; SPIN = 1
H -1.2951734920489015 1.4332690329192845 -3.571576914084134
I -1.1510274158744798 1.7981913744315228 -1.9951843524981383
O -1.8383932169581705 -0.1832130646562058 3.106671063174
C 1.4504582856882537 -1.0654680468974158 -2.88219031176143
H 1.0438855558812423 -1.627643173946259 -3.7130939508488954
H 1.5432258710074314 -0.007015532706710881 -3.126215524159326
H 2.387371590900944 -1.469655928138727 -2.5127296664781977
H -2.5652992704409368 -0.12277453060756204 3.7560109584349313
O -0.7971815482142289 2.35012108665578 0.7286270887346046
C -0.11945367277111794 -1.8047587503892952 -1.7225201496829332
H 0.2768565279371422 -2.8167359451421876 -1.711203420930461
H 0.7823282575163032 -0.9306979484395052 -1.909398481474595
H -0.9349308287364168 -1.6154420344097902 -2.4184569239324114
H -1.424553951682265 2.8630855829553927 1.2427739059905352
Rh 0.4407556963464641 0.9478067951122862 1.845203800212671
I 2.3570454593675336 1.0472114571341316 0.06290422992525022
I -0.7657788836779302 -1.2462983982107478 0.31508250848092967
O -1.3558403199891282 1.8041544804760046 3.9878665159737947
C -1.0218669406720744 0.9467608960710239 3.1556071442280764
O 1.6884272691231386 -0.3727442608247366 4.19232182995211
C 1.2991450272971825 0.07184690861369418 3.1695006507436245
