17
## STRUCTURE-ID: 64568a07d744414b325a851d ; CHARGE = 0; SPIN = 1
C -1.7393662491256354 -0.21132571462416092 1.0882136253822925
H -2.045285590566652 -0.35144404219498493 2.122952235994365
H -2.280165997055687 0.6299870162985998 0.6580410949174965
H -2.0408493594575647 -1.119533486212974 0.5298718167023759
O -0.31083796482904835 2.0888672223278535 0.9726485680485399
C 1.0149122247460673 -0.08199288094299333 -3.4390165340982524
H 0.8896475733153251 -1.1586284569605336 -3.456535809652755
H 2.0433672291594296 0.18365850044485016 -3.2200808825022613
H 0.6705913305747019 0.374614141665599 -4.3600113078519795
H -0.18962574692595408 2.9006273383115677 1.5042574688980523
Rh 0.29843003319738687 -0.5372305145473228 0.4893117755628305
I 2.6200067654154138 -1.4268436845359678 -0.3632582205223407
I -0.2198978203948357 0.7036599609118043 -1.8402098353012286
O 0.018917393404570756 0.9556475199270581 2.8747590996322083
C -0.20287109037941767 0.9738259251800893 1.6873970201360085
O 0.851234747119921 -2.3079525579944247 2.813993175491215
C 0.621792521801975 -1.6159362870540657 1.937666709163427
