8
## STRUCTURE-ID: 64566c6b9c18bd399841e57d ; CHARGE = -1; SPIN = 1
O -3.1876344557993086 0.9250014513162554 -1.5447646704994087
Rh 0.025702462449139287 -0.041497391525848484 0.1403537096721447
I -2.0432048944936407 -0.13579867399054177 1.6894996339766528
I -1.360164187373883 0.7182065001545517 -1.9253109923250131
O 2.4619725773965713 0.013937504722497662 -1.5879768098217677
C 1.5232453668729182 -0.0022768999699329415 -0.929378919734636
O 1.57607643690072 -0.9037393873293482 2.5465089193591433
C 1.00400669404748 -0.5738331033776339 1.6110691293728943
