18
## STRUCTURE-ID: 64567322f3d2a46291333bf7 ; CHARGE = -1; SPIN = 1
I -0.7646108578195997 -0.29153762114119935 0.6675699339129818
C -1.6462441962981433 0.8561485764812798 -0.7665714295949299
H -2.6401794896661723 0.6038057416421739 -1.0872192601822757
H -1.4460360577843965 3.8773103192941227 1.3193888651566719
H -1.0667469973962496 1.6140636497426433 -1.2638282214434773
O 1.435424389601362 -0.36607334531708 -1.6613729009697042
C -0.7679629005250609 3.2629289807389896 1.8960563502410868
H 2.2654719713295783 -1.7449317774201218 1.3662157631589709
H -1.1881072483997572 2.277530341758331 2.0735986332534986
H -0.4759509971858577 3.748643401968437 2.8178958938133256
H 2.050009586777922 -0.025423604267264085 -2.347840170160784
Rh 0.6758392486106908 -2.4123559455430468 0.18476734505408451
I 1.012553304940267 2.9861970581375417 0.7159776901137122
I -0.3676349702246572 -3.756570005607093 2.190263581307867
O -0.9907060011093192 -3.620204743737785 -1.9408906063643618
C -0.38501715454796615 -3.1304355213476533 -1.092532583616952
O 2.60226285178247 -2.2663794381082787 -1.7839077450034955
C 1.6976355179148699 -1.6127160672739937 -1.2875711386762911
