13
## STRUCTURE-ID: 64568899af9447416e75cc1a ; CHARGE = 0; SPIN = 1
I -0.5205355492867939 -0.8680046923751258 2.625449060139357
C -2.1142042545062973 0.6942908024841415 -0.4941203143525148
H -2.3391771876874503 0.7665119329369127 -1.5547318802591137
H -2.835352236932718 1.2191667119870426 0.12804429752805452
H -2.0218848682206954 -0.33892488763835726 -0.17476737524840025
H -0.8990535567412814 2.981222774032853 -0.8310696264812547
Rh 1.3413199142108585 -0.7177409802732075 0.7661085180650552
I -0.19760686788076423 1.6431198620724317 -0.1706613932266515
I 2.950660111793507 0.8408170710890833 2.187432103505782
O -0.11521335724422875 -2.8847153879466467 -0.6801047921027118
C 0.4172841761367759 -2.0151360698021854 -0.15681905873428958
O 3.61686114353713 -0.65409274789661 -1.1761386505992801
C 2.716902532821961 -0.666514388670341 -0.4686208882340196
