9
## STRUCTURE-ID: 64568bb937cc6063bc0b39cd ; CHARGE = 0; SPIN = 1
I -3.235802300859928 0.5541672960292097 0.4439809067322829
O 1.5602462797997736 1.290957204519735 -0.7564373455132616
H 2.029767563177585 1.9679671677733768 -0.20859044229212673
Rh -1.0955487667300552 -0.8027912571197164 0.8180472165984158
I 0.13901914657019052 -2.8766409440143557 1.6723964892238836
O -0.2215999322704683 -0.9447887486092778 -1.9462008077513349
C -0.15273835454596385 -0.4770268947917363 -0.8605746222813406
O 0.31123848446530533 0.6865682670565606 1.0155726071305433
C 0.6654178803935578 0.6015879091562047 -0.1781940018470645
