15
## STRUCTURE-ID: 6456b6f2370d2060322c50b4 ; CHARGE = -1; SPIN = 1
C -0.9273604590420131 0.3732014343651886 0.4761668231230792
O -1.8143415336768982 -0.5407295965486574 0.15394146549966164
I 0.518091147681864 -2.4963912275232047 0.3851814951736314
C -1.5767427816628055 -1.8943106928800608 0.45282505896370495
H -1.9106253181751776 -2.1186654309178734 1.4692342686459676
H -2.1148930425964405 -2.4858224972397602 -0.2870465071985224
O 0.9778318564135936 -0.28328023282464715 -1.9446865669150293
H 1.0342062880848115 -0.18637810427792753 -2.917906988277783
Rh 0.9424191631552833 0.6992205932523653 0.6970385915310076
I 1.3783878248631352 0.5681140221639244 3.2870759786286823
I 3.538532229139321 0.9670639185276378 0.15764708856573423
O 0.9033536395738788 1.9452486304730137 -1.8812616170583987
C 0.9652504182958451 0.8819808923869449 -1.2949635271276294
O -1.1095293871556664 2.86463415185509 0.6694049474048973
C -0.804580044898715 1.7061141391879542 0.5773494890409276
