21
## STRUCTURE-ID: 645676a33723aa24746dc171 ; CHARGE = -1; SPIN = 1
H -0.8198616955525712 3.627641785941753 -0.9486502922086074
I -1.2427075336399669 2.314177546831118 -0.16977147381546556
O -0.35787705805784226 0.07506041530833665 2.3702103095631903
C -1.518535186396963 -1.0867535521213239 -2.373987656944712
H -0.4586776689413669 -1.1533386495778728 -2.6163613851151535
H -2.0726291139414896 -1.6926205306514677 -3.0858854169879666
H -1.8264560466118538 -0.04995835907146093 -2.480726986175546
H -0.61426063140755 -0.6186075960650584 3.0078473516167876
O 1.8266592254501262 -2.1187098941653826 -0.2948776051562384
C -1.7739512051662967 -1.5704462035637408 -0.9548431504864858
H -1.4977670394992784 -2.618454179396129 -0.8421509090358739
H -1.1873564265594057 -0.9981930361228614 -0.234836659322041
H -2.8221603092412773 -1.4568066403736881 -0.6900963365000029
H 2.213769529479665 -2.6753134213193333 -0.9717985574449135
Rh 1.5570318971493022 1.579199524120369 1.0002848284669874
I 2.6210009907952765 2.796053909503907 -1.168601517706172
I 2.182144909429265 -0.18935683550750548 -0.7585894255608534
O 1.6973099515577208 -0.46772445944259466 3.035696448000888
C 0.9938764213933662 0.25178426199002174 2.3280129620996135
O 1.5523059221947697 3.32012657425811 3.424733765966043
C 1.5481410675663245 2.7322393394248055 2.4243917067464884
