9
## STRUCTURE-ID: 645688eaa61e4d05775c0b00 ; CHARGE = -2; SPIN = 1
O -0.771151472283101 -0.777973168364157 1.3065729843855651
H -0.5202479378781706 -1.2668978879090336 2.1149534038887228
Rh 0.07016785136246564 1.0524757931208413 -0.5225164314281572
I 1.840071280557542 2.5149339099402317 0.7329114117929187
I -1.4998986061694244 2.872449544381518 -1.6006967620610826
O -0.35793651095310003 -1.5977548636091352 -1.8856969273008668
C -0.3081257429139555 -0.5978432660622152 -1.214110667691083
O 1.2707263765341354 -1.4433798491983625 0.6569528163426231
C 0.2763947617436086 -0.7560102122996779 0.4116301720713776
