12
## STRUCTURE-ID: 645666836003f175a3662c6e ; CHARGE = 0; SPIN = 1
O -1.4221678550590322 -0.7016281212149147 -1.5230192324260592
C -1.3814958393347179 0.00467871213089939 -0.38215186457681855
H -0.046814779132767145 0.08383820786776447 1.2235799252253976
H -2.1416167759972216 -0.2571200786552744 0.3606506801961977
H -1.395139603579374 1.0704700479943117 -0.6293559208787942
H -1.6119720966877722 -1.6416077097614947 -1.3768687849113952
O -0.06543380171543463 -0.2955395153590536 0.3191612205745041
C 1.0869550399663543 0.16167808307215267 -0.42842857633318576
H 1.1228346848587292 1.2494516338227022 -0.47720942279982664
H 1.007862162798405 -0.25854655219311923 -1.4300586369748742
H 1.9759334931161487 -0.21800419856832523 0.0703268062949963
H 2.8710553707666833 0.8023294908643668 4.2733738066098494
