12
## STRUCTURE-ID: 645668ac1a08eb004c19eb6b ; CHARGE = 0; SPIN = 1
O -0.6066695662078744 0.19778461428293617 -2.684870157674401
C -0.9686497144176341 0.0030907643227597744 1.062343335363623
H -0.7853365863425191 -0.5603936026857455 1.983454211081634
H -1.9237785978168802 -0.2939129840880501 0.6356451265926599
H -0.9870712584933529 1.0731949178390452 1.2963030124140102
H -0.6387375609380502 -0.6984952335360898 -3.028288561954632
O 0.016678225614718923 -0.2850033097558798 0.09383424925706309
C 1.3193213472230876 0.05109246589698087 0.52082675499049
H 1.5898557748588031 -0.5084250749686876 1.4226487342549683
H 1.3988211937813937 1.1237105444524624 0.7290206774211722
H 1.9932065512381762 -0.21417766050655804 -0.29035265037546965
H -0.40763980849987097 0.11153455874682082 -1.7405647313711126
