13
## STRUCTURE-ID: 645689f3226f9e7a340b534d ; CHARGE = -1; SPIN = 1
C -1.6932796046829233 -0.2182408075184004 -0.10824101988599617
H -1.7466751406723169 -0.827568965521951 -1.008676442333904
H -2.19249883550367 0.7345656372224542 -0.2697885667565221
H -2.1581806823828824 -0.7535413840402185 0.7314664226417831
O 0.3742208903107848 -1.8910577516804092 -0.262570805733531
H 1.1999261535272079 -2.3625995511834277 -0.10485819161833487
Rh 0.28855194460828165 -0.0972176100408122 0.5928959589393092
I -0.4068201137543296 1.9134114496086414 2.1702885384244053
I 2.139882229652626 -0.9331306685141227 2.336370091197632
O -0.34210141956529827 2.0737935326652854 -1.4466785476737114
C 0.30330466154966645 1.2484415703048168 -0.86235199230859
O 2.67751451520775 0.4389492207123275 -1.0492951040176144
C 1.5561554017051051 0.6741953279858205 -0.7185603408749296
