4
## STRUCTURE-ID: 6456634461fd797b3e5b5c20 ; CHARGE = 0; SPIN = 1
H -0.4485477901360596 0.03132102831772029 -1.0106167481447277
I -1.7337843445171592 0.3667926532965288 1.0153791537626844
H 0.4264941409610285 -0.12877635668334672 -1.012419445290426
I 1.7558379936921902 -0.2693373249309023 1.0076570396724698
