12
## STRUCTURE-ID: 6456691e59482362212b66b8 ; CHARGE = 0; SPIN = 1
O -1.673229361471289 0.2269489982715995 -1.0800946103970845
C -2.113659173766011 0.011105883596478962 0.24231967463925413
H -1.6362480026316248 -0.8686078907631283 0.6851150959273731
H -3.2004616865207494 -0.10517079301482642 0.28881407236903417
H -1.8298797508276334 0.8922850581504113 0.8148966714500058
H -1.9410192919606895 -0.5255287828154478 -1.6211694102056518
O 3.067339377456541 -0.12907815628961 0.4826834754302378
C 1.721798543040728 -0.04907466635935089 0.06434130768056112
H 1.192285450213981 0.7673517124047148 0.5635064465512337
H 1.2541324083862604 -0.9925449752567326 0.3387424228596512
H 1.6415533435107 0.08383570260147997 -1.0180599506356611
H 3.51738814456979 0.6884779094744132 0.23890480433104178
