12
## STRUCTURE-ID: 64566a32d5c1ba5af03ae5ee ; CHARGE = 0; SPIN = 1
O -1.5252614419819779 -0.5622979496195137 -0.48221418837687385
C -2.070907557189998 0.4888081574305156 0.2782445387254805
H -2.080298923102499 1.4280360349357093 -0.2845138021959055
H -1.5169638566462285 0.638964127752779 1.211052318248292
H -3.0961866648584904 0.20916079616356922 0.5185260892664085
H -0.6042707072006831 -0.3288877836250494 -0.7041441414123131
O 1.2192571590944363 0.02504908652088186 -0.9302587350572341
C 1.8959499144717302 -0.2985126843917799 0.26926283713341304
H 1.5047495522685834 0.36540677678102257 1.0379595902226406
H 2.9718341711411753 -0.13628263518710954 0.174820171326296
H 1.7072517766235513 -1.3347889368700012 0.5626424650294382
H 1.5948465773804055 -0.49465498989102424 -1.6513771429096469
