19
## STRUCTURE-ID: 64567a32b4610644dc29341d ; CHARGE = 0; SPIN = 1
H -1.7447022548423428 2.2080077944764622 0.7727952896460286
I -1.642117360768126 0.7221540415920403 0.24294387076272245
C -3.814225427961406 0.6761026812613194 -0.011417351118217383
H -4.094593191204186 -0.3301535839638542 -0.3010421823624525
H -4.282334635164615 0.9296001680813472 0.9326322576562552
H -4.096565757687046 1.3756695749729493 -0.789664206655781
O 0.6108124663263168 1.308279734816554 0.7040907740717229
C 0.1649169693744347 -1.144823127411078 -2.3655198723407698
H 0.6473975973168974 -1.6683746561350856 -3.181959691665843
H 0.574105121031433 -0.1463752192642852 -2.262604555934742
H -0.911952347448143 -1.127740336321993 -2.484742456280568
H 0.850397170341039 2.0246406752645685 0.10222610112797449
Rh 2.2770291265446403 -0.015709692331847405 1.0110721979138588
I 3.383688788630162 0.8726563826524396 -1.1908239631828776
I 0.6072650920322357 -2.232039337315085 -0.5400528079036656
O 1.2431263016430882 -0.6010746840296043 3.756436169462185
C 1.6239223002030447 -0.38569576904903125 2.6941788744063784
O 4.798865008572545 -1.5035779872110886 1.5585975962607448
C 3.804965033060122 -0.9615466600846367 1.3528539561370827
