12
## STRUCTURE-ID: 64566a25524d8f776964e489 ; CHARGE = 0; SPIN = 1
O -1.7619635745595938 1.1483241293667494 0.2371447207856304
C -1.1681213735204605 0.2565400219534796 -0.5851268093625622
H -0.9549604312098521 0.6965785125447843 -1.5534532541013315
H -1.5927810388107582 -0.7407730862545318 -0.6379460727986753
H 0.027550341884736967 0.015052837719992513 -0.1262045738527756
H -2.1629503836510566 0.7181765048529749 1.0077405208492116
O 0.9981837242153678 -1.5327670404013116 -0.6982407392304346
C 1.0370075163836265 0.258851694956391 0.6082530550807501
H 1.1990813257699864 -0.49748445639148386 1.3584672385518997
H 0.6023565379979727 1.1686880913019548 1.0292730557475476
H 1.922063435685722 0.47086246637170964 0.032041003607001614
H 1.8545339198143314 -1.9620496760207058 -0.6719481452762646
