18
## STRUCTURE-ID: 6456715fcd33b45dad6a6038 ; CHARGE = -1; SPIN = 1
I -3.189152989378439 1.9151730366862552 1.7610429736981053
C -3.0067006360478423 0.376137354725576 0.29707591910468745
H -2.0745114013325123 0.5221305674695702 -0.23746767421212187
H -3.8482205530030726 0.45386371296680666 -0.37757648633617447
H -3.002723241978831 -0.5787337046380154 0.8060955500711152
O -0.018581140062680176 0.7207085178685461 -1.038468128133813
C 0.45728382631764364 0.5254264238045387 2.178003334524871
H 0.01844373159567988 -0.31730203539578755 2.6972650318974605
H -0.07514664488239317 0.7319257724788878 1.2559908710245131
H 0.5136321690751012 1.4032722190691589 2.8081824715244674
H 0.15912767986477672 1.5531161669273363 -1.4814793351534699
Rh 1.3378101865351755 -0.836467194231519 -1.2926637651959119
I -0.37091150981350374 -2.4774088508747747 -0.16270888699125155
I 2.458048757709559 -0.026592768853703534 1.601011554506834
O 2.7719977985156468 1.121919368867413 -3.028249033650599
C 2.283760767557136 0.3263929925195305 -2.3471867478505444
O 3.131506580076552 -3.1600722581075686 -1.8369676073020607
C 2.4543366192520044 -2.253489321282247 -1.6019000415261473
