8
## STRUCTURE-ID: 645663ad1d5c1a13191d80b0 ; CHARGE = 0; SPIN = 1
H -0.7909986114144972 -0.0644213019830468 0.07927092153038665
I -1.7963239211912068 -0.12810100074981923 1.9437801479873031
O 0.6165681137330163 0.0589517141229863 1.024869507448891
C 0.008208917900775147 -0.006591494764982421 -0.8331348148001484
H 1.090765935562539 0.06728226867838995 -0.9207651199870421
H -0.4048153354505214 0.8917382222653373 -1.2894862484504
H -0.2753143388794565 -0.9572517820403206 -1.2832572007848189
H 1.5519092397393468 0.13839337447147956 1.2787228070558303
