18
## STRUCTURE-ID: 6456b71be0e41762a30b39db ; CHARGE = 0; SPIN = 1
C -1.5357071481447326 -1.452829560918 -1.7082333722294383
O -2.41498610249508 -1.84250874504362 -2.3268730680707512
H -0.6217143423393946 1.17807546036886 1.7660028990458967
I -0.8291542047372291 1.618978579298171 0.26079391963450776
O 1.7111474354750968 0.21436054550037364 1.2382369599127159
C -1.467797064386031 3.599273354275832 1.1029483226889898
H -2.3387079715228563 3.418802555419214 1.7241476206789972
H -1.7118616738541783 4.235547964338056 0.2594134412626171
H -0.6302764819914942 3.9967342735074487 1.665669807583496
H 2.5166137388067322 0.22726472785400004 1.7919782251132044
H 0.11885641752209403 -5.053782847720844 -1.8441644042410743
Rh -0.006696473032013814 -1.0820599724857891 -0.6609099139231696
I 1.2481381472374298 -4.1552086688610315 -1.1928645592434939
I -1.2978958223263937 -1.9394993087129366 1.4755281049327935
O 2.5358056474077557 -1.723443684353962 0.5317906221080321
C 1.6258632988913084 -0.9025369932993565 0.47091200366258473
O 1.9525397764518275 0.033233204289003865 -2.6320589853274083
C 1.1458328230371408 -0.37040088345540534 -1.922317623588509
