12
## STRUCTURE-ID: 64568843da612d0b2b4b6a5d ; CHARGE = -1; SPIN = 1
Rh -0.6112732613623344 0.4756872306703933 0.007696696468904048
I -0.014901104772608215 2.8096849154396732 1.3263389985448852
I -3.336981908619472 0.7125233231952758 0.20595759945767858
O -0.8396305912308257 -0.4065772379473559 2.8552038068628773
C -0.7111369238610884 -0.10339183589431024 1.7624486802285735
O -0.40136577868421275 -2.159703650617771 -1.3899517589722292
C -0.37707369735386675 -1.1472951931016846 -0.8437545594820676
I -0.5298652783482847 1.5464201275459681 -2.4597088977164723
C 1.4185626159437275 -0.40687562154739104 -0.35724644551143325
H 1.7142006347425345 -1.2515034247088712 0.2640852525152105
H 1.9328972474662451 0.49176544043164944 0.010601649143159057
H 1.7565680460801907 -0.5607340734655719 -1.3816710215390846
