19
## STRUCTURE-ID: 64567a1318ba31546675cc34 ; CHARGE = 0; SPIN = 1
H -4.4196063675303146 -2.241500136354708 -6.287599382443884
I -4.5531833144165414 -0.762284642136308 -5.776285128488325
C -1.5436089127323358 -0.9901043850964034 -1.9118703967504769
H -2.3380944984634535 -1.6931683565185698 -1.6999748165931479
H -0.8084408846426183 -1.4559810381772536 -2.554789594422948
H -1.954684593274459 -0.11802096439845874 -2.4033316843068335
O -0.8897149359834207 2.5706831378496173 -0.19563278326367473
C 0.8757193560115923 0.7454861758680593 1.2385692677916775
H -1.0738082651865968 -0.6906494326359938 -0.9841337012110987
H -0.13742669912765862 0.34026295606873413 1.356322280201737
H 1.1644769273701272 0.5555171656401264 0.19590030081737572
H -1.181513571994342 3.402185866337177 -0.577181461646814
Rh 2.2808889133793193 0.16927054924778318 2.663788882716439
I 2.6345537134195167 2.6891774436842177 3.3124008524432083
I 0.4889844964899126 2.8595480212004545 1.2108570337980495
O 1.6578328586927145 -2.6054840818935205 1.7612431244542803
C 1.9058540463970461 -1.5468665387342986 2.11184186692219
O 4.337060692323482 -0.8051653383766073 4.636851924382318
C 3.554711039268051 -0.42290640157403325 3.9030234156002463
