20
## STRUCTURE-ID: 645679a492282a67c646227e ; CHARGE = 0; SPIN = 1
H -2.6529088071155313 0.7461100760865477 1.086279722457235
I -1.0258771021333368 -0.4996600198306782 -0.9402678094205458
O -3.14092540494052 1.2113820121616619 0.3660107249929957
C -3.1166170740588415 0.425868796901064 -0.8568038460220847
H -3.8439012322764907 -0.3841731614486918 -0.8335872358729007
H -3.301428429746348 1.1076685896552774 -1.6840246239536432
H -4.065937127685696 1.4125115717072196 0.6450396615258754
O 1.044181960215947 -1.0812376630031468 -0.876164707441819
C -0.40171055770815217 1.515483056670655 -1.1883117895401973
H -0.72561718430384 2.090794826411772 -0.3289137234195127
H 0.6787094810136735 1.4952565008089473 -1.2302894922082748
H -0.8153192664857289 1.8780308282818863 -2.120132012481525
H 1.2760861278340572 -1.5740223633983492 -1.6619330013929647
Rh 2.577343372650075 -0.818365356342284 1.1883051548049088
I 0.4806713790776944 0.2813697214488346 2.2758339201080875
I 3.481111282795417 1.457680336434955 0.2014061369768507
O 5.283597522845992 -1.9568220495596267 0.625355913737943
C 4.224500647756638 -1.5230752140126256 0.8102065041851124
O 1.9122346954610085 -3.3993994076986356 2.5176438647061725
C 2.1318057168039966 -2.3854010812747988 2.004346638258262
