39
## STRUCTURE-ID: 6456fa209be4080b136aac54 ; CHARGE = -3; SPIN = 1
I -0.4235871189605899 -2.2513283430347113 -0.7750271428941355
C -4.133373079306752 -1.5826413856867891 -2.3534892510876193
H -4.910576504869836 -2.3376896430062555 -2.413060918181327
H -4.18487378874175 -0.8976513384752796 -3.190590914880515
H -3.1562789765802832 -2.050057572574711 -2.2916145976202937
O -2.661512159143961 0.42021801650867757 -0.8671359217256444
C -4.516283205822951 1.1114949540369399 1.024503199381913
H -4.235100850782313 2.0309933110059677 0.5292950766047719
H -3.7867297327885048 0.859936234363355 1.7852085067848513
H -5.51299903681914 1.1716408562270924 1.444073768829266
H -2.445464905504697 0.23588570736127937 -1.7801952639549974
Rh -2.472236976429344 -2.0320134029362134 1.0272558619399406
I -3.659101771678909 -4.1842365093207645 0.2370981731647611
I -4.607874366680819 -0.4890033808619946 -0.49067662408455975
O -1.0931465705889183 0.5063099922452082 1.8028565747174523
C -1.6392103051736053 -0.4815218246241899 1.545021101852004
O -4.181466691716464 -2.038941366989303 3.4676286481617398
C -3.55567599013235 -2.0405423304257186 2.5104083470731267
O 2.9783172838079386 3.8199100396393035 -0.9431246052357113
C 0.48853303619486355 1.454372944263467 -0.6427301401453128
H 0.5661033808478082 2.528324962275975 -0.7718138627863291
H -0.5500918856782059 1.1643331403666017 -0.5177090247517964
H 0.9085634000846962 0.953296983560061 -1.5144092666255529
H 3.055466043995777 4.314438912645336 -0.10959385310113727
Rh 1.9906473651525605 -1.735287964215059 0.7112321645773388
I 0.7482047032911501 -2.4565585899053737 2.9899294050945073
I 1.6742241313708712 0.8664456085859689 1.0097879884610874
O 2.550208012239649 -0.9028268905084875 -1.9499579063155212
C 3.0063823636706917 -1.0377622283666557 -0.8093075791979024
O 4.0173494366191775 -3.8459941204914334 0.13364556480089357
C 3.197903488615773 -3.1062856015075626 0.5195538310384312
O 4.303573647898645 -0.6062096434235125 -0.5987456676298937
H 4.654026788916485 -0.22231179010103538 -1.4269962549701993
Rh 4.043246010710806 1.7990946770011658 0.8662459264443113
I 3.935802455892364 0.7047751747278129 3.277794060902369
O 3.6646039595698294 1.9690435113550668 -1.9396813754933429
C 3.591940978161513 2.569430714779844 -0.8714756452541944
O 6.685627899077671 3.1685405612751083 0.6025602019579391
C 5.664859531280901 2.650377624230631 0.7732374141494267
