13
## STRUCTURE-ID: 645673ddf786794b006cdb45 ; CHARGE = -1; SPIN = 1
I -1.3364475844785522 -0.7041573400460873 1.088004984987429
C -2.7620425981850483 0.12272220387564925 -0.3332558306410456
H -2.271246969012012 0.9366296230860338 -0.8562831660616574
H -3.6154991544502 0.47253499529447457 0.23422189601775464
H -3.0275037327001386 -0.6717966669161962 -1.021257924945533
O 1.5626374187805867 -1.2541365558614035 -1.3603116657002017
Rh 1.480609779402717 0.19481464274219232 0.1801255244147067
I 0.5395055190453473 2.016306127351357 -1.4419455809954371
I -0.027482523052538566 -1.722499097628711 -2.3906315658952293
O 3.250594051180748 -1.9883792947987413 1.1848586575291535
C 2.5664340851019296 -1.09708037205849 0.9285538384883962
O 1.9176071326343316 2.2507353274387416 2.294754283059871
C 1.722834575732841 1.4443064075211873 1.493166549741775
