16
## STRUCTURE-ID: 64568e2f4fe1e601ee7ffa83 ; CHARGE = -1; SPIN = 1
H -3.0295037464051675 2.2176508749913637 2.0698870517032186
I -2.135637287755144 0.842885484139936 1.953928152792134
O -0.7793975197416766 -1.266427324848941 1.6411617399879972
C -1.2860348635157473 1.5450133201054148 0.13835680971127476
H -0.15460320257880264 -2.151960511033628 -0.7735992795115254
H -0.22590076741397544 1.7481638396805288 0.35482124265968173
H -1.3405326602770835 0.6988678972270059 -0.568914771558966
H -1.3780608488526456 -2.0156233214430226 1.5849554075359162
O 0.23553446654736207 -0.2762266921914452 -2.5884890413426116
H 0.3812710946791522 0.32894168244491273 -3.348718050944139
Rh 0.7358431684336912 -1.1424302608356516 0.023556098345664002
I 2.9236658166254488 -2.25113892506894 -0.9149789102545337
O 1.9349917163119572 0.5664883026381436 2.168749013876688
C 1.6105136240428337 -0.015659764475270798 1.2329966957080005
O 1.5981393542928373 1.0824050191688062 -1.4594816703848583
C 0.9097116556069887 0.08905037950081231 -1.5142304883239048
