18
## STRUCTURE-ID: 645672e4db24f617f156edee ; CHARGE = -1; SPIN = 1
I -1.651141247940896 -0.84604394360591 -0.3934189322004677
C -3.793274644882735 -2.1294308624727543 -3.5779470213998112
H -3.0367712864905263 -2.368617836121573 -4.312766604481534
H -4.545591017116953 -1.4929317941162221 -4.023591135549953
H -4.2513251877826 -3.040400936905327 -3.217818372132846
O 0.7751216320310276 2.1884682782827416 2.1322793738478536
C -0.5957975809905068 -0.3982786275388845 1.3807218603755775
H -3.327217242453357 -1.6111090029947333 -2.7432102095750057
H -0.4209804107869046 0.6746880313547774 1.4374384303554957
H -1.1816238932579586 -0.7542042820880648 2.2194486370963187
H 0.6967605495202678 2.412801702281618 3.0648762899500417
Rh 2.6607939950023907 1.5118329841292477 1.6255962160756838
I 1.3251676653211695 -1.3628170749087964 1.4617831981537046
I 3.305133098691008 1.2767488919383718 4.163280578618038
O 5.436010473978675 0.6798417499524843 0.9010364275947742
C 4.3544383412455 0.984087750777446 1.1688589666008293
O 1.996008986143639 2.2963713693001266 -1.1820873293756093
C 2.254287769768744 1.978993602735442 -0.1044803739531009
