21
## STRUCTURE-ID: 64567977260580669e230d7c ; CHARGE = -1; SPIN = 1
H -0.08206097788601095 0.3821405324814762 3.3128832266538826
I -0.6207884659765599 1.4457202166817744 2.1405195977513283
O -1.3017729984508783 2.5444262569845284 0.2144405209730093
C -0.6702654473571124 -0.14338845937072764 0.7236892378591092
H -0.6949875401453924 0.64178654552009 -0.1913148436937625
H -0.7395136894325854 -1.274969643312494 -2.0726679987119754
H -1.7295288271312839 -0.4600752640981556 0.7733304513691283
H -1.6311260351204262 3.426670406638301 0.3824271257149109
O 1.6893620234492532 1.7370568408681886 0.22304961434244683
C 0.5860582667740312 -3.3281321661061525 0.8538955915709144
H 0.18957121594898632 -2.5716566655773927 0.18132623069386067
H 0.2492871402476201 -4.315069810142255 0.5666046897510266
H 1.6662406440532738 -3.2763092331306334 0.8883189201177302
H 2.253755480797989 2.5356321411220764 0.3067088006139155
Rh -0.032886488966573285 0.036109196590094 -1.4391595556580188
I -0.16708641248489894 -2.9053830313140905 2.8008528049035633
I 2.3487272983723164 -0.995967487381601 -1.8406917491524821
O -2.216053458424752 1.513196502626759 -2.7883751174899003
C -1.391203570405011 0.9114982014908161 -2.257171998098258
O 1.2148580235994475 2.461351211473865 -1.8333598397441946
C 1.079413818538539 1.6353637079555643 -0.9453057097662364
