23
## STRUCTURE-ID: 6456b956b9a3b1486112b087 ; CHARGE = -1; SPIN = 1
C -1.2335152063726316 -1.2090453081385657 0.07258483521044651
O -2.0379445399305456 -1.0152566475360494 -0.8076889485951775
H -1.5633419649194091 1.6928314389161983 -0.5164525329230386
I -0.3544301262340144 1.8534154382148271 0.6431018190811724
O -2.170271612757856 1.4359139903972766 1.5420455755071476
C 0.35454988127529363 1.9105261775378233 2.724529050320494
H -0.20406119647599713 2.6477469744728594 3.2876477115579554
H 1.4036124291062413 2.1819728275929573 2.6743209870463533
H 0.2437916716248866 0.9228926715914317 3.1710829366686446
H -2.2136473196889837 1.5546505086718367 2.4891197863636343
O 1.646051737399758 -1.1524868537507034 -4.0801435274925
C 0.1317956054949738 0.6591059983519594 -2.667756902962863
H 0.3393272573696391 0.7065660167444618 -3.730778459024076
H 0.4858125140769604 1.5387527127872973 -2.134251979977481
H -0.9153747670308198 0.46250584140566064 -2.4703099618621986
H 2.4565419281125607 -1.642108633063273 -4.246665284300558
Rh 0.5929488373626846 -0.6155279223827449 0.5520775504142664
I 3.075150141377889 -0.2113366104812317 1.2040668225867277
I 1.232452238133481 -1.0260821049414555 -1.96601023489007
O 0.8950016693481965 -3.5827153612693166 0.25757642252861884
C 0.35143537309064155 -2.5923696934980387 0.6754874089865712
O -1.5298925117942388 -2.3156918503080255 2.22936282844326
C -0.9859920385686936 -2.2042596113151576 1.0970540973126761
