12
## STRUCTURE-ID: 645669a2e94f032c05530d68 ; CHARGE = 0; SPIN = 1
O -1.2669926177397848 0.18385469364505141 -0.8420861983330629
C -1.7737084156012508 0.3721388972728644 0.46433081996757564
H -1.003809887679143 0.898110494739708 1.0256961433092455
H -1.981796877139689 -0.5841602487490186 0.9522974179614936
H -2.6814980082488793 0.979815411579458 0.4539540492768483
H -1.9442156173888856 -0.24054142785628094 -1.382457832777913
O 1.3770638929455843 -0.9201490816430592 -0.8818048322438854
C 2.054515662616531 -0.172648385427745 0.10006642325594756
H 2.100201518205263 0.8884911656729078 -0.1646793311670981
H 3.0681692554839044 -0.5671551901256955 0.15797994257943068
H 1.5775137777637145 -0.27559698613774547 1.0803319702105891
H 0.47455731678264035 -0.5621593429704435 -0.9636285720391743
