12
## STRUCTURE-ID: 645667a5429c11314919eb6e ; CHARGE = 0; SPIN = 1
O -2.2682188792962887 0.12391310313390862 -1.7083063282798432
C -1.0824440331494012 -0.13061613471466044 -1.0198234104196902
H -0.9350629081881368 0.7320238776218153 -0.3559495669139446
H 0.47853167154047427 0.3018894276050507 2.0576298580163064
H -1.1533240034510792 -1.046009358827941 -0.41635215337680287
H -2.4814669482562732 -0.6284634048169803 -2.277439559325427
O 0.008585907072153395 -0.3206422050060572 -1.8652564578740591
C 1.5497540950231312 0.15697659541871192 2.0051241927262082
H 2.0158479288997038 1.049808966843323 1.6096716221077771
H 1.766953594407306 -0.6793827706287732 1.353635642318778
H 1.9362806020151069 -0.04336796091487252 2.9958549805273686
H 0.1645629733833167 0.4838698642864754 -2.3787888195066778
