15
## STRUCTURE-ID: 6456b6b715ab360fae4b65fe ; CHARGE = -1; SPIN = 1
C -2.858893947033989 0.9548139359773614 -0.5548696340080627
O -3.7312405837004903 1.6485417114091612 -0.777250370096725
I -0.8697205942614795 1.315573039637788 -2.907580359212823
O 1.4411896239636965 -1.8081312504259912 -0.01781427308128274
C -1.3896791964367325 -1.0656947421757716 1.9981257648786275
H -1.6505326813678398 -1.9084152732599198 2.6068563754297513
H -1.4021333589336606 -0.06551179603644218 2.3881092521479945
H 1.6109342170545249 -2.7447915479099683 0.11204143804497711
Rh 0.7626097653937003 1.024636532972824 -0.8318669060403062
I -0.6410876538323736 2.5647834029492342 0.7931747129889853
I -0.6977815853264026 -1.3888203562692254 0.16987387964749565
O 2.5715765367363437 -0.46241398363311687 -2.682283022877639
C 1.8709436075397292 0.10897603291755942 -1.971253136011546
O 2.9140601860113486 0.8767772262085739 1.226158195478027
C 2.069755664193629 0.9496770676379236 0.4485780827124875
