12
## STRUCTURE-ID: 64568824a9338267e14609dd ; CHARGE = -1; SPIN = 1
Rh -0.5473385091742047 0.5110702119923572 0.20141202221239204
I -0.7440578669128445 2.033512714581948 -2.009072503528639
I -3.1643433430668098 0.9100321752922571 0.9213764091513685
O -0.4102739028314416 -0.8954547235070764 2.835999039209834
C -0.42776560436579 -0.39262701328769756 1.8116227688262778
O -0.8504609095033042 -1.8002113707351568 -1.6720196183164981
C -0.6293018042896541 -0.9235592150914245 -0.9603492699135626
I 0.5011153532313509 2.4898440127805923 1.790559651419079
C 1.290464021435591 -0.43794246262141945 -0.6670980867560793
H 1.9522645893575021 0.32368950751258097 -0.23192932397925095
H 1.4469213443595312 -0.406703365741506 -1.7450066009041425
H 1.582776631760081 -1.4116504711754536 -0.27549448742077115
