12
## STRUCTURE-ID: 64566969ee238f5eae374198 ; CHARGE = 0; SPIN = 1
O -1.4378757935944013 -0.4801782746045901 0.20155072077320269
C -1.1821455384764288 0.12363221277110413 1.4542022725464598
H -0.6605489286288379 -0.5626037959227495 2.127267625415201
H -2.1067683088417204 0.4638200103642315 1.926875929826214
H -0.5460118596036725 0.9859222020916892 1.263215380306407
H -2.0317099248893875 -1.2295362823755374 0.33133289352808876
O 0.9184771936745857 -0.874704526639943 -1.3819164117670988
C 1.5982571370408523 0.3530075527749805 -1.269010244711031
H 1.837934787243297 0.5834588488204262 -0.2253072332570798
H 1.012021829530525 1.1756297962986746 -1.6909128608024897
H 2.527224997963012 0.25659833313936126 -1.8299627543188262
H 0.07114440858218976 -0.7950460767176566 -0.9073353175390425
