13
## STRUCTURE-ID: 64568b40e5793253d5763444 ; CHARGE = -1; SPIN = 1
I -2.0620311917677676 -1.9025357843113748 2.7596980947027907
O 1.0788770151789893 1.1902777183847333 -2.482026557902
C -1.0599058228756153 -1.043599727166539 1.0716737407381085
H -1.804197340785193 -0.5084963120006898 0.48186003399615174
H -0.661469320704587 -1.8645300062149237 0.4747906499143511
H 0.8156085181416871 1.0636930726571112 -3.417070020558877
Rh 0.9824012191039766 0.828628915119637 0.1588487584954808
I -0.41646360592590015 2.986048639633415 0.3745463181507699
I 2.884056304753239 -0.9005051552522901 -0.06665816163006495
O -0.5626709200149363 -0.24772462482961835 -1.89537219961247
C 0.3533022122372346 0.4907844474869144 -1.62574138772017
O 0.4168837971016323 0.050884756389599335 2.6452280256947
C 0.03560913555723614 -0.14292593989597774 1.5202227057312248
