17
## STRUCTURE-ID: 64567278f21132714d1aaa0d ; CHARGE = 0; SPIN = 1
C -1.9602972972106367 -0.5112810581297111 -1.2415581726282539
H -2.5338193843777503 0.09031885016748063 -0.5344305308507904
H -2.1594611259900547 -0.12527992644753425 -2.2420486731007756
H -2.3289788947764714 -1.5432199092843084 -1.1907589550185487
O 0.11623645913501476 1.9204437346253076 0.21610478484981258
C 1.091305875226908 -0.4916786949489758 3.1124087123223867
H 1.571973799616156 0.4181714715425821 2.7705252549525685
H 1.7500885337291063 -1.3451843202460825 2.9937031559176246
H 0.7306271170738049 -0.3996199308379677 4.130625114947661
H 0.19324139028217055 2.8991632421044264 0.22517449114214294
Rh 0.06850225827058362 -0.5767864025782432 -0.7384783131074115
I -0.642527869148664 -0.8103015838592171 1.8472871385058474
I 2.6758961908731824 -0.9158663625694917 -0.21943938885750203
O 0.6591482319506192 -1.084331735921295 -3.604895861564641
C 0.41810770285631244 -0.8546771007547334 -2.5152659025077853
O 0.21883970469364986 1.9508220613583562 -2.0294330140709205
C 0.13111730779604422 1.379307665779365 -0.9795198409314396
