19
## STRUCTURE-ID: 64567abc5c6b476cf873b9f1 ; CHARGE = 0; SPIN = 1
H -6.361690127054176 -0.5451227494936515 -0.7610583608035637
I -5.439703692111568 -1.4966977041841885 0.08067416048193317
C -1.717309807587142 -0.5625526119342068 -0.330678861152291
H -2.010882031005625 -0.2050533252611802 0.6570442445589579
H -1.8748204453942792 -1.6383687328811254 -0.3930601354561437
H -2.311974785427604 -0.06257545100856277 -1.0937924248728592
O 0.32239719727857824 0.9181301031440541 1.1389876732510862
C 3.4013460238917643 1.2109358713985319 1.446401252794958
H 2.3738046523723813 1.2051058064689608 1.804831570582417
H 3.823173506792036 2.2085059630603476 1.4543848923104814
H 4.022168677558057 0.5084576784691572 1.9884595589244043
H -0.14332034135687222 1.7613596451414895 1.1063224919621402
Rh 0.31295958858374273 -0.06882180213041471 -0.6088580803344893
I 3.3136157708143306 0.5623103904523002 -0.6103068214109141
I -0.2504271636385894 2.1416556170724865 -1.959758888060146
O 0.3898208004263223 -1.2766329971176946 -3.362937778760039
C 0.3563199999628147 -0.8850986511493573 -2.295895251255547
O 1.046400353684298 -2.270315114508323 1.2596975608987517
C 0.7481218222115689 -1.5052219355386338 0.4795431963409204
