19
## STRUCTURE-ID: 64568d9d4f86c304dd5a8514 ; CHARGE = -1; SPIN = 1
O -1.1360674753994984 2.305937144056521 1.006853323945898
C -1.2717570785081016 0.07049835323430236 -1.705541487545129
H -0.936559140300779 -0.20859477836435572 -2.709601904542182
H -1.9207075135343845 -0.7305484371749059 -1.341671276538625
H -1.8791607685448504 0.9742122488528411 -1.8087165042081825
H -1.4183449329350883 3.2306959823729007 1.161749479237545
O 0.9545621061833526 -1.7471433568332309 -0.6326058196538469
C 0.3773043185541611 -2.2468284141460755 2.4205494398703387
H 1.024102928906991 -1.7691143860334646 3.1479693427362276
H 0.9350160550512484 -2.539610984459394 1.5358742468196644
H -0.17755394889651813 -3.0734159258356675 2.8460801807859224
H 0.6551298211947094 -2.1479798700460866 -1.4509046986220666
Rh 0.3443252347916253 0.3442511302343705 -0.3739823616296336
I 2.426111303145683 0.8248329545891061 1.319691782997765
I -1.0432925541574583 -0.7642370197044037 1.7295015819678343
O 2.0530125620767623 1.1920905377503284 -2.627911342228995
C 1.3625351803479226 0.8906593074229222 -1.7597752727994311
O -0.039535101264249306 3.1971129358705603 -0.7035603499582842
C -0.30912099671149573 2.197182578213733 -0.053998360634684654
