19
## STRUCTURE-ID: 64568dbc3265a614bc7ccc0a ; CHARGE = -1; SPIN = 1
O -0.7634279597298674 2.5488425313160366 -0.03709293548703374
C -1.436637454144763 -0.2211910085267253 -1.4066175929671754
H -1.2046306333843217 0.02253505975482564 -2.4470412970593043
H -1.7167283024144673 -1.2770996243090864 -1.3707526349922246
H -2.3006307845929777 0.3794517816187194 -1.0961896256147716
H -1.003765124930905 3.3635371654223176 0.45073970727467016
O 0.9716698293959944 -1.5221953260541847 -0.6763780721190676
C 0.3214702865912891 -2.5321229636732823 2.401177864162651
H 0.9165794728411313 -2.0671913947796945 3.178647558535864
H 0.8801429463916481 -2.600830222788742 1.4738594185422984
H -0.07304055770475888 -3.4920992144547642 2.7073193646255906
H 1.0851229492520817 -1.5254751768384798 -1.6298444288980767
Rh 0.0874931936103613 0.1830218769869659 -0.06321750371224984
I 1.9478670703567547 0.8949980669942011 1.7862542290120222
I -1.3464487807911618 -1.2293516061929166 1.9919598944347434
O 1.4488222566507538 1.2886558597431113 -2.3918727917140323
C 0.8056398511154302 1.3719510475246584 -1.3674044506921816
O 1.0019388174760249 3.7257523698065746 -0.7653721611488303
C 0.3785629240117687 2.688810778450466 -0.7381745421829495
