17
## STRUCTURE-ID: 6456b7a9d7d37d4ab040f1f5 ; CHARGE = 1; SPIN = 1
C -3.2968709636384665 0.014149699833398347 -1.324740181070426
O -3.8635654975952325 0.7347214115169454 -1.9649928111071622
H -2.3984635331671846 -1.1224929645943715 -0.5071853461390845
I 1.0366236186431022 -1.6803384237772432 1.1175183079860358
O -1.7448447462169527 -1.7976511538323199 -0.018620481258755713
C -1.1789884264839405 -1.325056278803948 1.1781707351857778
H -1.303082462439053 -0.24428408872420115 1.248797081846753
H -1.5287883466468055 -1.8489793579338714 2.0677415033761894
H -2.055049896657802 -2.727062803880563 0.03531937630324398
H -0.7292335624581157 2.613125037290255 1.1966254602296733
Rh 1.9928042979782223 1.015877035213853 -0.2130027257108493
I 0.7394288693982739 2.3636502347516775 1.7865220256368664
I -0.160398978184802 0.9629070518333707 -1.6864816943078376
O 3.306374587414274 0.1916158597561729 -2.7623408059875767
C 2.8172740291627103 0.4903297905241015 -1.7712558417002706
O 4.714593574663987 1.214233035594491 1.0222443602407691
C 3.652187436227793 1.1452559152322848 0.5956810364766875
