12
## STRUCTURE-ID: 64566ad483844e2581399e4e ; CHARGE = 0; SPIN = 1
O -2.381975692632872 -0.5376448570046775 0.6603269101313376
C -1.7657633504610786 0.6972238752080905 0.36206160896690526
H -2.2363414161267388 1.1801562873996596 -0.49978001968308006
H 1.2603639852868413 0.24187593888552492 -2.4208332675689714
H -1.8968499290302105 1.330482510197415 1.2379016186191272
H -2.263119627538244 -1.1289521885802305 -0.09243618049752884
O 1.4843311097950007 -0.29337928654161133 0.06605892970814271
C 2.197971209508082 -0.6786046307632642 0.948722544731516
H 2.7819181417541223 0.012076906055292925 1.5737351309673544
H 2.3114866808887666 -1.7455175663126457 1.188281373440207
H -0.6969664602395147 0.5732936912122575 0.16572299338926574
H 1.2049453487958468 0.3489893202441791 -3.189761642204285
