13
## STRUCTURE-ID: 64566e0c868c1d01e05c71bb ; CHARGE = 0; SPIN = 1
Rh -1.609070051041887 -1.5959406024411864 -0.3324003256152511
I -0.33498358666604205 -0.20294919676668488 -2.099609142686646
I -0.4627216455521934 -0.3875721715199428 1.6270167060234595
O -3.149771461213932 -3.258847089068266 1.6087469864083006
C -2.5454206762390865 -2.608638966961527 0.8723804655857562
O -2.9342346170565636 -3.046191354744708 -2.580939578764131
C -2.4255759124421385 -2.4837042671703164 -1.7134728782108772
H 1.2514309750384105 1.7836540223692008 2.3038643313422384
I 2.428177954525128 2.7950625125782484 1.9283181945455337
C 2.4440598349481757 2.307729587389432 -0.1753145825828796
H 3.3798589592893307 2.6826557626596137 -0.5793730820438433
H 2.3772822169217833 1.225247302722684 -0.23461487522470054
H 1.580968009489007 2.789494460953449 -0.6246022187769454
