12
## STRUCTURE-ID: 6456670111e040306a1aaa18 ; CHARGE = 0; SPIN = 1
O -1.0220827437879434 0.4664339119501656 -1.4940109049226076
C -1.8456051589563252 -0.44863633381125584 -0.811172179272868
H -2.644328054178263 -0.7317594614932933 -1.49588505942397
H -2.287469353196968 0.0002421368058937223 0.0842708145096611
H -1.2912861757374665 -1.3482709245053732 -0.5227773127100307
H -0.3148504620485234 0.7485087222267145 -0.8853495998872577
O 1.0522827927078846 1.0480533082453136 0.38266053777532344
C 1.555652950194497 -0.10233137374500478 1.0324949104510222
H 0.693594570230451 -0.6671784777383768 1.382663380047132
H 2.175058799194646 0.16672878826136653 1.8915176453051017
H 2.1359902251428324 -0.7245991303396058 0.3455052756064279
H 1.7930426104351762 1.592808834143451 0.09008249252206382
