9
## STRUCTURE-ID: 64568a5db93d7667a62eaab3 ; CHARGE = -2; SPIN = 1
O -1.2721903062594637 1.2600943274900183 1.2018027750732292
H -0.9964722119562099 1.2783513369911643 2.1243764433546373
Rh -0.3151180339101662 -0.22527440402634 0.2073612352216732
I -2.19045629585529 -1.034280703343451 -1.448055379094578
I -0.727523821883521 -1.9405231709622852 2.2678365712991773
O 1.656916256282497 0.702740399393996 0.6244271892768587
C 1.3660697512834743 0.6048296564550701 -0.5917496853709995
O 1.2427914383341907 -0.41162939498828593 -2.7968632227642107
C 1.235983223964493 -0.23430804700988508 -1.5891359269957843
