12
## STRUCTURE-ID: 6456672fae828100857ffa88 ; CHARGE = 0; SPIN = 1
O -1.2584961204376386 -0.8721079703189464 0.041666742270947486
C -1.5699923496065784 0.1111876564812287 1.008829759673444
H -1.1389876190908146 1.0459794367840813 0.6550997019656034
H -1.1370472618042649 -0.13640409982877294 1.9821971348212883
H -2.6503246392363855 0.23768628505612216 1.1139665453210879
H -1.6550542995586988 -1.7105744122530786 0.3080228865004738
O 1.4964079187116217 -0.8532134110448841 -0.7150001485282166
C 1.7725637481681105 0.5105066726570925 -0.929931908288878
H 1.1628817477857407 0.9205857947494267 -1.7417016506605472
H 2.8239180708491918 0.5839750722155007 -1.2063587134164588
H 1.603384917205243 1.1006433382076088 -0.022632305523877915
H 0.5507458870146007 -0.9382643627053665 -0.49415804413498554
