19
## STRUCTURE-ID: 64567aaba2d08508a31f8bde ; CHARGE = 0; SPIN = 1
H -2.344849536917846 -2.568101251717887 -0.14735738208231808
I -3.892767652870413 -2.184786476855709 -0.0882197603978811
C -3.6069875189187814 -0.07924836399461367 -0.5088946548081908
H -2.595578108529388 -0.004330977317192592 -0.9011332644243182
H -4.351105088980383 0.20514487929263778 -1.2470904064173733
H -3.7342455697245556 0.46297200182920767 0.42313929127133
O 2.569922025581852 -0.40646718094556206 1.349767432567278
C -0.3590396270459558 0.9492290077050355 1.8138755379567715
H 0.49917057852573454 0.33823898589019735 2.0773846730729075
H -1.229783515522817 0.33318432847251056 1.6267086023566069
H -0.5473233794454065 1.7081746558155735 2.561845691846407
H 3.3897613751604396 -0.13051267229361227 1.7612290298773385
Rh 2.3332856768039654 -0.21986888405314156 -0.692386886912735
I 0.15021364377388424 1.9626221084815312 -0.034912070945179154
I 0.3311249688380011 -1.8668525378675564 -0.5770742103261025
O 2.236456718638642 -0.1382516036616035 -3.6710383899731514
C 2.2160154925191735 -0.1586251963375353 -2.5136544739750177
O 4.986096475764456 1.1479510467360283 -0.555276816242129
C 3.9496330423494226 0.6495281308217032 -0.6769119424442032
