13
## STRUCTURE-ID: 64568b2ca1a1b129ce6a6030 ; CHARGE = -1; SPIN = 1
I -3.1755072498213215 -1.249622030417879 0.5662497716365139
C -0.9829923227174223 0.6825074150169272 -1.2967932455081244
H -1.7159988307401834 1.4492890685888424 -1.048251208907358
H -1.3656943298918705 0.06467944683230692 -2.120193969048982
H -0.03950566218453598 1.1539131163007217 -1.585932830626862
O 2.0353644401287365 0.19767623096996148 -0.03167279379500506
H 2.965685097666521 -0.10311255079840166 0.050649308349153925
Rh -0.642884017367841 -0.6991938427780517 0.22097243885421802
I 0.04816387350763538 -3.0536938253717443 -0.730151280587104
O 1.688980187706329 -0.7912111278843685 1.952512635046232
C 1.2711903337497608 -0.17940525901726437 0.9836755172117786
O 0.012828516441206346 1.760340137577897 1.8371708270925757
C -0.09963003647705125 0.7678332209806973 1.2017648302829358
