13
## STRUCTURE-ID: 6456b817937ea1704a6c2b43 ; CHARGE = -1; SPIN = 1
C -2.545713718461661 0.44815423446993147 -0.26326787349298736
O -3.359332023935716 1.2221434902980912 -0.056933253963022956
I 2.543311245043463 1.0783133178195707 -1.4047115699359785
C 0.2626029087486511 -1.4429849865620838 -0.7817601482038018
H 0.9297923952838569 -2.121930467958281 -0.23296755690215087
H 0.5485297506166577 -1.3883657025806968 -1.8318174867173214
H -0.7761057306078657 -1.7581431121173814 -0.687600195358317
O 2.1166469931888843 0.1884710954121106 3.697693628335105
Rh 0.5816040884184974 0.3831420894739163 0.20573589491007752
I -1.142080712068992 -0.18881381675875528 2.1243597149780946
I 2.526354311208222 0.5190844801040778 1.91773916727239
O -1.0217295553459238 1.9327424030620095 -1.7157489670279118
C -0.6638799520880754 1.1281869753374898 -0.970721353894177
