18
## STRUCTURE-ID: 6456716bb758cb2c3e3eaddb ; CHARGE = -1; SPIN = 1
I -2.66594509523253 -0.5306136731119557 -0.7349632746980614
C -0.32189751049637433 0.6960563743242795 2.605230634725718
H -0.501779285827227 1.39546743341787 3.4110772570178676
H 0.5423733545059196 0.0709837459021989 2.8017657383877452
H -1.197271422919141 0.0928028996622994 2.39488281483487
O 2.5492610078763907 -0.5892130902932353 1.621269404517835
C -2.256802730771868 0.9151449861867328 -2.2660261485052
H -1.6702882380222004 1.710299283898888 -1.8203722514382419
H -1.6975523038451539 0.41752478804965043 -3.048539476499809
H -3.2047153617429633 1.282649165388551 -2.6351770434751036
H 3.42024478324318 -0.18496502062363177 1.5595015791559155
Rh 1.6243935516158474 -0.7528413750402873 -0.21130105429616927
I 3.572724464723463 0.5810936153551174 -1.3999562930295155
I 0.13357543106365716 1.8255705122691899 0.8427706932048207
O -0.09142677780996773 -2.8434542584123004 1.0606040928042868
C 0.5396658933569625 -2.0116078027829642 0.5707834163504186
O 0.3839633864530223 -1.1112758190432956 -2.902587639706754
C 0.8414768538290004 -0.9636217651470742 -1.8489624493506598
