12
## STRUCTURE-ID: 645668ba4587245d397c7c40 ; CHARGE = 0; SPIN = 1
O -0.8929974157566322 -0.4131653076201061 -0.40212707193723707
C -1.6413168527615352 0.45553384734851304 0.43428924325689733
H -1.587839659126906 1.4906827984758901 0.09851622303024672
H -1.2410698167608214 0.37237102186156307 1.4429683991586968
H -2.677026249975919 0.10762230657217324 0.41676313186427305
H -1.175450593920143 -0.314424526461814 -1.3359384307990465
O 0.724866159701011 0.18411289535076045 -0.6169143686293757
C 1.4958210067452375 -0.6409136282926169 0.19044752331295434
H 2.42413328110082 -0.8874540183132036 -0.3269445737055575
H 0.9585394160334422 -1.5864891863695008 0.3206825731578504
H 1.711157614194801 -0.18069706474888095 1.1589321992770674
H 1.9011831105266495 1.4128208621972334 -1.3806748479867794
