18
## STRUCTURE-ID: 64566f342490336a1e6f2cab ; CHARGE = -1; SPIN = 1
I -2.0206113095105716 1.0523665042202914 1.200005959950957
C -3.8195501388103112 -0.07943200374714227 0.7323985321196455
H -4.6198557217998015 0.32650393740924083 1.3378621820684808
H -3.615755472586366 -1.1182455811166778 0.9637501675786245
H -4.008635099185977 0.03938424038093248 -0.32718881452119314
O 3.327680491655279 -2.1056190656830824 1.674918457970693
C 2.9195135260665985 0.4455519227285218 0.7577553597291306
H 3.589748654981643 0.07708512341586209 1.5183091776698152
H 2.368532434883391 1.3125611930238108 1.1081068534117628
H 3.470219247657383 0.6830627993690819 -0.14634922873726128
H 3.152263489702134 -3.033569288978974 1.8297638344333893
Rh -0.23163544011933568 0.1025132990821363 -1.1845816685830526
I -1.2633938507110498 -2.296066814467821 -1.008027558310721
I 1.5575475445695237 -1.1102400745650267 0.33664083160668407
O 1.6987904981234896 2.3638703794519405 -1.5359927290356543
C 0.9312267773158143 1.5113542617299305 -1.3912030596096316
O -2.0331757719421493 1.1169172723787493 -3.367650689095434
C -1.4029098602897228 0.7120018953682601 -2.498517608646207
