18
## STRUCTURE-ID: 64568b60a372586db11aaa10 ; CHARGE = -1; SPIN = 1
I -2.3486903506730346 0.5028026900950822 1.8588485691820464
C -3.0442011920350325 -1.822090206442932 -0.4535784300801862
H -3.4708545371215864 -1.0505430128820064 -1.0622223683687888
H -3.5032292747291836 -2.0597650314005063 0.48519432386259387
H -2.31330359854887 -2.4857915010743783 -0.874690057733441
O 0.2739802453799618 2.297589140826491 0.5594088151813638
C 1.1442435512993177 0.9442101006547876 -2.3058087891193084
H 2.036665912119123 0.39173133850059605 -2.570556239380248
H 1.351321549464066 1.686668985428366 -1.5429970734409761
H 0.6808793387125126 1.3956719841437546 -3.1733628043029167
H -0.5146047405020058 2.827372536593117 0.7094327499625684
Rh 0.2626596084934591 0.41616109355412406 1.3377261838753771
I 3.36538435772974 -1.060430084697832 -0.018357789678762934
I -0.26160001801439403 -0.43036904374728874 -1.4650104369201187
O 2.9515050895037898 1.1451721389851275 1.9707141476354535
C 2.2009671113301 0.4949626643023794 1.3299706752750835
O 0.7200421261532123 -2.0440242045887955 2.952373402435858
C 0.46883482143871325 -1.1493295882498478 2.2629151216145544
