13
## STRUCTURE-ID: 645689b5ea5b2d5c5c7ccc0d ; CHARGE = -1; SPIN = 1
C -1.3016421916509122 -0.031371032250280415 0.42826086005540787
H -1.6529572450565044 0.9832677552033049 0.609802241977194
H -1.9534834672375436 -0.47316928086122195 -0.3533140541719526
H -1.453112775453707 -0.6251297109379268 1.328901824192394
O 1.0028035069589982 -0.4019549401991586 1.893631956834093
H 0.8070112442595363 -1.3526928112731176 1.7487189338627394
Rh 0.3834158330078825 -0.33891234107155194 -0.9092130319436273
I 0.39620586064632785 -2.8959083920887516 -0.27294175658074626
I 2.174836676657964 -0.6510832362187486 -2.8252217115243274
O 0.7570240096123512 1.6169739394729725 1.0583785330257933
C 0.575640817174102 0.4233907561347155 0.9330878618624482
O 0.07030133689336596 2.3932025290896446 -2.0538610770943353
C 0.19395639418814195 1.353386765000127 -1.586230580495084
