10
## STRUCTURE-ID: 64568d3257530e2ed032491a ; CHARGE = 0; SPIN = 1
O -1.7388114485273187 -0.34413992701896334 -0.3051431206187376
H -2.3378430192790542 0.239911477631181 0.17506934053985593
O -0.3976931428541895 0.13101534989940333 1.9458323266563016
H -1.3033843440987294 0.4093401287270139 2.134998115439503
Rh 0.17006702927172535 -0.24724542090228874 0.20025657628932347
I 2.572977305437459 -0.88802543846364 1.1382820305015333
O 0.9211407426813694 2.3458601317151406 -1.0117532354259502
C 0.6484982869079675 1.3255927702098482 -0.6010101980304748
O 0.839262655170786 -1.8148206222676169 -2.284398273256974
C 0.6257859352900061 -1.1574884495300672 -1.3921335620943913
