16
## STRUCTURE-ID: 64568d4a34cb432a17293420 ; CHARGE = -1; SPIN = 1
H -1.5264071885521864 0.7824627772934846 1.3571967909138516
O -1.112205532229976 -1.5848669788387226 1.0134163927337019
H -1.9053131318326102 -1.6039943878023712 1.5560322740414154
O 1.2192330154228832 2.1036648578098265 -0.3498646598124041
C -0.49284929353462353 -2.2236848442467063 -2.1497808144380897
H -1.1656905481573308 -2.7009424895796887 -2.85034174964997
H -0.604800166116516 -2.619249115461312 -1.1460125414003217
H 0.5405310609726052 -2.2780731424380964 -2.470862724691813
H 1.1950948751948847 2.9124430705347746 -0.9060875060449749
Rh -0.18633914065062776 0.14672601639921806 0.8914937717883402
I 2.12148021714882 -1.054412472033593 0.3266821040686931
I -1.0310668856380614 -0.1359687347089271 -2.037261118095132
O 0.01216920338077718 3.293457470906489 1.100670120067551
C 0.5469002611707958 2.243434088384338 0.793228065435059
O 1.5216519513084137 1.5174595736034227 2.9088978880475307
C 0.8676113021127205 1.2015443101778425 1.9625937070364803
