12
## STRUCTURE-ID: 6456689f2a0ac91d1307102e ; CHARGE = 0; SPIN = 1
O -1.631402889646896 -0.24143928493414252 -0.9105233039275894
C -1.9680714348660764 -0.23303556606701412 0.45658284723474585
H -1.4953916488383288 0.6043472531078811 0.9807725527390438
H -1.6812813322813254 -1.1694114488792886 0.9466592461293826
H -3.0500958774325744 -0.12006466097464365 0.5176359163013747
H -0.6650796733468208 -0.3461059662406521 -0.9866680166587332
O 1.22674552668728 -0.32850091016615646 -0.9211820886042658
C 1.7967500494073978 0.34239087655195743 0.1853072316242463
H 1.3104160229308723 -0.05091207735813551 1.0761087774533202
H 1.6224777909153705 1.4206124744465898 0.1285027309036842
H 2.870640375857647 0.15218412653540167 0.2546557331177818
H 1.6642930906134608 -0.03006481602179303 -1.7278516263129944
