13
## STRUCTURE-ID: 6456739086158c1bef5c0b08 ; CHARGE = -1; SPIN = 1
I -1.51659696946429 -0.0552478133391038 -1.625868091430642
C -2.347562989923979 -0.05896520995233433 0.3553605574874372
H -3.311410460383263 -0.5481581565418386 0.3031680014082768
H -2.443559012572346 0.971606417708527 0.6739191795942208
H -1.6777305584250728 -0.6027673615162303 1.0137230008379556
O -0.036589942330346056 -1.7181672508759678 2.3093989291359582
Rh 1.5049649588475873 -0.07007299070551971 -0.5829096204134205
I 2.431626156565285 -1.6818385663906894 -2.4183842247778586
I 0.8835246688928529 -2.222189116033934 0.7424788208824693
O 0.7845796327824814 1.4007239367981215 1.914690296861469
C 1.068142327253811 0.8863521187327027 0.9270580787882592
O 2.5349032342384294 2.299207810075746 -2.0955890243262507
C 2.1257089545188514 1.3995161820405042 -1.5170459040478284
