20
## STRUCTURE-ID: 64568e255940803daa4efcb0 ; CHARGE = 0; SPIN = 1
H -3.971864185894931 -1.0689451043725606 -0.41822109255481926
I -2.2899802474824806 1.9183589619525572 0.05735119409731038
O -4.54292930150897 -0.24392476623376444 -0.47025721936979387
C -3.973532232906292 0.7996825644913172 -1.1504841719508583
H -3.4439924970901754 0.4337098673332975 -2.0360687669174875
H -4.6898559581039105 1.6173013740829791 -1.3176551014056546
H -5.010258956238718 0.009198023046646055 0.36715613765386673
O 3.3243486523201824 -3.0271171695054315 0.6810433297470394
C 3.3750648638215894 -0.4827936657280904 1.004439526631721
H 3.7190304356258905 -0.966002497051566 1.913878518997086
H 3.261430982234675 0.5875346488431542 1.1672324257610391
H 4.0994017968600165 -0.6670939937691464 0.21558152914227
H 3.061338797772138 -3.9282784734977665 0.4935657487822554
Rh -0.04018977304890187 0.5848423527806426 0.21907004638666164
I -1.1973927899706067 -1.6038950569372405 -0.3495276034264182
I 1.6425771817882844 -1.4319428548602542 0.4509861212202212
O 1.8958293381663642 2.7584559758634053 1.0700989503097047
C 1.1461281980826894 1.942727591268507 0.6601488710842024
O 2.30421754902158 1.1216302015455073 -1.4926196652438435
C 1.33062814655156 1.646552020747802 -1.065718778944525
