18
## STRUCTURE-ID: 64568a89de4bef5732623190 ; CHARGE = -1; SPIN = 1
I -1.3562780341641352 2.607190069472918 1.2513326870209245
C -1.6143072227295592 -0.809008932260766 -1.8008972320304593
H -2.6055278083269493 -0.3871993583124248 -1.5430092319601851
H -1.4333407992639389 -0.5997090510897276 -2.854770724321374
H -1.6805070329286578 -1.8850745625664387 -1.648126791661307
O 0.5718840726688559 -1.9793505178754305 -0.7934127459904166
C 1.5809091712988401 0.622176771979828 3.184424053232225
H 2.459734621451188 0.7830474487959677 3.7946133734739544
H 1.1162229399794052 -0.3343491817319487 3.394118191220306
H 0.8655068756426082 1.429095174660137 3.2992650280513725
H 1.3548620206938669 -2.4157489270198464 -1.179910940948831
Rh -0.7397492167879643 0.47374657051559516 -0.2819679456630582
I -1.521641365626463 -1.253307869185546 1.5621739237798813
I 2.218504782909558 0.6013312008104488 1.1126243840874321
O 1.0059136567335007 -0.41309901287521517 -2.310206132773675
C 0.31001550922914434 -0.8123040820317888 -1.3895939702644102
O -0.1611079639178428 2.603042273359941 -2.2803779270187396
C -0.3710942068614729 1.7695219853542967 -1.5162779982336556
