18
## STRUCTURE-ID: 64566e194c78db15b83eadc4 ; CHARGE = -1; SPIN = 1
I -2.2904607975831857 1.1773611311666907 -0.17943802535821912
C -3.1640584771636844 0.6830886566210526 -2.1107035922634028
H -2.5264749005747915 1.1121798147570328 -2.8736816614599627
H -4.162349383792128 1.1015298054582867 -2.126600822526671
H -3.1708389541228494 -0.3969878412107651 -2.1937003131782817
O 1.1255091085748972 -3.4786405186570297 2.0756361925155034
C 1.3841195288172676 -0.7919035653753326 2.5617574508535306
H 1.3109625546418444 -1.6235552931441315 3.2446430743433528
H 0.6873712498917561 -0.0037279249669150464 2.82879129046853
H 2.3998510967605506 -0.4112243119662017 2.538083851180978
H 0.9511430739313 -4.279879113271128 1.5822240574588347
Rh 0.7413376486654902 0.6900160009518558 -0.7855973260627824
I 0.10367468869755134 -1.107556177647585 -2.5768501023134345
I 0.8886350137118151 -1.5264776786904737 0.646861383739339
O 2.120206664160936 2.1440957527710895 1.4386338907208138
C 1.5646862593227677 1.6023856681740556 0.5811708661388373
O 1.1301017610088462 3.001499947921407 -2.6677641106786454
C 0.9065838650516114 2.107795647108081 -1.9834661035782835
