13
## STRUCTURE-ID: 64568c17a54c562a1d351d70 ; CHARGE = -1; SPIN = 1
I -1.3433013449275668 1.8987267604963038 -0.5345801383173077
C -1.9718873775252188 -0.5147480288299912 0.337974010328554
H -1.8554615302196333 -1.2550405189493126 -0.44618427105889047
H -2.9698645442440115 -0.10445089907807079 0.32647650838598663
H -1.7322913742958626 -0.8623394997899764 1.3382709890640936
O 1.0676583932033674 0.5931377012413622 -3.4653215198556393
Rh 0.5819707660862153 0.0649445660976289 0.207874594823201
I 0.8427036880221267 -2.633167151377101 0.7208655858780555
I 0.799553604457539 -0.8131948394700061 -2.275610653706351
O 3.134002660203468 1.2834941748010946 -0.9274931939495059
C 2.2103730431129645 0.9202263003809018 -0.354758632918116
O 0.637625426359765 0.8621682580619286 3.086991291322524
C 0.5989185897668577 0.560243176415226 1.985495430003403
