17
## STRUCTURE-ID: 64568f3ce749dd592f462264 ; CHARGE = 0; SPIN = 1
C -0.9941554241504896 -0.057993141225063764 -2.3046085030979953
H -1.5100394350942 0.3684384723222944 -1.4483876892744276
H -1.5816136498214528 -0.7782688890855884 -2.856590845281524
H -0.5116774059889719 0.6865358841830812 -2.923983170872257
O -1.415260955580674 0.46666648515396725 0.7077117130362492
C 0.776575706052281 -1.5870288007856839 -1.5600081040607194
H 1.6502214061015703 -1.2228795972454027 -2.0971729481070738
H -0.10084932682694091 -0.6688477250017596 -1.7884130556549476
H 0.3208056134311721 -2.4926522280798697 -1.9508837622428845
H -2.1769926405366236 0.14039976503957272 1.1907732056852125
Rh 0.2859556972730791 0.9345969983380803 1.7207370670989086
I 1.2080997625873415 2.135957957532442 -0.4165815171635893
I 1.1290749703854912 -1.7373168975252662 0.4982091739859577
O -1.0876002431811214 0.03903646352270642 4.222261639299398
C -0.5249982600045702 0.3550999571119293 3.2706183213608955
O 2.7257673117912002 1.9206171250687627 3.142699824845737
C 1.8066868735629031 1.4976381706758024 2.593618650443067
