12
## STRUCTURE-ID: 64566799fd23cb70574dd53b ; CHARGE = 0; SPIN = 1
O -1.9002517067885407 0.8685732368956001 -1.760092888582022
C -0.17642657608149462 -0.4090932067804938 1.3973511206390465
H -0.39063952474265995 -1.4681911419934823 1.2158618040963447
H -1.0594570842353248 0.0780273100580556 1.8044505962243158
H 0.650077798337436 -0.3298015880720387 2.1116855451743635
H -2.0732832018525245 1.802783095878452 -1.6200786526920328
O 0.13584321281946637 0.25549651734929596 0.19196022099083832
C 1.291637716621646 -0.2599242418623807 -0.43357741254179977
H 1.4237363486602517 0.29916496183678704 -1.3569932291535383
H 1.1702428579254314 -1.3242146757691127 -0.6630565754721477
H 2.1711124736593272 -0.13010780909250885 0.20645309496488592
H -1.2425923143230422 0.6172875415518058 -1.0939636236482622
