18
## STRUCTURE-ID: 64566f377c10f5058b1f8bd3 ; CHARGE = -1; SPIN = 1
I -3.003182891508461 -0.49514623150461334 -0.9715114634170434
C -1.6399030314997165 0.39806043683176134 2.0175470765625265
H -2.0814573874629523 0.6066550734998046 2.968211391598825
H -1.6218329327560796 1.171317585607138 1.280818894650772
H -1.4126307094833008 -0.6151388784144415 1.7659035903786904
O 2.0052827365070485 -1.9729299430845422 1.8725224570789605
C 1.3055764539524797 0.49160442389934733 1.023652777982687
H 0.5593100610097171 0.5504386955303038 1.823434126973729
H 1.1955892723262709 1.323777140590485 0.33588536252234596
H 2.312679993903645 0.4276899722299884 1.4154395027915945
H 2.031285023618507 -2.929310428344624 1.9132822889769645
Rh -0.6370221551510821 -0.12212650004758221 -2.124409475878592
I -0.5363089130178147 -2.575500985539637 -3.157996364495858
I 0.918849479135755 -1.3116215090749686 -0.050161357513663435
O -0.988642277087203 2.719487460012183 -1.2655713058502553
C -0.8436478920711468 1.6350747653784938 -1.6292188448131084
O 1.6724107944637567 0.44674589217977656 -3.9477067586442574
C 0.7636443751206213 0.25092303025112794 -3.2701218989043275
