18
## STRUCTURE-ID: 64567067c0b4fe3ead0876f3 ; CHARGE = -1; SPIN = 1
I -3.2612691594860928 -4.408136145885046 -1.207754372443597
C -3.3266592864005173 -2.322088272033979 -1.035320486540787
H -2.845608030246036 -1.8319803695850196 -1.8737707141122057
H -2.6301925019304857 -1.9939722485804094 -0.053596113408438825
H -4.325542721637922 -1.9729585288760372 -0.8063150032873533
O 3.2572159254866673 3.1919726188128563 1.4854343633806049
C -1.8469852009018672 -1.452564201476159 0.7601434726257724
H -0.8846701471775109 -1.8234202153288845 0.44660817756436333
H -1.992327345669044 -0.40218331012198044 0.5701598793173915
H -2.149860382732131 -1.7751368465973685 1.7451673262413727
H 4.080988960433243 3.3426495507761116 1.9898683330929785
Rh 1.7623985239449917 1.4556299888537874 -0.24397115200752229
I 0.114883554072669 0.3050848381452744 -1.9264873911282272
I 0.6859570785491717 0.458119945739672 1.8818974693632715
O 4.3103928495592125 1.3064534724641195 0.9160110810690927
C 3.294528198563197 2.0008095893101636 0.8282275961211193
O 3.1769270285089046 3.3505850531874017 -2.0557547435521233
C 2.5798226570635663 2.5711350811955525 -1.4205477222959668
