18
## STRUCTURE-ID: 645689a87653c731fb6c2b3a ; CHARGE = -1; SPIN = 1
I -2.656797464643728 0.5300056342344248 -0.6108926335640014
C -1.4341190770756316 -1.4915802418755748 2.2025344453347477
H -2.1756306825393485 -0.7880789038397042 2.5843802805363567
H -0.9441565758332469 -1.97723661838676 3.0458099053989818
H -1.9493428471485603 -2.2415025393054826 1.5867348962792074
O 1.9609584511497773 2.3551407670558655 -2.69545748682844
C 0.8354861911744811 2.2238092496204924 -0.21127592107903417
H 1.7042834751613176 2.8366980110652156 -0.40723598712647824
H 0.9134376345134898 1.7009525358174225 0.7345756267610313
H -0.08062475163661904 2.800557446884756 -0.2694290374631394
H 1.998497024969993 2.2357399025117557 -3.6463020172453593
Rh -0.6203124647795141 -1.1001489353175804 -0.49968256843067943
I -1.0861223177603723 -2.2774480065034877 -2.9236574807415736
I 0.7976305201072693 0.7780784002662339 -1.7653912875581106
O 0.421173383906458 0.0072422567081732335 1.9643299152447196
C -0.40334536550049427 -0.6931519023437531 1.4170594113712962
O 1.8398325721714255 -2.7614437705587376 -0.19561551362029403
C 0.8791522937633278 -2.1376332860332568 -0.31048454726921837
