12
## STRUCTURE-ID: 6456697c8e87383e664609e8 ; CHARGE = 0; SPIN = 1
O -1.4900141741713657 -0.9492702936047813 0.577430933487431
C -2.034780417647394 -0.039669723306791305 -0.34873277662191454
H -2.0758719176753115 0.9745223029079008 0.061760218450936294
H -3.0482355163675474 -0.3748103930660049 -0.5669080639922282
H -1.4588084718405387 -0.0243574917422119 -1.2803084525343247
H -0.5898662924157562 -0.6488937315627711 0.8007861431126908
O 1.1670811793390954 -0.000423500569088726 1.0006198207634085
C 1.8261701090889952 0.3267164402404038 -0.20703620555544375
H 2.053675808294032 -0.5699696981807021 -0.7906947330775557
H 2.748191096624771 0.8821957098693866 -0.01815236474043507
H 1.1450773892240638 0.9582875318371423 -0.774793513213284
H 1.7573812075469506 -0.534327152822483 1.5460289939207246
