12
## STRUCTURE-ID: 645669aa93944818134b65f6 ; CHARGE = 0; SPIN = 1
O -0.6745400150208618 0.0010647250901237918 -1.45348846918889
C -1.2260022919292148 0.155438363512521 0.5728698033546757
H -1.0248958203717395 0.4998427461402677 1.5859649371272584
H -1.4897081897079056 -0.8881756036227589 0.5484129137845002
H -1.9212225368504718 0.810856324892091 0.07658650730793391
H -1.1547067291183548 -0.7896827964820936 -1.7005168407309739
O 1.5305382726818015 -0.7233947657983002 -0.6641064283521267
C 1.416796752044409 0.1655155968879358 0.3618062546893079
H 0.24892413799773985 0.3155763362542702 0.4781068075341177
H 1.7985241434048362 1.1676331108987557 0.13083119959451814
H 1.8294878333455316 -0.22749054638605737 1.2922895998365336
H 0.6668044435242346 -0.4871834913867546 -1.2287562849568625
