19
## STRUCTURE-ID: 6456b7f12f36c963593288c1 ; CHARGE = -2; SPIN = 1
C -1.664444899619328 0.3042877832852863 1.3030184990535716
O -1.6870207226359406 0.47825473247793726 2.470764254408382
I 1.4093083286588421 1.533465399560226 4.132967479798542
C -0.3369710533089737 -2.780866640255233 -1.9597197704379303
H 0.22204753551518294 -3.02814986863248 -2.8594431535181104
H 0.14799680651340913 -3.2489007923897657 -1.1028651475370579
O 0.7525916804437003 3.312879706114554 0.5104014411326223
C -0.3601083885990917 -1.290426985644927 -1.730127605579388
H -1.3464135510630506 -3.1763172423413195 -2.043214334150116
H -0.9072491168718078 -1.0156846745041874 -0.8303322161922675
H 0.641468798811525 -0.8696708751873041 -1.674359955925813
H 0.45301196519656134 4.2441761378770035 0.4512844528255014
Rh 0.3218510002001882 0.7005974314093184 1.6483548725960626
I -1.334351834500614 -0.24598127382149726 -3.3302139909464192
I 0.7685502215379093 -1.9820753826645552 2.0334272889456853
O 2.515147314302659 0.6393201799873257 -0.3766058934986648
C 1.613641453001692 0.7015837531944165 0.36199277520968853
O -1.1002999579182506 3.1443094042167083 1.7235042696044043
C -0.1087555796645991 2.5791992073185233 1.2711667342113007
