21
## STRUCTURE-ID: 6456757f1017216d8d6dc174 ; CHARGE = -1; SPIN = 1
H -3.486250325508313 -2.451949053514304 2.268542951779043
I -1.9310050522360453 -1.9067636039871256 2.2615771754205127
O -2.8624762192600404 -0.2204983645196571 2.1015494155842775
C -2.404912488326462 -1.6119801832818474 -1.1496971876552458
H -1.403325936931414 -1.333247121923621 -0.8267970963761637
H -3.130343091717138 -1.057877635441041 -0.5596686300296522
H -2.542797417446478 -2.676694300565259 -0.9811162746799819
H -2.2313927580413253 0.49821140202867237 2.2117201804520352
O 4.140691825156059 3.1614626580276473 -0.2714206771505765
C -2.5663479429014506 -1.2756216595394103 -2.6255774230209084
H -2.4077324781289033 -0.21157190439952314 -2.7886492372461196
H -1.8297758348789526 -1.8117572665234687 -3.219804830223694
H -3.560220681665637 -1.5423520029714863 -2.976251139294008
H 4.950040022101654 3.3477920255878724 -0.7864533019066404
Rh 2.479195432566459 1.2239847507285304 1.0035167461033898
I 1.166651057093405 0.9671078455723017 -1.2059684015745264
I 0.6594829320918814 0.13940704180944508 2.528980247489624
O 4.414520461225216 2.129335848399821 3.0782709086329483
C 3.589186254395818 1.732261202078256 2.345196776685038
O 4.927723924199847 1.0760846267129571 -0.40247814525207665
C 4.029088318211882 1.8246656957212817 -0.005472057737272179
