18
## STRUCTURE-ID: 64568a451655ab122f2726a4 ; CHARGE = -1; SPIN = 1
I 0.13143287882554272 3.475387351596542 1.4871923433063237
C -2.4067117453766307 -0.17021504003403326 -0.41200455847226053
H -3.0545608563747115 0.47617177164925706 0.18504128710396114
H -2.512928533549953 -1.197344987368396 -0.050737755694395696
H -2.7432857293515864 -0.1340470683198585 -1.4505291403538043
O -0.0737271902092792 -1.2256116106430306 1.0192687099116264
C 3.13775927562987 -1.3652278319555586 -0.005985807317797325
H 3.3549613199891426 -1.5553783234526963 -1.0509407326315152
H 2.3114751508858262 -1.9789542444754031 0.3379425623150855
H 4.01401543625084 -1.483078914266609 0.619639000083801
H -0.6286563726225732 -1.275772488028432 1.800980334984106
Rh -0.38041462644498736 0.3330982708054796 -0.2579696935518924
I 0.20557225278310406 -1.2458788599974304 -2.3781648117661733
I 2.470001778296007 0.6805234472794289 0.17060941386202136
O -1.4776660746941808 1.0814723840296965 2.302068214428632
C -0.8415854476525225 1.3275508598646626 1.34564204838414
O -0.8604050156674422 2.5427700850036223 -2.212294003823883
C -0.6452765007165486 1.714535198312859 -1.4497574107681033
