18
## STRUCTURE-ID: 6456717992ab1a5f2a1fea78 ; CHARGE = -1; SPIN = 1
I -1.3830358879549431 -1.5268524609119547 -0.36286365757434
C -2.9801968138909607 -0.14916614837300143 0.11380843372231
H -2.6030076890251306 0.8582121515908586 -0.024467991306684495
H -3.261450313850009 -0.3209120688643875 1.1461771834742545
H -3.8019891960383556 -0.35551754578464195 -0.5599320580095805
O 2.137358890693584 -1.5763492274007789 0.7600792150329063
C 1.2785685695684994 0.11446240753906052 -2.550838693238293
H 0.779817441559297 -0.5801945388122078 -3.213754450878893
H 1.5385639002313665 -0.3701431002277444 -1.6146174456088753
H 2.1581676171342026 0.544133803569034 -3.012452426341603
H 2.1318991513032444 -2.3784841244754142 1.2912829548491536
Rh 0.8174684022953113 -0.1536861215315712 1.458770990552261
I 0.040754343479653767 -1.713918781033752 3.4766001001904963
I -0.08045156749423411 1.7018497581289775 -2.12614870652173
O 2.735574675895877 1.7616197665377844 0.20530651029041458
C 1.9180437565771737 1.0518317674042041 0.607332981200673
O -1.0855305634255301 1.9523012768587622 2.380656332004049
C -0.34055471705904244 1.1408131857868025 2.0250607281634476
