14
## STRUCTURE-ID: 64567972e5a5d948c60b3f63 ; CHARGE = 1; SPIN = 1
H -3.7989243693855066 0.27859393357760837 -1.2384734166551574
I -3.7518202041420543 -0.37014315342133675 0.20624042962857195
C -1.1109193803952675 -0.2501675679599907 0.12635123706577492
H -1.0796715591833195 -0.46387824073022194 1.1878320241002371
H -1.108717578081001 -1.0681384944550776 -0.5833898571572427
H -1.2161277672880586 0.7739400358272223 -0.21503146557907424
H 0.7715985235750636 3.42265445877335 0.4332899547978481
Rh 1.3487873368626369 0.07040604528043555 -0.009992711492756165
I 1.2152457139832624 2.3228588425932584 1.492277776890525
I 1.1959142823193873 1.3546056345827797 -2.281679452848927
O 1.973655091291993 -2.1868525207777476 -1.863162740044704
C 1.6966928010296307 -1.3604296716822726 -1.1391685644824339
O 2.111847134635652 -1.5725229003417096 2.3814768562665476
C 1.752439974777518 -0.9509264012664249 1.5034299295109228
