21
## STRUCTURE-ID: 64568d02219ea85df15c71b0 ; CHARGE = -1; SPIN = 1
H -2.986837097840967 0.5605937269310859 0.9135616050976405
I -2.0236355554827226 -1.634564714356015 -1.9295561025760462
O -2.2372515167751734 -0.052686780655361844 0.8563662000700397
C -1.3258008277429265 2.246234723761865 -1.4835559550231852
H -1.1470238449180075 2.1889489476434605 -2.5562825673803933
H -2.3272723401983613 1.8478425210748748 -1.2842676899507994
H -1.287595603893301 3.2844568847723625 -1.1606859606272262
H -2.1561747604271164 -0.4511188338239472 1.7337782027814315
O 2.3954796606412248 -2.0306443943086507 3.0600296098838773
C 1.6411354443106847 -2.3126540870225814 0.4447475446220224
H 0.7232102435889517 -2.790630226291136 0.12082826779454194
H 2.2121127532781015 -2.96909838489476 1.0817274954995433
H 2.226541241268971 -1.9962274427436684 -0.4111322071461356
H 2.478310109891495 -1.6258386783887875 3.9227987898749497
Rh -0.23765255091173168 0.8553474444001926 -0.16659832303947014
I -0.24923299641353894 2.4296125202652727 1.9852062963868073
I 1.1601072559318983 -0.6124913116851702 1.6006429180613444
O 0.8338352465671897 -0.8942629885355097 -2.2065790213310006
C -0.05772296076947364 -0.5192139004845495 -1.5214827915067919
O 1.5481908343677768 2.554152501653866 -1.8125229093645934
C 0.8172772655270171 1.9222424726871583 -1.1870234021265784
