21
## STRUCTURE-ID: 645674c69cc27f49a4662c6f ; CHARGE = -1; SPIN = 1
H -2.6326077001777035 -0.48110702820188506 2.44161495705925
I -2.9058325292196177 -1.611458707561647 -2.137456199326311
O -2.1202368518231345 0.17382274911276813 1.9558619667881656
C -0.5519019391794563 -0.6255469354196193 -1.7990780274542182
H -0.8167967019514782 0.25020905641914554 -2.3455351137941602
H -0.14769735804844056 -1.4713745985385966 -2.308533767756118
H -0.6958059043426102 -0.682978191496236 -0.7415218719448374
H -2.4443208665621143 1.0360803523666577 2.247267230421708
O 0.17994041581987125 2.253093757742601 -2.23717596629514
C 1.5315391943210754 0.019136188267165625 -1.6823418091413387
H 1.5371591739596855 -0.26928313318025815 -2.7319866455920616
H 1.83831906227338 -0.8017004925722832 -1.0360926012177776
H 2.293969729352423 0.7958886214102021 -1.6149513034874186
H -0.1789819209000866 3.140295100816648 -2.2986818764148955
Rh 0.5534365189343806 0.13604319512586022 1.8682605454907137
I 0.40182817503141344 2.4864063671058427 2.939104561296988
I 0.4194924093328882 1.7984065753976424 -0.18002124287740529
O 0.8928581446303628 -2.600404475778625 0.7241121392361661
C 0.7704337709425252 -1.504980705406448 1.0580716552362162
O 1.1867450269597548 -1.3005733882078077 4.41490835892409
C 0.8884601506468909 -0.7399743074011139 3.4641750108483897
