18
## STRUCTURE-ID: 64566f217450cc11143dae56 ; CHARGE = -1; SPIN = 1
I -3.968578008200232 -0.5285173744008804 -0.5811133842373256
C -2.5849942564618487 1.1797426864985463 1.5459930593044073
H -3.131285216282122 0.46105608075462456 2.128053739610037
H -3.1834793341275947 1.88870624527285 1.0049278504525556
H -1.7091554117033103 1.6008036776828862 2.0400345833889366
O 0.14256627319888773 1.7609039429231077 2.1743330877690763
C -0.6176030202440451 0.04265923904045805 0.039954690960897425
H -1.4376663417719169 0.5350243493557072 0.6882028376349156
H -0.7560981007076647 -1.0323132202323182 0.11150417988298184
H -0.7748610541488264 0.3744025214601132 -0.9823960743039876
H 0.7091018856663404 2.2519848863925143 2.767921693060123
Rh 2.5490821232328624 -0.9501074682261345 -1.2238802363906003
I 4.697898644424252 -0.0709812080856763 -0.120654706754951
I 1.3587396283631261 0.49913351478543044 0.5960098697914703
O 0.07026893202029513 -1.9882948548137338 -2.528164587553577
C 0.9844624690526531 -1.5544869486630428 -1.982644810364325
O 4.123423578257265 -2.5387785137458905 -3.220504066398693
C 3.528177209432312 -1.930937555998338 -2.4575777258518885
