12
## STRUCTURE-ID: 645669bac98e5d036732bae8 ; CHARGE = 0; SPIN = 1
O -1.7100375969415478 0.047748029571754086 -0.7684888941624133
C -1.9674067006933338 -0.28417542465720463 0.5752342945869003
H -1.4277675609648859 0.3775495099846072 1.2614303291925708
H -1.6939030025656292 -1.3220980320595046 0.7911603035883333
H -3.0379191518990836 -0.1597900549540838 0.7354333387784083
H -0.7583906265716319 -0.0805361513327156 -0.9342109606665926
O 1.1286145123483369 -0.25345633683873664 -1.0042960814708528
C 1.8470454205726137 0.3138163134505713 0.07317080297366618
H 1.8111800166786933 1.4064566685683184 0.043249047749756984
H 2.8888768400865756 -0.01565026713095048 0.07309802418855459
H 1.3681010423218138 -0.03305425850410246 0.9869903361338203
H 1.5516068076280853 0.00319000390204956 -1.8327705408921589
