18
## STRUCTURE-ID: 6456709f1c06ec7fe47cab8e ; CHARGE = -1; SPIN = 1
I -4.357122006485616 -0.3765468721948834 -1.9650877082156735
C -1.2923575630671575 -0.4487257755090468 -0.8424306618672738
H -1.2564432549500253 -0.6575191529835342 -1.908984806198049
H -1.891127700366163 -1.194516994791895 -0.3250939001582296
H -1.6823473198138073 0.5545902864147232 -0.6586474707580399
O 2.832114563764682 -1.002319044733108 -1.5080515916121966
C -0.3769786247739371 2.1719899831573097 2.9511879382287045
H -1.3641110678561768 2.380921430404743 2.5548419505168094
H 0.384825284508681 2.7303080571794993 2.4171218085016477
H -0.3310389382515154 2.346395177527209 4.019816586888932
H 3.392279842549097 -1.1359155227112743 -2.300143408235415
Rh 0.6758770990745445 -0.3983727904692827 -0.07209131287657107
I 1.3163377167170505 2.0655761685359426 -0.4933751627603509
I 0.011922636475168322 0.05328694792076574 2.6301892557700985
O 1.1141184000997253 -0.7460692104489364 -2.9263560202549677
C 1.5514580161707399 -0.7479592285716409 -1.8045886158245847
O 0.6580336914090512 -3.369946324885881 0.13412378945810097
C 0.6145592247956679 -2.225177133840696 0.09756932939705691
