12
## STRUCTURE-ID: 645667290bda7817f1623190 ; CHARGE = 0; SPIN = 1
O -0.5562732991857723 0.5867634711887864 0.09338005960766028
C -1.0605967659765776 -0.2133754662940158 -0.9683977951922015
H -1.742681665904056 0.3864334305218163 -1.570691299978616
H -1.563814915395413 -1.1058773998320506 -0.5929065198103332
H -0.19121846732412265 -0.4910315378802551 -1.5627094159631911
H -1.2979341345705542 0.8513149846720216 0.6774408699595237
O 1.7668510949787863 0.42017538590757325 -0.6018556815925815
C 0.6583602517903479 -0.34264560572369557 1.1256837808577353
H 1.3202942635026935 0.34758216121319957 1.6131882265783868
H 1.1516060790328748 -1.1722397975720842 0.6554918135316656
H -0.18899957455059616 -0.6440450228525075 1.7388229126794175
H 1.7044071336023978 1.3769453966512117 -0.6074469506774679
