14
## STRUCTURE-ID: 64567b1ac671c4722a28a81e ; CHARGE = 0; SPIN = 1
H -3.2618789543626394 2.7067423128657 -0.7315627177575513
I -4.191929862276719 1.6462306759690815 -0.04500381528505401
C -0.7985901158729546 -0.5606412224339967 0.7312195506274093
H -0.6135041612564524 -1.2440739988779688 1.5588032973994788
H -1.2977801539105702 -1.0684180489886046 -0.10171716878860611
H -1.3804526878277956 0.30060461861476606 1.064329110581414
O 2.037075829662564 -2.303670230840996 -2.802531611109896
Rh 1.015339404339256 0.11427729351254061 -0.16691817818194535
I 0.011215313439635487 2.240162799627128 -1.2377810487188143
I 1.243059073381477 -0.6509962403995696 -2.622741876430853
O 2.493476296684421 -2.4414146101447014 0.3473222803497122
C 1.9144412169852478 -1.4768449460676407 0.2391930747411551
O 1.5296560519389863 1.68212776295743 2.338822500474196
C 1.2998727490755315 1.055913834206825 1.428566602099349
