12
## STRUCTURE-ID: 6456686b2515d070eb7c7c4b ; CHARGE = 0; SPIN = 1
O -0.1568524319728332 -0.31346467067137235 -0.15555094211888
C -1.3302778968969282 0.23771878668743612 0.4032362314453459
H -1.2215884944405644 1.3172321860562608 0.5548435094612906
H -1.4801083555454215 -0.2521658057891494 1.3626274037367618
H -2.1938519451058354 0.05251896993338246 -0.24458458707015998
H 1.2525522613946054 -0.4410424828342228 1.1223187059278845
O 1.958812616850964 -0.5559226023846446 1.7768364353391362
C 0.17583402285105892 0.2567566969457133 -1.403362161156724
H -0.6338012123453403 0.11129494631355617 -2.1264096627659623
H 1.0720231745457067 -0.25189590092591146 -1.7510981374728154
H 0.37639959220595093 1.3291834837007532 -1.3022230479884627
H 2.1808586684586206 -1.4902136070317855 1.7633662526625977
