10
## STRUCTURE-ID: 64568d9be69e6410ca662c60 ; CHARGE = -1; SPIN = 1
H -3.2408684285021256 2.5241018819541448 -0.7400799274069854
I -2.8903207857042696 0.9612732260260068 -0.7646599815486862
O 2.774772356701133 -0.8847729604665413 1.2512283077575823
Rh -0.43977563100493305 0.723543061553115 0.1719193528650717
I -0.12268303653838564 3.254065714954672 0.6301865371191181
I 1.9426771703457082 0.7818782970311762 1.1386362572832232
O -0.27211541664347855 -2.2999063462488247 0.526524327596531
C -0.21372957373459076 -1.1416960982444306 -0.046892511831981
O 1.670159923894686 -2.2793182266642624 -1.2758126065675488
C 0.7918834211862535 -1.6391685498950503 -0.8910497552663156
