12
## STRUCTURE-ID: 645668b11fcaba27da0b3f74 ; CHARGE = 0; SPIN = 1
O -0.955705823638684 -0.7928878446218025 -0.24530295083528494
C -1.5253255574127613 0.47319960056570115 0.1411936947123655
H -1.3731116650053141 1.243327458556854 -0.6152970856080985
H -1.0676863263761682 0.7875246486885146 1.0785962572656136
H -2.58721342212724 0.27945444397578595 0.29817304960139546
H -1.361511111724012 -1.1128527735240752 -1.0990874127210801
O 0.47022311567850184 -0.6935304412496556 -0.6409215441800608
C 1.3248348267526853 -0.8542867887838445 0.4504665959994896
H 1.2685927118841238 -0.022739997376272535 1.1561803048185328
H 2.3034625863004354 -0.8279054599748499 -0.03153497689544771
H 1.1784485847880004 -1.8184019248983139 0.9419723685057831
H 2.3249920808804747 3.3390990786419286 -1.4344383006632186
