12
## STRUCTURE-ID: 645666c514ca460a0b248aeb ; CHARGE = 0; SPIN = 1
O -0.05142794249984979 0.28860245917807875 0.036135420122910614
C -1.2263891693059505 -0.13402967706257873 0.6940720154305796
H -1.5048503525994923 0.5710367610404425 1.484619291297934
H -1.093079861839153 -1.1285960924853893 1.1336668100814018
H -2.01123005045811 -0.16938323495095983 -0.05782904303731934
H 0.22866414006878172 -0.43980579158066807 -1.7271029089251408
O 0.33534154853173626 -0.7047633259210841 -2.6528182803112115
C 1.0577274186089591 0.3839904238800164 0.903615458488055
H 1.8989026581593265 0.7192575859933477 0.30154658214452335
H 1.289965657699372 -0.5886594295739878 1.3511099489441245
H 0.8654403254118174 1.1076453518082752 1.702976089398226
H 0.21093562822256687 0.09470496967451267 -3.1699913836340863
