12
## STRUCTURE-ID: 64566b465f11de60a02726b3 ; CHARGE = 0; SPIN = 1
O -0.8895031733261837 1.2469500235566544 0.8844721755772796
C -1.590540574741029 0.1744964922736409 0.9066929020139546
H -0.7715611567685332 -0.7147312823998913 0.5733034446697947
H -2.332643747061506 0.0578576536825107 0.10401609893200466
H -1.8637365091548588 -0.20686586526516437 1.9015233521064507
H 0.37856224082773793 -1.2226382866249403 -0.8120801584802572
O 0.5113419474438977 -0.9486992870610653 0.12004003522485487
C 1.2119538646357753 0.21098157349459282 0.24366775208361946
H 0.42557257278490596 1.0513323938153996 0.5337027204725866
H 1.6754605241210683 0.5783247972519955 -0.6693075270644036
H 1.8673219930922058 0.16447104358246162 1.1149166874311431
H 1.37777201814653 -0.3914792563061932 -4.900947482967027
