17
## STRUCTURE-ID: 64568ceb4f84dd12c562318a ; CHARGE = 0; SPIN = 1
C -1.5722772901367557 0.41044266384162664 -1.583863690985072
H -2.3820207140544314 1.0177361774070042 -1.186446080464084
H -1.5366107960384887 0.4854761821082832 -2.6695821243223787
H -1.6767566843780664 -0.6262530033160922 -1.2647677593051283
O -0.6053700839065781 -2.012909567401364 0.5001033151844391
C 1.5339533688436466 -1.3684792739478855 2.2930427446981265
H 2.11350758021671 -2.2633060534172413 2.4863211744680704
H 0.5107919914659875 -1.4875391579556207 2.6262578997258865
H 2.007332488864035 -0.49964276551861325 2.735052473605963
H -0.6435489660389371 -2.963336895182567 0.398454761835559
Rh 0.36621975993921524 1.0002468494596517 -0.7982208670705979
I 1.6888074934960553 0.5313969534187638 -3.026603191222946
I 1.4844617812476473 -1.0830021162303611 0.16139027862552272
O -0.8192051261033045 1.2107920905130793 1.9292556037147788
C -0.4086722473346831 1.1864334894960882 0.8675246666326648
O -0.15940893310736653 3.71430345494922 -2.003489950007482
C 0.09879637702527104 2.747640971776097 -1.4644292551132507
