12
## STRUCTURE-ID: 64568e87fd7baf69c028a804 ; CHARGE = 0; SPIN = 1
O 1.2422497626289226 -0.3494405471437989 -1.5996102498322278
C 0.7747914523757493 1.929289887913623 1.8334653667915264
H 1.8153275280621661 2.193671736071554 1.7699508701448412
H 0.28541378321494276 1.746662440826685 2.7738760031522105
H 1.1846134813651132 0.05447319234131839 -2.4744926954482436
Rh -0.5227427319302324 -0.786757607123476 -0.834520402299048
I -1.719674247729729 0.17376085587838425 -2.957964798968461
I -0.29196626973040585 1.7987639250778238 0.13899791350163407
O 1.2812815732460658 -2.054509023978907 1.1850873493404295
C 0.50595815232084 -1.5973757139611184 0.4925937805640093
O -2.400626504846437 -1.0932047674202823 0.16156828086909025
C -2.1546259789769993 -2.0153343784818003 -0.48895141781577106
