12
## STRUCTURE-ID: 64566bd19f87762b7f67f9c8 ; CHARGE = 0; SPIN = 1
O -1.5584898965353924 0.46246907747827865 -0.9308879610582749
C -2.048956260828521 -0.1349772724744307 0.24579054789188648
H -1.5594593887063029 0.2743660010132005 1.136230981898393
H -1.9125413594080467 -1.2211149658022804 0.23095945862107767
H -3.1142312185807937 0.08759773194889264 0.29647323144545723
H -0.6114936076632028 0.24523141641110724 -1.007119542428721
O 1.231788016712769 -0.1727474379306598 -0.8914161300191807
C 1.836254335104863 0.032005668741470865 0.3702799401757282
H 1.189357569390163 -0.4390574198986923 1.108158615935514
H 1.9238788674354315 1.0976794076448118 0.5997661278852454
H 2.8240361827158003 -0.4329466758771216 0.4174965463773568
H 1.7998567603632396 0.2014944687454249 -1.5757318167244865
