18
## STRUCTURE-ID: 6456895bfd3205339b0876e4 ; CHARGE = -1; SPIN = 1
I -0.31778533577622353 2.622905008876345 -3.0695820590151985
C -2.0280296313866555 0.40249852992496354 -0.4855919371561886
H -2.061369292801393 1.0570422896957272 0.3853117331752283
H -2.3445538241500166 -0.6043752593991841 -0.20306130116531226
H -2.6975733072591495 0.788848134061808 -1.2620242109024755
O 1.9019936327132094 -2.8689059957476064 1.610890367988912
C 0.3662091512267627 -0.6653803874845146 2.029767293413719
H 1.1600165530123865 -0.9644075822000889 2.699734867907205
H -0.5897557718328336 -1.0461337688166519 2.3657241402210185
H 0.3335223066770853 0.4075233076815193 1.8946938512945943
H 2.1356448187007224 -3.7069287887593325 1.210539491254972
Rh -0.16173959549295425 0.26167185350957584 -1.395486237973911
I -0.5600315305980587 -1.693419966334958 -3.088252931992449
I 0.8080131275850692 -1.5962042188884433 0.16555364074453918
O 0.17729676219113988 2.439305731903726 0.7035738821054651
C 0.38007333998044995 1.789089450611839 -0.2935574162358632
O 2.2868508501580527 1.4954807053580952 -1.8351137094472683
C 1.2112177470523784 1.881390956007194 -1.4331194642170473
