18
## STRUCTURE-ID: 6456704bd91422299e333beb ; CHARGE = -1; SPIN = 1
I -1.3538549735056333 -1.6277146280939048 0.3366286829632536
C -3.246668327881573 -0.5174106499582678 0.3014835805894852
H -3.3202470794652803 0.025499025233153363 1.2370629354695797
H -4.047031151829046 -1.2398655974528916 0.19941728881199328
H -3.2166286693747423 0.1564783202368755 -0.5488602038640892
O 2.235870030472927 -0.8558240641927957 1.0053278153827514
C 0.38652352347660013 2.036551046791793 0.7720260369708611
H 0.5646995794778535 1.1321946940584258 0.14015528271687047
H 1.3132603355927142 2.5829687814357802 0.8921010475556153
H -0.3816370941621909 2.6646922696874813 0.3364085810516276
H 2.8567034771149116 -1.3728798151638018 1.5546727363864923
Rh 0.5169775188851885 -0.5516095509268174 -1.156277817782478
I -1.1297227953882658 0.8765144290427733 -2.666197184140117
I -0.2694904928378862 1.4115770933022382 2.697520040520086
O 2.2190975552182914 -2.7157732110829045 -0.22454821314279771
C 1.7938947481920322 -1.5730649359850972 -0.0700611311313891
O 3.0488970593056757 -0.17355243069988405 -2.6821862358281265
C 2.0293567567084354 -0.2587807762321564 -2.124673242529632
