12
## STRUCTURE-ID: 6456672cfd8da421070b5358 ; CHARGE = 0; SPIN = 1
O -1.4115103973872123 0.9928966071380625 0.2694813180829833
C -1.6922142404308669 0.08836858462702428 -0.7779942266931682
H -2.15065085065152 0.5957059673385505 -1.631950509391322
H -2.3494064219082613 -0.7192344283715166 -0.4417432520741687
H -0.7404213404348724 -0.338422637414997 -1.0901945846132668
H -2.237670052661317 1.3937842211354479 0.5651302803339142
O 2.053364674429328 -0.32957861079075507 -0.5279436884197122
C 1.6562135329367955 -0.5210569097695702 0.8150324166145638
H 0.7468832158392387 0.04075173061372464 1.044388449141883
H 2.4497788897773143 -0.22861903854304375 1.5096652879822654
H 1.4593575232590956 -1.5855086721903573 0.9317654851317936
H 2.216275467232281 0.6109131862274252 -0.665636976095763
