8
## STRUCTURE-ID: 645663fc7083cd35c14609e8 ; CHARGE = 0; SPIN = 1
H -1.5366121115301017 0.1258778891917238 -0.8285070011245382
I -3.1216500951972748 0.08040687260369812 -0.9371776285308469
O 0.27635855642148843 0.030786688804467995 -0.6657181019588905
C 0.8187172266318786 0.08642202988880611 0.6411469516373711
H 1.8961604669573628 0.2592696138053574 0.6100874501466502
H 0.6113730695388789 -0.8331826220049152 1.1947037834928347
H 0.34017706082455323 0.9231830473212028 1.1465469380262512
H 0.7154758263532106 -0.6727635196103391 -1.1610823916888342
