12
## STRUCTURE-ID: 645667a6005fbf10d230457b ; CHARGE = 0; SPIN = 1
O -0.6316440751111897 -2.255533963186896 -1.4061406663384122
C -0.9236168434421318 1.0437682776665334 0.350295256862355
H -1.270598854575674 0.6146820738617483 1.2968200968763983
H -1.7369606951123198 1.0415105743194228 -0.3717293087750723
H -0.588954882201333 2.071874469181188 0.5259237659589344
H -0.4873088192833732 -2.0987886197516734 -2.3425972639781985
O 0.11497715585220439 0.26564182373494083 -0.2051052025810904
C 1.2557659239264392 0.20331767298874145 0.6239730057803295
H 1.9843668923152655 -0.41732962530827283 0.10759603332931147
H 1.01170643662391 -0.24513006093149523 1.5933833075369142
H 1.6733579272459698 1.2027812453734188 0.7871038182628796
H -0.40109016623776905 -1.4267938679476277 -0.9595228429343744
