13
## STRUCTURE-ID: 645689d05b121521262abdcd ; CHARGE = -1; SPIN = 1
C -1.3880201246130004 0.6990323115714009 0.19229182484423163
H -1.8055410772490776 -0.2369017504836634 0.5948057059393418
H -1.6949382035618155 0.7813747041914604 -0.8497413682720614
H -1.804910983115207 1.5264169942641472 0.7651843728359065
O 0.24957342771355948 -2.1949450005900504 -0.49183394544499925
H 0.21794496844843156 -2.887659750095271 -1.182184804689166
Rh 0.6493660676653535 0.08522035931680727 0.688271882263751
I 0.19406268596785892 0.4360112784705887 3.2939533440009345
I 3.137783871895887 -0.7185642512193032 0.9845598250306633
O 0.9009359109902377 -0.7828487671440776 -2.1130612192631353
C 0.6604566159825288 -0.9992477118214527 -0.950188769342801
O 0.327850391484617 2.667544334330608 -0.7169894530474948
C 0.3554364483906417 1.6245672492088161 -0.21506739485516183
