12
## STRUCTURE-ID: 645667edd53b711820610ab0 ; CHARGE = 0; SPIN = 1
O -1.1066579173246966 -1.422673840533385 -0.5471324914937532
C -0.8212086184337717 -0.3091946373078394 1.0803399761026458
H -1.8111551369216081 -0.7030021014495192 1.266227338436056
H -0.8009794001965229 0.7489047755205421 0.8841768388845346
H -0.09222073594739057 -0.6625594234988677 1.7872501152609452
H -1.6536244025214915 -0.8769582018260096 -1.1245793784240905
O 0.9425031386829188 -0.3380274219211536 -0.0835894655510923
C 1.279075440039386 0.9048079213137048 -0.5520381351571052
H 1.3467181264207637 1.6404209365701925 0.26695125872199266
H 0.5667770001539817 1.2905782914289936 -1.302097773281363
H 2.269583994385531 0.8621923170873678 -1.0297249957518413
H -0.1188114883370936 -1.1344886153840266 -0.6457832877469298
