12
## STRUCTURE-ID: 645668dcb40c2c76607b925b ; CHARGE = 0; SPIN = 1
O -0.09159218490132864 -0.35826165979001035 0.05902658372337193
C -1.4073952984449936 0.09286281710856113 0.2999651132403929
H -1.4171607836645002 1.161007926776223 0.5429821850210985
H -1.8654125807141155 -0.46505747502739553 1.1238344553560164
H -1.9697134412102846 -0.07865560725760429 -0.6150084884033781
H 0.7045636212732357 0.21965342124707946 -1.5924557493323122
O 1.1131006035340627 0.4557967154466581 -2.4391846830167396
C 0.7580411604275626 -0.19274210414287454 1.1742623294751124
H 0.8595818368575409 0.8663606762437879 1.4355423036233805
H 1.7284176540838116 -0.59325961910411 0.8906799145816818
H 0.37328406755403376 -0.7392825661050917 2.0416544807634223
H 1.2142853452049842 -0.36842252539522546 -2.9212984450320483
