12
## STRUCTURE-ID: 64566b4aac5e6b522656edeb ; CHARGE = 0; SPIN = 1
O -0.765428952454889 0.682310384378072 -0.3647976888082839
C -0.3077554902673058 -0.38525276006392256 -0.03866034965794788
H -0.7874203710748191 0.8648633232187134 2.995167399817579
H -0.3784748288659919 0.6637657355815969 3.624861377128784
H -0.9497635012315025 -1.2525337100776228 0.17994041135420985
H -2.049457813555788 0.1895359091673066 -3.5278645495796126
O 1.934561102485183 0.49736041690239696 -0.17862155826357815
C 1.1603457828160642 -0.638264295047205 0.09567793427369685
H 1.4329733660707553 -1.4516428168429272 -0.5924026052797705
H -1.977559709150615 0.6076536825736125 -2.8759391057459527
H 1.363053721850916 -0.9867366500435156 1.1177349166248591
H 1.3249266933779924 1.2089407802534877 -0.43509618186398413
