18
## STRUCTURE-ID: 645688e51309b07cf32b66b0 ; CHARGE = -1; SPIN = 1
I -2.832934448379288 -0.8079551985465866 0.38919472661305704
C -1.7098839965700434 -1.6304158331654999 -1.2761840722586986
H -1.7191134980663085 -0.8937465434624734 -2.0713831361613333
H -2.1975724292015024 -2.547791289410557 -1.5793412309634411
H -0.702985316842554 -1.8196067674620233 -0.9190981810985405
O 2.108043414755191 0.3521245043441282 1.584277931819131
C 1.1180525656877704 1.14917233819561 -2.0871304453138677
H 0.7925010123019768 1.1068862824073111 -3.1189438874322852
H 1.2473929537453234 0.15494548021211718 -1.6738638074402854
H 2.0231897118154403 1.7350932742092116 -1.9853328242235513
H 2.8737162911996452 -0.0777740392062079 1.1529966835716758
Rh -0.6661395434472944 0.9293585610572542 1.4050247608974338
I -1.8819073156763477 2.950161719048008 2.743835921510498
I -0.45344379879020413 2.1425913553231952 -0.9284039218121071
O 0.9859181212669452 -1.33564027771649 0.6372485292915513
C 0.952673221754075 -0.31469877547239783 1.3269847298945385
O 0.1453742503931002 -0.9058746325489179 3.659428550490499
C -0.08288119594591488 -0.18683015780570056 2.740689672615952
