16
## STRUCTURE-ID: 64567ba7435da60429462264 ; CHARGE = -1; SPIN = 1
H -3.5892832202786855 -2.7265547260600567 -0.42635594060785026
Rh -1.3049523122951936 0.0151577462073666 -0.29911455605660864
I -2.821006743409823 -1.9654593309716382 -1.5943030210772795
I -0.9296303259070497 -1.5249595538323844 1.8519125097240092
O -1.4746065109581623 2.3151697207222286 1.3339069475290004
C -0.7017403240430031 1.5288295777594259 0.8242631675905484
O -1.724587172677244 2.220668025288118 -2.2791776796336647
C -1.6237362179125794 1.3344374616766954 -1.5529386093701114
O 0.626271955304743 1.6342252480297221 1.0406614983185742
H 0.8415532415018772 2.38030157188651 1.6381532303309008
Rh 1.4535399213804783 -1.0128615166588824 0.7068351789406078
I 2.824063063082895 -1.2291397640701411 2.9277514000441407
O 0.7665238331505684 -0.6054638297231711 -2.1605273398991307
C 0.6293415573392549 -0.6642225957497209 -0.991768209254892
O 4.003705979593018 -0.8154867948465715 -0.8116006364812289
C 3.02454327612891 -0.8846412396575002 -0.20769794009700132
