21
## STRUCTURE-ID: 645677a42837724895071034 ; CHARGE = -1; SPIN = 1
H -1.9516671546330275 -1.6395657771260073 2.760453726175099
I -1.0717986478811974 -0.20586183652851117 2.3596213099425656
O -1.7468989311586487 1.4751030626326929 -0.0779327242369027
C -0.8417553363031284 -1.430259261954257 0.5663239915298277
H -1.834592152380359 -1.6440879901660037 0.1904171209706113
H -0.3109165879468991 -2.3302345547327734 0.8513274285251659
H -0.2703427441933637 -0.8463682452270256 -0.14698822259467262
H -2.4150025439941705 1.9349163285800908 -0.6257581910128246
O -0.5014366409552066 2.464484409344179 2.8163141365205053
C 0.9892858401962331 -1.9412015273405905 -2.9300186419806082
H -0.0421686839476475 -1.6267856979733082 -3.020184897618699
H 1.6231991818565124 -1.1039346422148608 -2.666957641679503
H 1.0908747558645266 -2.7401691982494203 -2.2077372659702914
H -0.11224744890014572 2.5242822158193534 3.6943343411570813
Rh 0.7115247525498224 1.5898535791279853 1.392716130138271
I 2.6128873714078145 1.0647996579829282 3.1874646129367044
I 1.6200319447460265 -2.686722104018654 -4.83294650232318
O -0.5947126280297909 3.3527715521639188 -0.37469042615146775
C -0.6586467158703809 2.244942598221379 0.1559233156021679
O 2.1112609465275938 0.6195751690872577 -1.0474796024542037
C 1.5931214230455217 0.9244622625717214 -0.044201997475649464
