12
## STRUCTURE-ID: 64566b3f0e29434238159870 ; CHARGE = 0; SPIN = 1
O -2.0531525128350463 -0.42409482935770637 0.342594192212642
C -0.9850533212767768 -0.3125357283564411 1.0885032946274926
H -0.7909240002569947 0.6293535178326076 1.6138126768553374
H -0.1456008562618787 -1.0087378454764897 0.965290818001464
H -2.0767766296808263 -0.8992990814945832 1.4369682653245872
H -1.9575124210870578 0.30696983426179686 -1.3381620489496326
O 1.737413584282055 -0.7012409132550009 -0.49752619763993766
C 1.2626808285872786 0.6190521447739141 -0.5613804622767194
H 0.16225038801629033 0.6464533480536686 -0.6344620186488975
H 1.6643483828897727 1.162055775052095 -1.4203131511557059
H 1.5785905354028233 1.1156550176611624 0.3536444625947489
H 1.6037360222203667 -1.133631239695011 -1.3489698309453801
