12
## STRUCTURE-ID: 64566dc288164805af6cdb40 ; CHARGE = -1; SPIN = 1
Rh -0.49131669939075623 -0.18913398003353854 0.4096531853374578
I -1.8288234434262949 1.670822656810735 -1.3583367686589547
I -0.2925950140621126 1.4672944582568486 2.5055259908604666
O -2.654384520750234 -1.3100929945106314 2.2025211088571064
C -1.7960570632560962 -0.9927045211598378 1.5119311608798789
O -1.0038009538233779 -1.9998415190372651 -1.9006244124408038
C -0.797658077436341 -1.3258379016525106 -0.9960412519021056
I 2.023631943864664 -1.2849084016796166 0.8087258841503037
C 1.6310301907310245 0.8039025549529831 -0.6458046175322911
H 1.2048844259031866 1.7287769570539213 -0.2619121238089831
H 1.298219371494025 0.5360060784344673 -1.6440109775960616
H 2.706869840152323 0.8957166125644436 -0.63162717814602
