12
## STRUCTURE-ID: 645667b50cbfa302f9662c6e ; CHARGE = 0; SPIN = 1
O -0.9257296297440389 1.0198814546081951 -1.1754368412315737
C -0.49729360399446726 -0.20889340993883576 -0.9198051410642363
H -5.074720427202755 -0.3893913772818631 1.376242656356739
H -1.2096633954595841 -0.9186782959686318 -0.49588663210497597
H 0.09047109967271413 -0.6050539575163664 -1.7501857765855864
H -1.68077665027463 1.3042467063476766 -0.6355220753657405
O 2.4171718498307553 -0.5483695528533553 0.32203112020875185
C 1.325624418200503 -0.015990074142119445 0.8393497149917051
H 0.9418869202592561 -0.6102107379008289 1.670174744349329
H 0.36923191748610884 -0.14747325895231567 0.0008179428499660295
H 1.3104955551538222 1.0632174117400508 1.0088708967572948
H 2.9333019460723206 0.05671509185836352 -0.24065060916166378
