13
## STRUCTURE-ID: 64568c77046ba50542390814 ; CHARGE = -1; SPIN = 1
I -3.5972749725120337 -0.5154643974019699 2.56530494221063
C -1.0766286575211899 1.1378470139954902 -0.523093948016838
H -1.379512086722525 2.0626215001716846 -0.007100870711543956
H -0.7340305236906277 1.3942570480077296 -1.5288143032606625
H -1.9454495394186864 0.4782780544477205 -0.60917455296941
O 2.3610278007826793 -1.0105380130152941 -2.3032549838638605
Rh 0.4566819806198006 0.34733098846540045 0.6072495679065072
I 2.239063469357281 -0.21810866970969137 2.561762755762214
I -0.8333680763095859 -0.47965617789983894 2.620261399480243
O 1.8383279364242533 0.7357438313342184 -0.9867185798637094
C 1.7381120744836274 -0.46619758743120154 -1.4028506246640873
O 0.2396006214102985 -2.286999082522285 -0.45261999815931775
C 0.6934499730967117 -1.1791145084419754 -0.5409508038501678
