12
## STRUCTURE-ID: 6456672df232123b626c2b4b ; CHARGE = 0; SPIN = 1
O -0.7571218819459675 -0.6327272240243434 -0.44369579547340504
C -0.9071369611858027 0.10062986388132965 0.7972675098626074
H 0.14369487573823014 0.2765056789342358 1.1745442022336472
H -1.464585660480539 -0.5228853299435129 1.4880022752214366
H -1.3951809127098278 1.058792115898969 0.6418943460892267
H -1.6122600974114305 -0.6492130922637661 -0.9306907388245185
O 1.8646686394673386 0.4765180078473603 1.2245323533441796
C 0.27039499337529704 -0.06852514087220851 -1.290571287671855
H 1.1453505180770027 0.09391164961764993 -0.6422747689937914
H -0.03559754929692247 0.8858772112545353 -1.7134123238290744
H 0.4982992639202803 -0.7933956755951754 -2.066422944563851
H 2.2494747724523867 -0.22548806473525854 1.760827172605161
