12
## STRUCTURE-ID: 645665ca05676c2a0d7c7c4b ; CHARGE = 0; SPIN = 1
O -0.05470446053220546 -1.6798843010473605 -2.1945748266435383
C -0.9532676248994393 1.0194118322122467 0.2607385344729208
H -1.207817897238535 1.3042945591619517 1.2871980651972006
H -1.859018664302177 0.7581472451672475 -0.28125665110060927
H -0.46020479224993827 1.8645755590548618 -0.2321608502077293
H -0.6104744549169241 -2.429329063029561 -1.9676999173791294
O -0.12669087361213016 -0.12462177644341445 0.24855653779105977
C 1.0883675003943625 0.07199149043902799 0.9390598174403517
H 0.9030026722383382 0.3191462847059338 1.9899138762226225
H 1.6733640371802019 0.8769601525022871 0.48080314802697177
H 1.6404135340704378 -0.8626961139074973 0.875212522910353
H -0.03296897613197624 -1.1179958688157126 -1.4057902567304976
