12
## STRUCTURE-ID: 645664b6acda723a833288b0 ; CHARGE = 0; SPIN = 1
O -0.9361751213589367 0.599371658466152 0.168272643883029
C -1.5646310654587003 -0.07483053219616025 -0.9381856497557884
H -2.5782587859895387 0.3097747902301274 -1.0347384813158842
H -1.5733881463820993 -1.155208409994496 -0.7959669103597288
H -0.9956175569002171 0.16669925432058147 -1.8333039511649243
H -1.4444302093769337 0.4159845107849006 0.9867991469663585
O 2.719849932840235 -0.6251469163342882 0.863515250338595
C 0.5485506499787256 0.12215026130584165 0.4273633202750746
H 0.8759625448259503 0.6906326358722883 1.280850106489858
H 0.5328288470028393 -0.9398944103837511 0.6071472778521606
H 1.0849816658385247 0.379144324938347 -0.4703901891561975
H 3.330327244980154 0.11132283299045129 0.7386374359474553
