13
## STRUCTURE-ID: 64566e3d6146652d1a4b6a68 ; CHARGE = 0; SPIN = 1
I -1.5017237259462688 1.0088578297923865 -1.033320342104865
C -2.6148978947829637 -0.23969716828379214 0.34629543801843204
H -2.3584967687572354 0.06867055936617766 1.3527547681643246
H -2.333652775987169 -1.2708532254499192 0.1649676688435661
H -3.667018993483608 -0.08065404999414728 0.14576377842162053
H 0.8233588414722046 -2.6873670032051016 -2.013909039746348
Rh 1.4422261264576126 0.19662098995428282 -0.19216222702750807
I 0.7656127942446996 -2.425454774310781 -0.4488879731874601
I 2.393154422678451 0.3141438884167736 -2.6538256677987424
O 2.9027305860628085 2.793947168074902 0.024880589632463267
C 2.332915470236672 1.8038585966547345 -0.023257104123209946
O 0.7865200024208193 0.2971892360684405 2.7237249275272313
C 1.0292719153839813 0.22073795291603132 1.6069751833804968
