17
## STRUCTURE-ID: 6456722a3f40592a7061a6dd ; CHARGE = 0; SPIN = 1
C -2.52251293246834 0.3823677449531629 -0.6171480716508426
H -2.785091003928011 1.0717239228692774 -1.42835917959287
H -3.049156442659412 -0.5603872517781607 -0.7563784284078025
H -2.8378096755014415 0.816244753457049 0.33171415593954595
O -1.3968194114781567 -1.6075240961699462 1.220306145674708
C 3.270903488132882 1.0023744998567519 0.43289113476338037
H 2.792340767102978 0.512996942206361 1.2739057447766844
H 3.0677194294616745 2.0675031595678157 0.426843129660425
H 4.333425996503175 0.7962080074739376 0.39827699944341666
H -1.3161349039863242 -2.1101846752142426 2.059772358625756
Rh -0.45032589018924074 0.21435623016812755 -0.6998007080078616
I 2.3958990392146386 0.15978579628859568 -1.3563435490646398
I -0.20883163357976464 2.565756053924634 0.3442632911603876
O -0.9307773097259112 -2.216541732325595 -2.353788590034264
C -0.7312419333971256 -1.2997848011516295 -1.7041914958210098
O 0.7037209063327248 -0.8804183778754647 1.5177259983401477
C -0.33530848983435385 -0.9144761762506822 0.9103110641948352
