15
## STRUCTURE-ID: 64566df42b6e69441a0876ed ; CHARGE = -1; SPIN = 1
Rh -1.7056932095787023 -0.30140667555173867 0.07328919486882138
I -2.798489651306985 -2.3283596047961277 -1.2362304075640698
I -1.53181845567723 -1.5658216931527553 2.3810879626490036
O -1.110334211705298 2.386600159683069 1.2028464903805676
C -1.3144316057782006 1.3043637827777064 0.8451457991888603
O -1.9447313446168255 1.2700284220907574 -2.458796477899441
C -1.7116813078014894 0.6423765059914416 -1.5171156082649857
H 1.7348996661794376 -2.4354510830026403 0.5691282874965694
I 1.1323491735197024 -1.2552904942312972 -0.4670019295162384
O 0.5268339046146624 0.6003447016009833 -1.579408810103605
C 1.8826177909791522 0.10562027817899262 0.999198495771276
H 2.956782566093271 -0.025327765269356817 1.0495391257375704
H 1.4079239183546843 -0.13228723838452758 1.9454158136140507
H 1.6190401298464738 1.1023417157311448 0.670184960357474
H 0.8567326368773421 0.6322689883343772 -2.4772828967158347
