12
## STRUCTURE-ID: 645666f1afafd278371fea78 ; CHARGE = 0; SPIN = 1
O -1.3019430106617271 1.1790960807540365 0.007516947945275969
C -1.780181900031245 -0.06497309816768045 0.4745951273875036
H -2.6619851673736705 -0.38909743091642524 -0.08630542847443283
H -2.024831494460822 -0.02395369458233187 1.5401676685894303
H -0.9800142506707393 -0.7879411387124782 0.3243901068325687
H -1.9897674169062742 1.8439188320183537 0.13240589741560463
O 1.455936305511635 -1.2507922755839993 -0.7844518388116142
C 1.9176844642344653 -0.09108980995591372 -0.12106884161685641
H 1.1505106209192604 0.6878008707394937 -0.10205004875314107
H 2.8247637788447 0.3013782172895939 -0.5908297247922106
H 2.1497382751548173 -0.38903658555205034 0.9001709651697068
H 1.240089795439613 -1.0153099673306036 -1.6945408308918333
