18
## STRUCTURE-ID: 64566ec125a1fd05605a8529 ; CHARGE = -1; SPIN = 1
I -2.392336093202373 -1.1219084743961274 -0.9405958435429993
C -2.6996325446690745 0.1569560929442553 0.7776279824599117
H -3.682170111891776 0.6035376266047889 0.6823664223519124
H -1.9161444985595892 0.9070649574205596 0.7513421585544999
H -2.6249883205453854 -0.45982464870056006 1.6651847508921802
O -0.49809380300826467 2.187118928695456 -0.7919667321397706
C 1.7504546860071557 2.140780914331104 -0.40286033807249727
H 2.2846418546632106 2.956473428466066 -0.8494995794099951
H 3.6198698507411686 -0.16563769246582985 0.42159404623215363
H 1.9495986863106174 1.9162251788403133 0.6263075520824433
H -1.3724146840472824 2.598855770518606 -0.858987151477578
Rh 0.5468234573259548 -1.5807683826277688 -0.4836777131422229
I 0.9818771583041342 -2.2685422326731697 -2.968088269409071
I 1.1164200049321131 0.6811444263880253 -1.5678468644995165
O 0.8554868924086667 -0.07832328058163879 2.0733387430078314
C 0.7282235548865686 -0.766619133787006 1.1674566120347123
O 0.7336103089775765 -4.385822013934489 0.5423963965365588
C 0.6187736013665877 -3.3207114650425784 0.15590782754144883
