18
## STRUCTURE-ID: 6456b7a163d11f6869662c71 ; CHARGE = -1; SPIN = 1
C -2.277588552357839 -0.13026216907408059 -0.9216944482673263
O -2.891552930247151 -1.0954774462526633 -1.2177730110455844
H 0.6038133684028648 1.9463234762146724 2.9029558065302474
I -0.0028253764974058384 0.7248644885439414 1.9186338829812568
O -1.0593243486398083 -0.6032685592783378 0.28303616805967097
C -0.7216579450319042 2.3309178213436144 0.6867101621442107
H 0.14106973402454964 2.876687974000422 0.3225308039534662
H -1.3737571903501793 2.9483993026880935 1.2940493917752676
H -1.2660531747814963 1.8488335625319403 -0.12081765162052321
H -1.1876481480309429 -1.508551518425073 0.6349266002675609
O -0.5492216063954805 -3.135426551846138 1.32246101525012
Rh 1.281061769894668 -1.155418417741249 -0.8158726546047648
I 0.3018220234628755 -3.104508810104934 -2.403237742651902
I 1.3174963888467772 -2.8266794841870486 1.2610408120787318
O 3.607805984510278 0.397223058110791 0.23937299224496256
C 2.6812627303684793 -0.1633533909907465 -0.14100208374321402
O 0.4928000812548776 0.6560581757494518 -3.043862594972753
C 0.9024971915668047 -0.006361511282675504 -2.2014574483794793
