21
## STRUCTURE-ID: 64567cf706ebab29d12a1564 ; CHARGE = -2; SPIN = 1
O -3.061385385049656 -1.4241448973625028 -0.8021062266404427
C -1.7572290207771049 -0.3435109942732065 1.9545707690384277
H -2.3892079088400133 -0.9255239541177293 1.291316825274893
H -2.2987753933595303 -0.01738665575349023 2.833067791862452
H -0.8740735272677044 -0.9116885607566069 2.2255783530376543
H -3.9010649053630293 -1.1185270177024167 -1.1621182440764806
Rh -1.4554347254805642 -0.501855343118533 -1.6646991455071565
I -1.0593257485278842 1.3724564369309953 0.8957462234207947
I -3.026667952447275 1.0486222668816065 -3.0289651242137916
O 1.055488564181189 1.0211559048121066 -2.0790555473096983
C 0.07833298447491273 0.39840220942624377 -2.1508999988070188
O 0.3374925911075448 -2.654157755507889 -0.6226442147144529
C -0.3841226900988334 -1.8207184814681998 -0.9770400589357624
O 2.722695026443338 -0.8609850635830705 -0.14891295659049075
H 2.8244440207685613 -1.8064074660712774 0.08156686954265643
Rh 1.4956309863557908 1.6570004368292228 0.3354294665930933
I 0.6212907075467838 4.1084467369634545 -0.10102416738420766
O 1.4231769623751225 -0.9184667086237136 1.6507801929046504
C 1.8950739815365587 -0.22946451097408535 0.7403975954668289
O 4.453639520809357 2.0071300923995143 0.39228919656139066
C 3.300021911612502 1.9196233250694958 0.33672240047665536
