15
## STRUCTURE-ID: 6456b82ad4c8e83d806cd4bb ; CHARGE = -1; SPIN = 1
C -2.847142609667662 -0.023821113386499386 -0.09128168245840694
O -3.788409277097718 0.15533514518258942 -0.6959563790648334
I -0.8929631405090607 2.167313945213976 -1.3944283380391658
C -0.5257100107989153 -0.7443197217211375 1.9449501987387547
H 0.09050583570123999 -1.172061268111011 2.7382987628942126
H -0.959022261841034 -1.5408583323250997 1.3421760692236724
H -1.3265274677429877 -0.1563357744066626 2.395342158298688
O 2.043229062205937 0.6477534480438251 -2.961052179738212
Rh 0.5820356107289331 0.06423680231540531 -0.7806268498528316
I 2.3639219975044523 -1.8098612767951512 -0.25748053324009307
I -0.9561612514137622 -1.6243013638340649 -2.0101868034102517
O 2.68362920525863 1.7034370088649688 -1.0199879134469836
C 2.192167977119476 1.06783555712143 -1.8746828027912332
O 1.0145185605622076 1.0898376301322836 1.5020527607600425
C 0.32592776999026796 0.17580931370512912 1.1628635321266407
