8
## STRUCTURE-ID: 64567138cc16386f421aaa04 ; CHARGE = 0; SPIN = 1
I 0.7082675180130266 -2.371823211943142 0.5184181385931393
C -0.4567706573484446 -0.5666928004635887 0.18367460935761518
H -0.9933938457754679 -0.37635387311182283 1.109476450339099
H -1.1599879024309612 -0.8033938704181958 -0.6106062305261019
C 0.457158716828087 0.5662259223077503 -0.1845371612059794
H 0.9934099147653618 0.3779540402964353 -1.1110260218822787
H 1.1595935523330791 0.8025639479169336 0.6105446615327542
I -0.708277296384686 2.3715198454156274 -0.5159444462082418
