21
## STRUCTURE-ID: 64567c6bddb8117c366dc154 ; CHARGE = -2; SPIN = 1
O -0.49468553165300627 -1.2658226106953707 1.038554793824521
C -1.9964589062149525 1.332170015896225 2.682257931878886
H -1.3456249869890942 0.716187602298448 3.2920091833544727
H -2.7906112111044776 0.7431506252946974 2.233410131583579
H -2.3935995805955366 2.1717570585952384 3.240100871509958
H -0.682962276356154 -2.0988257384108397 1.516201488422425
Rh -1.0328526735176222 -0.2270133787463013 -1.0471109120200306
I -0.7860166884557822 2.154892250887512 1.0458279848362868
I -3.5809324045370636 -0.6360994993793557 -0.6166107803964327
O -1.296079866638127 1.2870421982015934 -3.571709367765713
C -1.1639059456008587 0.7288309060471805 -2.560935696190799
O 0.760143401470806 -2.275909466141265 -1.3519518834294109
C 0.7662200765659372 -1.044660564842388 -1.6210390132290977
O 1.3640802137012908 -0.7386281936729906 -2.8523450724156394
H 1.7404917899992403 -1.5508206844235515 -3.235493348322796
Rh 1.3663063230500392 0.4585759436284851 -0.22383936698169257
I 1.8857154426005713 2.5480068810705645 -1.8273770585771034
O 1.5861074937389696 -1.8122011772851643 1.593910619802362
C 0.882218409573844 -1.0339798829182756 0.9554872834868712
O 4.146014980372673 0.12152034872440338 0.815645610180456
C 3.06643194058929 0.42182736587117375 0.4950066004489229
