13
## STRUCTURE-ID: 645688f901d17811717b9250 ; CHARGE = -1; SPIN = 1
I -1.9921473921575383 -0.7317166018916562 -0.18875694271865212
C -1.2697562110551013 -2.2635904687151216 -1.3160478636434112
H -0.8919264680173558 -2.0394865476298873 -2.29401548123813
H -1.12337215279592 -3.2180498647159013 -0.8487515010958406
O 0.9690495430796563 0.5507299265118588 -1.228180931290683
H 1.7986579842766557 0.42706851485617303 -1.7373210135047739
Rh -0.09516053819078399 0.3722533344031488 1.3722267969270683
I -1.4472075861993732 0.5476924716299388 3.6277913359867546
I 1.4478173605389764 -1.6934106375176459 1.9809613511797883
O 2.2125657989288245 1.7434394467256273 0.206665709088893
C 1.1414657299931623 1.2552600337325757 -0.11421994912563807
O -0.5068203411403925 3.069355479809643 0.07185710221833361
C -0.24316572726082578 1.9804549128012363 0.46779138721631447
