12
## STRUCTURE-ID: 64568847cf5c90599d623190 ; CHARGE = -1; SPIN = 1
Rh -1.2180384089006588 -1.0322871744781825 0.174766950629282
I -2.335429079996115 1.0212537279508995 -1.0339634940117588
I -3.2997502726951478 -2.4621696777272932 -0.3491301462653227
O 0.42089114877582456 0.4870227154119873 2.137448515549686
C -0.03603084269186622 -0.07724105815208607 1.214625532060632
O 1.2708223304978747 -1.0687653401361579 -0.7462275142050717
C 0.6927811537874087 -0.10154421666527319 -0.285960650522273
I -0.1985483991177019 -2.979169140873193 1.6984040418506265
C 1.0832014952085132 1.304862577696862 -0.6289536466071363
H 2.135705412794309 1.411358588828785 -0.36127362213039266
H 0.994653707968146 1.4424945158568394 -1.7069658302215351
H 0.48974175436942735 2.0541844822867974 -0.11277013612674504
