12
## STRUCTURE-ID: 64566673e9bbcb59333288b6 ; CHARGE = 0; SPIN = 1
O -1.4666167425117664 0.616368587175131 -0.8784892857361228
C -1.4348353993005736 -0.01901872220971298 0.3259718611363301
H -1.8599429392667113 0.5924868930354844 1.1233713870033828
H -0.2807688840903127 -0.18701585800449022 0.5269876236630694
H -1.8582146818785434 -1.0308483704178235 0.3101191309705208
H -0.5979534232828481 0.21961367105613705 -1.3354012237123132
O 0.7207902876516039 -0.3698517507802557 -1.3813369165371887
C 1.195736362012808 -0.06679355140281187 0.6477657306115049
H 1.510711262501773 0.9305977462408563 0.39226503347235325
H 1.8744485962960824 -0.8474461774661401 0.349272036539018
H 0.9439809851935186 -0.15519757429661118 1.7033187874410565
H 1.2526645766749813 0.3171051070702417 -1.7838441648516135
