12
## STRUCTURE-ID: 64568e1edb3a2b41fe333be0 ; CHARGE = 1; SPIN = 1
C -1.3134010318899467 0.7467709659572886 0.1582382988469515
H -1.4790459230652409 1.2439873230267233 1.1150789181886378
H -1.8831281725804092 -0.2031644092749738 0.13061401789987878
H -1.6667494471646263 1.3639815055177635 -0.672410568332855
H 1.0655827746003346 -3.1477555124474983 -1.9279306381278885
Rh 0.5585468531494249 -0.30668940866704864 -0.10980491839057527
I 1.1135364527711547 -2.928888297594301 -0.355324095256863
I 0.6212434245163512 0.0821226218439112 -2.692510805847029
O 0.6710294396563894 2.668398521314463 -0.14519127601314616
C 0.4862556684780154 1.5516986966651816 -0.11885860954073853
O 1.0266430093474714 -0.5887635473768398 2.857832322411653
C 0.7994869521810775 -0.48169845896467023 1.7602673541619744
