13
## STRUCTURE-ID: 6456888b084b670cad1688f0 ; CHARGE = 0; SPIN = 1
I -0.5497429179183093 -0.2097785172730188 3.0837458282693677
C -1.4523724764128845 0.05904201579442254 -0.6955294230872313
H -1.7718068508498943 0.9881037772447621 -1.166879075491825
H -1.9553863614636013 -0.0793685354620857 0.2656382219806391
H -1.6443846913955966 -0.7868090235397738 -1.3621876273351152
H 0.9948141872514275 -3.2503290031844627 -1.6915931242077134
Rh 0.5938042388589844 0.01574454138908555 -0.33363664507990515
I 1.040669007117357 -2.7071779625594456 -0.19905765074015666
I 1.2768884581073696 0.23383414157978702 -2.8274835698438587
O 0.12765652828767918 2.778235136535876 0.7636638004011146
C 0.3625961328168939 1.6703963986661632 0.480994892382926
O 2.0551930536414376 0.7055383064046352 2.0245731340938526
C 0.9220716919591376 0.5825687244040588 1.6577512386579074
