12
## STRUCTURE-ID: 64566b80e1ec722af65c0b0e ; CHARGE = 0; SPIN = 1
O -2.7897697810487125 0.5731999827533575 -0.2332658114432486
C -1.8839399567116482 0.7252523482466748 0.8408261099394162
H -2.1819907545290858 0.07636209214060777 1.6774175045352635
H -1.9899301331124883 1.7653512501800506 1.159216461383618
H -0.32139305584451155 -0.6055833600801979 0.15815574538266988
H -2.690527611974508 -0.3169751745119482 -0.5937966806329937
O 3.777538157188753 -1.690160088096908 -1.46787603979547
C -0.4397583498092725 0.43683260028624327 0.44731779613102907
H 3.790519115972804 -0.8084571922858689 -1.0861675185601112
H -0.1496772812110235 1.0663806410362053 -0.3901722034173966
H 0.2165695707243051 0.6418483382780681 1.2877212374232114
H 4.662360080355395 -1.8640514379462823 -1.7993766009460015
