13
## STRUCTURE-ID: 6456886755e94c22467ccc10 ; CHARGE = 0; SPIN = 1
I -1.5444281792008978 -0.8535382942444452 -1.0896229001995439
C -2.771268709830765 0.19174246688047192 0.383341378175689
H -2.731745408452466 1.2503602136509708 0.14760948367636317
H -2.355054008739443 -0.025118239306491753 1.3623430350037817
H -3.7779386025868034 -0.19929263757243804 0.28813794931726405
H 0.03470255935835212 2.626463450053645 1.5824820157500834
Rh 1.0310988870286664 -0.3240601024401106 -0.1916159839316374
I 0.4620635711254989 2.4328533204277316 0.06219267731738438
I 0.7663583078141718 -0.805724327124152 2.4113545339659304
O 2.718423437910067 -2.6940745593633717 -1.03680409982126
C 2.1621681106199495 -1.6945316843374436 -0.7668498539658647
O 3.46467644984543 0.27080581900473505 -1.8610292500462424
C 2.5409435851078306 -0.1758854256279703 -1.291538985241836
