31
## STRUCTURE-ID: 6456fff9c74e0a64da390814 ; CHARGE = -3; SPIN = 1
I -4.6851009504483585 -0.771176305989817 2.4030478303423406
O -2.7883978260083957 -1.9017481415865867 -1.967774467521825
H -2.9086264829034283 -1.4291520973762952 -2.8164024593957984
Rh -3.0107173973332517 -2.0572002923902266 0.8103913790691157
I -1.2220146148831044 -3.9040289772192414 0.15802142078719436
I -4.984444894690201 -3.6540347476790647 0.03528510165638582
O -3.3727693958622877 0.03726570892446704 -1.0268865383868844
C -3.0477000391272155 -1.1324464842013866 -0.9038843683979468
O -1.9070623597821432 0.5290815882103336 1.2312889108804006
C -1.7093650455610299 -0.6459434212099071 1.3076764343387501
O 2.5216009947453495 3.08228985554453 -2.283744689412854
C -0.5528206920006518 2.8727012917663286 0.0244563984435094
H -0.11384827504408397 3.7269403126155236 -0.4762984794154514
H -1.3371931878030947 3.171998983572211 0.7100652028542948
H -0.9580277258437437 2.177145853462653 -0.7081709609894371
H 3.2759360273501414 3.4909875336628255 -1.824032008943302
Rh 0.30256361562878864 -0.6498409046120851 1.9327554159054734
I -0.23480222253465793 0.06975272267384093 4.438246556904524
I 0.935009531930899 1.8227662947570995 1.0821674593629773
O -0.2793496138532134 -0.7425337277561971 -0.8717984916118171
C 0.5778781868113955 -0.973736605731282 -0.018373884897735372
O 0.876681826203398 -3.377562549529161 2.956644499564805
C 0.5830625199893035 -2.3881297130338908 2.455712179516034
O 1.7988430264632287 -1.4105739429915891 -0.40492015174422025
H 1.8456319562657193 -1.5734997313714727 -1.3693046208000215
Rh 3.036713846880403 1.0611565748071188 -0.22401160646129248
I 3.3770252557714318 0.1367055458633329 2.29247733407359
O 1.3808126694284275 1.1993181762916 -2.444095778080159
C 2.269012594989751 1.8079197056215075 -1.8567651560505474
O 5.663910896014356 0.6097413885864313 -1.5885310332343023
C 4.667557775206483 0.8158361063181038 -1.0532414283557614
