18
## STRUCTURE-ID: 64566fec640a5f3da53ae5e3 ; CHARGE = -1; SPIN = 1
I -2.170574871112157 1.370686598039511 0.49054066605109536
C -1.8048716730381495 -0.6995065971238332 -2.0179742108141436
H -1.4988067531151161 0.24911284221763022 -2.40977215559125
H -2.810550423227837 -0.7957282875774782 -1.6668284213311153
H -1.3050243126230732 -1.5744506666036162 -2.3869032886362906
O 1.210439596844348 -2.692862138055061 2.454850703560066
C 0.1980473118602796 -1.720224214263281 0.06496978487491684
H -0.6024011348885259 -1.2143734246077098 -0.51625484791524
H -0.14077437830555412 -2.6805194268909935 0.427760186790751
H 1.0906868434829862 -1.8245128990169803 -0.5400715062995103
H 1.3810400963418668 -2.7391597418309224 3.394615304041424
Rh 0.5929323203129945 1.8839583825661375 0.6368628713930239
I 0.711900711692485 2.6844698006466556 3.197977492862682
I 0.6453593138819779 -0.5305700648164664 1.7409803507183035
O 1.6595322399596868 0.6663712994603627 -1.8832384549468395
C 1.2549250042746665 1.171117013768902 -0.9280991058675286
O 0.829284958431021 4.779879536085335 -0.16157081654162458
C 0.7588551492280846 3.6663119880017723 0.10215544765130327
