12
## STRUCTURE-ID: 64566a1c2f2acd69db7ccc1e ; CHARGE = 0; SPIN = 1
O -1.464102622543503 -0.3101120030900329 -0.3110377526478463
C -1.4191324833938013 -0.0323422522305511 0.8652335111558873
H 0.7029526228572281 0.6153937737480141 -0.8541310869114921
H -1.383892124073961 -0.8013769919007588 1.6493579863891024
H -1.5847137019091322 0.9901570642762842 1.230782786233645
H -0.7503851131760149 -1.835888196418857 -2.3128146669539893
O 0.7344091452925366 0.2763621376032301 1.187385335920503
C 1.1867635028058372 0.9919619167361088 0.05343510946654269
H 0.9045180197773076 2.0322704279234864 0.20270205482225254
H -0.28788127525828905 -2.2265155739214255 -2.8030712837006173
H 2.270033737906244 0.9219715807323875 -0.04941850893405554
H 1.0914302917155472 -0.6218818834578841 1.1415765151600648
