12
## STRUCTURE-ID: 64566af8f964a74a2c56edf1 ; CHARGE = 0; SPIN = 1
O -1.2242117799682908 0.1694726623812046 -0.3044377134125592
C -2.1587299342463218 0.15426303128730862 0.44829579620271615
H -2.8293432817666653 1.0162295465002602 0.5647252411416964
H 0.9327050265152691 -0.9219712155423854 0.3943557738900916
H -2.395443237463996 -0.7231693593336492 1.0652528368634844
H -0.6064826692964842 1.5802328512127872 -1.5700292867697687
O -0.321208286127656 2.2817475734105037 -2.171147582767603
C 1.8098076458001036 -1.2891340979240187 0.9110134329487961
H 2.118702189486205 -2.2298245774480616 0.47447562043630165
H 1.5791081358175614 -1.4353464997145335 1.9581874629414968
H 2.6108186412799377 -0.5677125336404689 0.8167516288306303
H 0.4842775499703523 1.9652126188110581 -2.587443210305282
