8
## STRUCTURE-ID: 6456880667fa3574887ffa77 ; CHARGE = -1; SPIN = 1
O -2.105398783592568 -0.3132819392159787 0.3026831377418537
H -2.4116439135365897 0.37699459196372803 0.8992129809903017
Rh -0.46050914255857966 0.05459675264261049 -0.6480898579923632
I 0.28391121642482736 0.6156773949886194 -2.9982621177241198
O 1.482167383169476 -1.9264381429483695 0.280673809397977
C 1.027040892290969 -0.8044550800507195 0.27411618944153554
O 1.2725289592301394 1.501573946659731 1.2325425350741588
C 0.9119033885723261 0.4953324759603814 0.6571233230706617
