13
## STRUCTURE-ID: 64568b56f7aea35475610ab0 ; CHARGE = -1; SPIN = 1
I -2.6713515279613915 -0.37983415895472994 -0.5900812339644815
O 0.25039310133641146 -1.3124474976447882 -1.7125646320788952
C -1.4834762951110618 0.7316639719801482 0.7938915356496868
H -1.7188432060109897 0.34620401805139067 1.7857744503670039
H -1.8064720554853901 1.775294219143152 0.7089103267563817
H 0.6587659370099632 -1.6401018792521869 -2.542215052117611
Rh 0.5248414621363966 0.7378354178314311 0.34300166654879266
I 0.9966059785840813 2.348926540891988 2.380803719510874
I 0.9304164478540611 2.51256392355175 -1.5619612312996907
O 2.322646545081779 -1.0088764804495223 -0.9029247328853951
C 1.1088506500614694 -0.9315556721372494 -0.7915793823907273
O 0.3797344462820031 -2.128323779887581 1.2737072059562096
C 0.5078885162226567 -1.0513486231238025 0.8152373599478526
