12
## STRUCTURE-ID: 64566a616659303c4e30457b ; CHARGE = 0; SPIN = 1
O -1.0859577081146665 0.27388910110906783 -1.6883307575348419
C -0.39900523642484365 -0.6263004351700436 -0.9519528544921753
H -3.354492918079645 1.5064583003675986 2.692047645607074
H -0.8792668164566336 -0.9361557226646181 -0.019659675813464467
H -0.1392260075221642 -1.4834669524667972 -1.580584702773956
H -1.6818345882547958 0.831076052395721 -1.168388954273592
O 0.9426401184588322 -0.034195162394972264 -0.587816319277358
C 1.3250973962451633 -0.08600021657218501 0.8061919117048806
H 2.3077194317099634 0.37411933297022726 0.8894092184525239
H 1.3946559069387021 -1.13531909144032 1.0858050138184079
H 0.6104304043238465 0.4230771652765135 1.4531094829511537
H 0.9592400171762454 0.8928176285898076 -0.9298300083686545
