12
## STRUCTURE-ID: 64566a8efc55ba7fa14f7340 ; CHARGE = 0; SPIN = 1
O -1.216702897749246 -0.24715195788275124 -1.3709982848938655
C -1.1937584612779168 0.2878478531743187 0.5491963289535288
H -1.3007166507441457 -0.5634812055283508 1.1973103589060032
H -2.1261028496634777 0.7259326409449798 0.21931741702643048
H -0.49507171703550995 1.0346050222685401 0.885790131679521
H -1.7898056544684995 -1.022288029718615 -1.3867714003183345
O 0.5983860944308838 -0.7049204961483402 0.058290441865579475
C 1.7021731933871516 0.09599336074797726 0.19475344323502278
H 1.6875353660070849 0.9589458739433163 -0.49159186971889124
H 2.6084238091354655 -0.48795468129385244 -0.02464687283153555
H 1.8008627658103264 0.47554045904066927 1.2253756301620071
H -0.2752229978321063 -0.5530688395478834 -1.056025324065464
