17
## STRUCTURE-ID: 64568f4af1f09976524609ee ; CHARGE = 0; SPIN = 1
C -2.3930220118055843 -0.562094483950644 -0.44821914799862994
H -1.6331924173642653 0.17411829594057343 -0.13700239771339082
H -3.338932395103513 -0.2727926380493268 -0.008274698439109662
H -2.474318375671882 -0.5512502770070925 -1.5266215741071032
O 0.08884259660367792 1.975368793034852 -0.7146158916514329
C 0.6001234408520592 -2.3282596478693316 -1.6314329789830877
H -2.1192636736121444 -1.5500303388677816 -0.09940376477042873
H 0.4622271219594006 -3.2684404246791336 -1.1223057163615684
H 0.1600167827435352 -2.128927296019298 -2.594527761133924
H 0.5489472678560392 1.8338131468084145 -1.5485317292162961
Rh 0.4603992046191033 0.8525443200057321 0.8203181763836822
I 1.7905878506412833 -0.9404327331760574 -0.7900477633048307
I -0.06719250852999657 -0.8931874091613249 2.6464506266466232
O 3.366192149277756 1.0665790673777797 1.0156268821241616
C 2.271023102744998 1.4342435177495743 1.3388422147469217
O 0.9070276981548708 2.9917350197316415 2.761280587288095
C 1.370534166634678 2.1670130881314367 2.0384649364903247
