17
## STRUCTURE-ID: 64568e72219e1e0eed61a6dd ; CHARGE = 0; SPIN = 1
H -2.9162026233501113 -0.1600512858542217 -2.5127116003717345
I -0.2691569492381067 -0.5283710589994679 -0.8853843209898578
O -2.608276121329099 0.7765899401913042 -2.57032334192891
C -1.994697340756601 1.132419021017026 -1.3069817059243507
H -1.5905323808974483 2.135995981717902 -1.3854773029609535
H -2.75708902503991 1.0887771123968975 -0.5364371830652856
H -1.9277997530139148 0.8455032989457062 -3.2810183056783297
C 1.2412578688608862 -2.335454703949738 -0.7560539336327242
H 1.6504020420942735 -2.634956428965582 -1.7181828822378555
H 0.8097952526303454 -3.197284837925121 -0.2506968943938226
Rh 1.2397720305339175 0.49277653204699884 1.1092416972172643
I 0.5148733611958068 2.9557951561497107 0.8589652426955745
I 2.8525951392723408 -1.5564575825420852 0.48858779705321576
O -0.22781462061628913 -0.35331529887232915 3.4470254135486305
C 0.8015524816597211 0.02803782831220268 2.9575436177557894
O 3.1158257245557204 0.73322754839571 3.46751227939348
C 2.0654949134384726 0.5767687779351015 2.87439142351988
