36
## STRUCTURE-ID: 6456ea58838be67a8c2648b0 ; CHARGE = -3; SPIN = 1
Rh -3.3060956559524985 -1.180642461231019 0.30047331191582205
I -5.769631906195467 -0.5959951739676039 0.992088615653504
I -2.1387201259354565 1.2318603095593157 1.6026009863371546
O -2.742757081653969 -3.156987875145531 2.48322750577896
C -2.968173169190688 -2.411386499575577 1.6495626965479318
O -1.6507291704101565 -2.338412023394161 -1.8981491182945802
C -2.183895517411384 -1.9577114564853253 -0.9494486653200742
H -5.452871634503272 -0.771397305393432 -2.0112658746317096
I -4.102006108877193 0.24525927273282344 -1.6700170068468312
O -4.13928764471377 -0.2442700692684514 -3.636085214278655
C -2.323490512580342 1.2926190812463891 -2.300941828195954
H -1.6091064457066626 0.5751215465763412 -2.695916142294642
H -1.8891011853436268 1.755687736085724 -1.4217525671347513
H -2.5512591896947194 2.0616991416676704 -3.0289049060918227
H -3.5362647275104253 0.2441572295888008 -4.196412104987111
O 0.37424348056430073 4.024862551047307 1.5905624164734107
C 2.418268411873723 0.399177469088753 -1.765187557366091
H 2.6563175792079172 1.3897940811120284 -1.3998478895682045
H 2.2026873746942863 0.40022899487587715 -2.825739003268303
H 3.2157859824556594 -0.29214047498519313 -1.5197550246113016
H -0.23001803249802796 3.9229117215204234 2.3462824690844863
Rh 2.1046948926005253 -2.165919140540505 0.9987434293286827
I 0.6548045614413114 -4.2514815788636495 0.2648779746956181
I 0.6782510315106464 -0.21783504186046815 -0.7286730792241435
O 3.815265486183943 0.20507282256740142 0.8980443288763663
C 3.3534508595175243 -0.7449439623104146 1.550601376139992
O 4.725212718036002 -2.6630287046150265 -0.3085200573475292
C 3.6425362397070886 -2.599883254412347 0.14360731680036223
O 3.9319912000378916 -0.9714080465319057 2.788131516191169
H 4.629894144742792 -0.31420063716516505 2.976837072678299
Rh 0.49686018116694813 1.109072762994815 1.9157150735345818
I 0.46557451948337486 -1.4346264993922537 3.0237475630582726
O 1.3441029282523056 2.9156906293285205 -0.04491790598540355
C 0.7587177683233938 2.8272435851660025 1.0366614034662314
O 3.059960907876851 2.075520215704817 3.1391189983112087
C 2.0647878405011197 1.6362910542749955 2.7006498905751344
