12
## STRUCTURE-ID: 64566db3a481ed30747cab7d ; CHARGE = -1; SPIN = 1
Rh -0.6165530976433666 0.32426536133335554 0.009396014523251678
I -0.5867201366771699 1.8478766449758641 -2.1966825018616967
I -2.9478262080898214 1.6912910401289394 1.3343212035063892
O -0.9170190367745812 -1.4686425000966017 2.3778643479705064
C -0.7530014171014586 -0.8088650083350771 1.4539857153586442
O -2.347929795869246 -1.395848739333355 -1.7355971901813163
C -1.6226029288607489 -0.8060803407551567 -1.0706321913112498
I 1.25389583394011 1.8059049525818718 1.2543509052157027
C 1.9844970147803072 -0.156480904445954 -0.25669458950883317
H 2.932961449768037 0.3497834768411522 -0.3439891175902187
H 1.5909603093119133 -0.3826295948449805 -1.244332330900815
H 2.029338013216031 -1.0005743880500557 0.4180097347796327
