18
## STRUCTURE-ID: 64567396441096666f493a7b ; CHARGE = -1; SPIN = 1
I -3.309344555436787 -1.077884303971704 1.7394237729973834
C -2.034715632834606 0.508496712444971 1.0965019196033838
H -1.7940814059292252 1.1201053781135855 1.957308708451809
H -2.5607034990561077 1.0791425633812894 0.34146381233759726
H -1.1033126902247246 0.04830031162441141 0.6889180178267602
O 2.6142141033170088 -1.4619090925232 1.9168397977674625
C 0.028782432746164037 1.8460210869645721 -3.213899619672146
H 0.35255318847942807 2.4362523832285095 -2.3628517152423645
H -0.9464332279913626 2.1567819366575867 -3.567696887605265
H 0.7674418110697826 1.8693026096456433 -4.005602772945475
H 2.8439678397348787 -1.6072236534895827 2.855711278431817
Rh 0.7633031677347598 -0.6302967815366527 -0.040998001089949145
I -0.14754653386626518 -0.22809126876567484 -2.538173736925107
I 1.6601539937795242 1.7985413409418318 0.2876352907638102
O 0.3864151343675186 -3.5759167276735386 0.22885787965570614
C 0.4771760735673977 -2.432410445465741 0.0263809793310269
O 0.6613283654936054 -0.8520480511102292 2.8019503420759544
C 1.340801435048998 -0.9971639984660589 1.7882309342375728
