16
## STRUCTURE-ID: 6456b67f784ffa2b537c7c4b ; CHARGE = 0; SPIN = 1
C -2.425359491382525 -0.2238866305363427 0.9478901804261137
O -2.6660494841828424 0.4406519627149983 1.8259792979451341
Rh 1.5012859263503837 0.8439304022090311 1.243876428292383
I -0.09761668520563788 2.1717861327389305 2.905583472190359
I 0.30941286171622645 -1.4770950896806996 1.6018380888129469
O 3.8521361006867103 -0.4693447797635783 -0.036071544791289996
C 2.8957373124512302 0.0002386540854873796 0.4019949745683984
O 2.98104569126856 3.4394236718768583 1.170000557928586
C 2.4124500869605567 2.436891080170095 1.15831832666454
H -2.297046162359431 -1.1061429410127475 -0.5203432992999297
I -0.5283796130812655 1.128633915867433 -1.2278439347801322
O -2.11445156771682 -1.3897092513726776 -1.5049708976955192
C -0.8202124068924855 -0.9531497538738045 -1.9088199412318914
H -0.02353875526707658 -1.5482445784402852 -1.4577129080908793
H -0.7809588258327759 -0.9261652505277231 -3.000037732085651
H -2.1984549875128336 -2.3678175444549856 -1.599681068853173
