21
## STRUCTURE-ID: 645675ca5dc3814b41630f1c ; CHARGE = -1; SPIN = 1
H -5.533860620056962 1.1575492960415128 0.5556445455313966
I -4.516555246777028 0.07576435917552639 -0.016133656122171398
O -3.520984909633714 2.005845602369965 1.3010099853608117
C -1.8866810978308453 0.04391855559931795 -0.313026356630128
H -1.9715944945351325 1.0311849702158236 0.10237028288504617
H -1.9975708554771823 -0.10825980007611045 -1.3727144385957963
H -1.8209928379694407 -0.81047593619175 0.33854618754535953
H -3.2128231273691297 1.6912803719223863 2.1510274218338927
O 0.7707984930843288 -1.5287779189753863 0.633578170074012
C 3.8881120713507262 -1.7873392715521095 -0.13752773688179842
H 3.9257387015873304 -2.1595185185497052 -1.1542854096753576
H 2.947986392531851 -2.048340251562094 0.3403464568450622
H 4.736678983688039 -2.118188175478558 0.44614152340931335
H 0.49840394301107077 -2.2842454674711425 0.10072960320555582
Rh 0.6401326610584657 0.23686173687750917 -0.3899245495209119
I 0.8313419587185934 -1.0379111378828247 -2.669422987800076
I 3.945252959020173 0.36502701700953466 -0.22851657396097227
O 0.5815325121129195 1.569785762229291 2.286410789740006
C 0.5947219436608085 1.0700015096129454 1.2546188097691773
O 0.5287590501239601 2.8093980748581946 -1.9119986691416304
C 0.5716035197011571 1.826439221827688 -1.3168733978708729
