12
## STRUCTURE-ID: 6456685919eada576d4efcbb ; CHARGE = 0; SPIN = 1
O -0.9356299465826715 -0.43091136953550857 0.5675171934066494
C -0.8006690778345107 -1.0613352124495647 1.8248563478358213
H -1.2302499653738137 -2.0667446918132963 1.8128030719380732
H -1.2740703348311926 -0.47276803318126165 2.615873166143033
H 0.26604293394041245 -1.1342832125825593 2.0280646574859675
H -1.8736459017722598 -0.3731161469092853 0.34866615628632497
O 1.3405410498810677 -0.0407305271738014 -1.19329481742343
C 1.0231675268121443 1.2191176626062281 -1.738391173438125
H 0.11578506672409848 1.1725195601006118 -2.349125299863902
H 1.8600031344041232 1.5125630977430082 -2.37102101854067
H 0.8873053014818116 1.9701867248389986 -0.9545367675690347
H 0.621420213152018 -0.29449785164539 -0.5914115162606303
