12
## STRUCTURE-ID: 645667e05733856094112998 ; CHARGE = 0; SPIN = 1
O -1.2706671762129869 -0.37853152234088333 -0.7723417376508991
C -1.7521582531281599 -0.3704843462379318 0.5570985601221109
H -2.624229580435841 -1.0195704124538283 0.6673862947173045
H -2.009364956817202 0.6421201576470287 0.880423942906173
H -0.9483770342182374 -0.7512155565708248 1.1847159707992636
H -1.9744539218663533 -0.08240848535963752 -1.362346849201824
O 1.3165547050111264 0.8158962295305509 -1.0513978118764071
C 2.0506044176335627 0.2832426387848008 0.025349531009949335
H 2.1489688648960565 -0.8040982597574275 -0.05537600994008588
H 1.5868779365990073 0.5297592312172449 0.9865908271022723
H 3.0427117516891746 0.731763990140383 -0.011837610922217608
H 0.4335332468498697 0.4035263354005215 -1.048265107065642
