12
## STRUCTURE-ID: 64566730dc07f64f0b071020 ; CHARGE = 0; SPIN = 1
O -1.3416628826125137 1.246651190229027 -0.2988323011291381
C -0.9730440227829102 -0.327456491133936 0.8647795331001782
H -2.053848976260031 -0.29367120796120955 0.8937525747572242
H -0.48928081231823783 -0.04104861578049929 1.781406905240004
H -0.6107433808476322 -1.2391730175732203 0.4214884541387631
H -1.4891913271979593 1.9664371618207728 0.3256506090610765
O 0.8295483961595461 0.4050239232001024 0.055927398414186945
C 1.4626281612622214 -0.5143510338083599 -0.7386671271518805
H 2.41936425810191 -0.09948401289043728 -1.0895768877026495
H 0.8707741265400897 -0.785397899365526 -1.6289432810686155
H 1.6928844384831594 -1.4384534960591662 -0.18253559989925053
H -0.3174279785276848 1.1209234993224624 -0.40445027775984693
