13
## STRUCTURE-ID: 645689eaab3fbb3a15390820 ; CHARGE = -1; SPIN = 3
I -2.7522723153996327 0.4650375494347507 -0.10884358218528203
O 0.0851742797816323 -0.9562190850761739 1.6184231678491632
C 0.36403856583779093 2.8091060140341297 0.6137309807239647
H 0.9871504884909974 3.640038020576144 0.8797709111958694
H -0.630445936163488 2.695025759318488 1.0051232826592946
H 0.7427455068154183 -0.9775449511355755 2.3456267120877436
Rh -0.43502576783702984 -0.4775516318909825 -1.1581643936660486
I 0.06132646537261781 -0.9553489099941601 -3.763084659845066
I 0.7301939806372952 1.9440791885941715 -1.2308297161935988
O 1.7936113631167028 -1.4720053085698463 0.26393919434196084
C 0.6149451469255571 -1.2033417023906658 0.42444664626080636
O -0.8848888634221448 -3.3088569244939885 -0.2906828302594054
C -0.6765529141557177 -2.2024180184063 -0.5994557129693959
