8
## STRUCTURE-ID: 645663c6d6069d335b374190 ; CHARGE = 0; SPIN = 1
H -1.3183450004179458 0.47116862866535764 0.33886825933548764
I -0.6070854215040188 0.2511283702136739 2.545669310805288
O 1.1211678238099463 -0.39315840886658654 0.1339391416811782
C 0.4304120801414238 -0.16561978310048064 -0.9070887518928361
H -0.8547711819544834 0.2949413638363441 -0.4579473793931997
H 0.059075520908013976 -1.0254286194712607 -1.4784270202011343
H 0.6750905685670469 0.7205858172329559 -1.5056772983565605
H 0.4944556104500167 -0.15361736851000163 1.330663738021775
