12
## STRUCTURE-ID: 645669ba08b3b27f99092926 ; CHARGE = 0; SPIN = 1
O -1.4831667932490433 0.13322539970652697 -1.0433278054800472
C -1.4053016566355203 0.3120381734655473 0.30481310230608805
H -1.5459671813185027 1.3508720642875915 0.6277526762974822
H -0.27306465360211307 0.07725035578443684 0.5565568671491752
H -2.0518286105309627 -0.37898380811404864 0.8479265382702648
H -0.500702473761146 0.3966583949918386 -1.3357207761511014
O 0.925061757766629 0.5738421172932114 -1.1750688101067628
C 1.1027497922038012 -0.47833332440954657 0.6405053337415604
H 1.9861246441863425 0.13693450078753291 0.6236475239961498
H 1.1731268385612 -1.3885480445010845 0.06970705379590338
H 0.7797545953181981 -0.6645973750013763 1.6634593496299233
H 1.2932137410611249 -0.07035845429062475 -1.7802510534486462
