12
## STRUCTURE-ID: 64566b561bc43438266dc16e ; CHARGE = 0; SPIN = 1
O -1.6121370301207205 -0.9008073280974956 -0.0846746745701962
C -1.9760193998652658 0.10066088506395464 0.8354601516088827
H -2.080734108537265 1.0746195655988549 0.3472972887159277
H -1.2431592531280742 0.18529275232310216 1.6452962500242132
H -2.937012147349228 -0.18920407055680752 1.25910881363993
H -0.7745587226735533 -0.6329962144204265 -0.5041775292103504
O 0.8590285520212207 0.04419351589315414 -1.1698834868948795
C 1.94355257816206 0.13456192150275081 -0.2675019870181603
H 2.7330903555094586 0.7799727607021141 -0.6602871758337616
H 2.3579274285638396 -0.8522006679832914 -0.043408509493882176
H 1.5536167114214374 0.5724615009863748 0.649507900019915
H 1.176405035996104 -0.31655462101228277 -2.0067370409876455
