12
## STRUCTURE-ID: 645668203c39fd3aa512b096 ; CHARGE = 0; SPIN = 1
O -1.620919141355174 -0.01809104569886602 -0.9329480432676323
C -1.5185952830956366 -0.18199230093416105 0.3863257603637938
H -1.9205857956842467 0.6585833231129709 0.9842118389684922
H -0.3900669344533464 -0.18650203004477206 0.6206492697069953
H -1.9385654231213483 -1.1329574756953895 0.7568519244548967
H -0.35259225916856063 0.6317869846117089 -1.132512752343472
O 0.6498862757640419 0.9316406584114542 -1.0921095175807822
C 1.3482892127320567 -0.21744576078004055 0.4662390766261179
H 2.2428565125345767 0.248572867581087 0.084262196428093
H 1.236204375019254 -1.254538077630985 0.19717391436858922
H 1.1993192632584997 0.028681346414127055 1.5063458987227134
H 1.0647691975698874 0.492261510652868 -1.8444895664478087
