12
## STRUCTURE-ID: 64566734c8e9df3331662c60 ; CHARGE = 0; SPIN = 1
O -1.338740481666972 1.2589960153717026 -0.2829765592436124
C -0.9896227341822252 -0.35324638842151573 0.8332020978077839
H -0.5122492734563467 -0.10873368464762379 1.7651703285025415
H -0.6294134940930981 -1.2480899128788785 0.35532394760085395
H -2.0703736389835568 -0.3128367699881619 0.8552048315695432
H -1.4935601951041282 1.9588410834608996 0.3621419766424644
O 0.8264532725618321 0.40482134451383284 0.07975441210444563
C 1.4776738954102973 -0.4933597805322416 -0.7240913639936953
H 0.9041759470593034 -0.7446999438825992 -1.632082080839793
H 1.7001012648417237 -1.4299299118342363 -0.18589895606829046
H 2.439692699489534 -0.0675521966407888 -1.0464271564127663
H -0.3141372618763729 1.1357901454796067 -0.3793214776694693
