20
## STRUCTURE-ID: 645679c58af6a35f1d30457e ; CHARGE = 0; SPIN = 1
H -4.095928371424139 0.7268254573664821 -0.33288463953507164
I -1.0464818416788282 -0.15006670994338245 -0.5626086202295651
O -3.633668464058801 1.5796519339276685 -0.5061063138201306
C -2.5491200867182324 1.3524725660261536 -1.4505521569164093
H -2.916336433229377 0.9558704420855344 -2.3952011141817358
H -2.0254628060319564 2.2940724593166246 -1.5981843050527966
H -4.257661956269764 2.2678492836352104 -0.8474064255277391
O 0.3355691298445505 -1.4234064828355701 0.4733934009431004
C -0.6335641497121944 1.4372961675253257 0.7864811579280437
H 0.027840812893699832 1.0331262872564675 1.5405534611396188
H -0.12139759235010388 2.210220828843924 0.22658754521870267
H -1.5636513787864241 1.774784706467531 1.2248568792257262
H -0.15728378660861805 -2.1077882906676177 0.9274273439279899
Rh 2.897717521953345 -1.3266267185984915 0.45378893192569747
I 2.76286051646741 0.07523645149771119 2.6892169203331497
I 2.472563630943761 0.7334851188921072 -1.1102988154879596
O 3.4773384747588523 -2.9499282257534145 -1.977502049091736
C 3.2246120937089633 -2.3065181461257587 -1.0485959576557595
O 4.168208041440626 -3.5047271989683195 2.0555617443774574
C 3.6338466448572033 -2.671829929948167 1.4514730124794084
