15
## STRUCTURE-ID: 6456885b999ca475dd5a851a ; CHARGE = -1; SPIN = 1
Rh -1.429439060361177 -0.4865818722952195 -0.6420749484397453
I -2.1145380494794805 -0.3363104919359133 -3.1867571041021576
I -0.8243435578945812 -3.068733422749861 -0.5842295516093866
O -1.1417245740092086 -0.0012859573195383206 1.5021541052234253
C -1.227154130214272 1.061345983253081 0.8114594497103156
O -3.2413692056421453 1.8980050363908207 -0.35918617904654404
C -2.2718276477916683 1.18547459361256 -0.177092573739823
H 2.8248555617822286 0.32871182323498127 -1.4345558168748211
I 1.1648140150846749 0.06454633849999203 -1.212596354531996
O -0.23731666385248054 1.9911709062186758 0.8516298518489593
C 1.9267916818228426 -0.9619780262156842 0.5448606207103913
H 2.745199335505466 -0.37619860736438604 0.9486807162208167
H 2.2501047384793185 -1.9464321745875357 0.22143373283601017
H 1.1081063840208143 -1.0618884310301435 1.2516442501831189
H 0.4678411725496352 1.710154302288194 1.4646298016114745
