12
## STRUCTURE-ID: 64566731dc07f64f0b07102b ; CHARGE = 0; SPIN = 1
O -1.1936098321784379 2.4077043834667684 -0.6070971658590852
C -0.5045263670211403 -0.9699608785804278 0.9249972358170682
H -1.0911680623004831 -1.5894920410735434 0.23786561231922784
H -1.1717196366445342 -0.45223201951690106 1.6100090064587824
H 0.1779069138178154 -1.6131322468197185 1.4908264097567243
H -0.9039700724585932 3.0480479946828174 0.047072739780855195
O 0.21018180148655416 0.024521561594785603 0.22334425690514959
C 1.12735501461256 -0.5124220244838619 -0.7053568430937373
H 1.6170305893704786 0.3313650642908422 -1.1856644717863185
H 0.6120554762034394 -1.116566280630823 -1.4600801537441896
H 1.874658262125004 -1.1334965415059615 -0.2001020898909727
H -0.7541940870126719 1.5756630285760147 -0.3758145366634811
