8
## STRUCTURE-ID: 6456635041b6d312697ffa88 ; CHARGE = 0; SPIN = 1
H -0.1242788750882089 -0.8527960655309742 -0.5174086342015369
I -4.671516835469445 0.7467824688783113 0.09172853670818422
O 0.9394905204336845 -0.030091892511448438 1.1314181376849615
C 0.7141083575208492 -0.13859794613903598 -0.26455231086152303
H 0.08138819461441026 0.7075369498751959 -0.6702794943282282
H 1.3826147589048152 -0.99173217324774 -0.6233351338499352
H 1.5582622177712904 0.44691647323682243 -0.7654617166976053
H 0.11993166131260743 0.11198218543888243 1.617890615545671
