18
## STRUCTURE-ID: 6456899f3967cf0d274ed2b3 ; CHARGE = -1; SPIN = 1
I -1.1958678180726998 -1.4175091961696837 -2.8424518695970122
C -1.8311705356410195 1.1232464707064151 -0.09430497457565959
H -2.549115061004423 0.5763765123293282 -0.7160114396888505
H -2.118327778133103 2.174148407436548 -0.10193269256306664
H -1.9115415503064062 0.7283948319831204 0.918094518620858
O 0.38008174601913103 -3.287523461334064 1.8628250442980268
C 1.3915198307703185 -0.7594030825789104 1.7838988570907104
H 1.8009314122896072 -1.5695511202782428 2.3689684445511356
H 0.7843280644692324 -0.11094995384309367 2.4048468094966284
H 2.174660273158294 -0.1981064571666757 1.2856955457080477
H -0.0615113771942193 -4.084996828036482 1.571996683910276
Rh -0.06045412608899228 0.5081907625703678 -1.3123659729944106
I 2.531689186755492 0.03458428708900919 -2.022353104184871
I 0.16144066776538726 -1.6486184581718184 0.305178074425004
O 0.4026353745258544 2.29749257763835 1.033205976680972
C 0.1411283843486478 1.6045482284492354 0.14440138296567853
O 0.09673971774146249 2.2895036168092853 -3.780582813893691
C -0.13716641140260333 1.7401728625673036 -2.809108470249801
