12
## STRUCTURE-ID: 64566785c47b016ce05b5c2b ; CHARGE = 0; SPIN = 1
O -0.8479272657214736 -0.8815782654916987 0.08965964494721607
C -1.204620256636446 0.31726691037259563 -0.6457956096909856
H -1.1975353922195235 1.2006722765502322 -0.008754420750994439
H -2.196514292768159 0.15425253928276877 -1.0621223726733933
H -0.49018662927361534 0.4454775685966602 -1.4572786749249176
H -1.4743947939968451 -0.9798255723702296 0.848772938379928
O 0.7046614982064634 0.02887701159954823 1.598331988882789
C 0.5440754063493074 -0.9072532285746536 0.6322751678440239
H 3.2716198999541355 2.4626008374650783 -2.0973001462914325
H 1.1974236115936838 -0.8007912957304553 -0.23752111121397135
H 0.634697375172337 -1.9050347068147209 1.0721556293522863
H 1.0587008393401356 0.8653359251148478 1.2675769661394558
