18
## STRUCTURE-ID: 6456735a4bba196d5532dfca ; CHARGE = -1; SPIN = 1
I -2.5568346194072817 0.7456190142802236 0.986326772211864
C -1.575462368915034 -1.241221279166929 -1.6242737549753448
H -2.183078997318433 -1.8893049953695795 -0.9860158066369962
H -2.255779926812149 -0.6239028320671212 -2.21983057740579
H -0.992264354380294 -1.8685433205022766 -2.301718380035024
O 2.3790874826249424 0.021853431595670443 -1.0847568553207696
C 0.44994691746973264 1.1971627141793073 3.390028995197661
H 0.5067232908163816 0.12751102585954946 3.5643821000006852
H -0.5811528131950087 1.535621961053389 3.3909877812865528
H 1.0545581037935383 1.748917770507006 4.0994292127567045
H 3.174480045506165 -0.26862831216681804 -1.575712159246273
Rh -0.32093357307878817 -0.08877474599277509 -0.39363871934114997
I 1.2706057934597474 1.573403695725477 1.4122953489698333
I 0.19520816151107712 -2.195202188574331 1.1608417743253396
O -0.6451678625376237 2.0765688041614023 -2.399436220594432
C -0.5284222951825069 1.2629338799707923 -1.5942321555636543
O 1.3355995015659303 -1.462690599760541 -2.363331235321542
C 1.272887514079538 -0.6513240237324223 -1.4613461203076759
