18
## STRUCTURE-ID: 645670066a49ae3052293431 ; CHARGE = -1; SPIN = 1
I -1.9430593972736907 0.9816178110526156 -3.1758270843970466
C -1.6760703370664316 -1.2443337533675878 0.5950336404893254
H -2.1390854569967224 -0.5578451786245338 -0.11255399516860509
H -1.589806312811199 -2.220100180500683 0.12503365217268123
H -2.3308376485532585 -1.3213340420709965 1.4602577804980499
O 1.2886181852056935 -2.7665653676109 3.1026225710590207
C -0.3378411471350007 -0.7373210362658184 1.0657489186842575
H -0.4125512369882033 0.25688091581607375 1.4988727867025955
H 1.8894315455793844 -3.3960565352158176 2.6954074075836383
H 0.15341851125099473 -1.4187778995294587 1.7563949927999931
H 0.9419277616692562 -3.1826728323831373 3.896788157514904
Rh 0.10653568548686301 2.188239280498471 -1.9947158409314882
I -1.2901103255629631 2.950666058144737 0.12645865168483222
I 1.0901920273702699 -0.5138462120872814 -0.6007590525892412
O 1.5447311753332762 1.8143359022405074 -4.584877346522098
C 1.0026677535572404 1.9443197375670294 -3.5747553646641217
O 2.259599340068527 3.964175106095572 -0.9358532908795778
C 1.4422398768659639 3.2586182262411576 -1.343276584037157
