12
## STRUCTURE-ID: 64568eda2c430137ce4dd530 ; CHARGE = 0; SPIN = 1
C -1.4122154936289593 0.7634014815300587 0.47672316175155954
H -1.188163342454866 1.8219528879264255 0.6001105867119497
H -2.077945710490118 0.40817478453869277 1.2643132079069008
H -1.9049979801182102 0.5920690673791411 -0.49652552860320975
O 2.2836062149275023 -1.249831997265849 -3.0184449944905207
Rh 0.2759075725281492 -0.5341109031962654 -0.0010797797579978874
I -0.9820105050770775 -2.665068509609263 0.7709994470397271
I 1.1055473089366663 -2.0769256807166867 -1.8703316361905473
O 2.072645445939192 1.4338803061317715 -1.3901715525859244
C 1.361294257647195 0.7690040900559725 -0.8161182548069965
O 0.2686386175591325 0.5477619192180225 2.7766702429461763
C 0.19769361423140602 0.1896925540079316 1.7038551000788809
