12
## STRUCTURE-ID: 64566943f6902b5ea7750ef9 ; CHARGE = 0; SPIN = 1
O -0.27497838072067443 -0.4496829871567053 -0.2461216321143729
C -1.1624971250050948 -0.5727037839128581 0.8524366617210034
H -1.3046999777706774 0.3803701351494303 1.3676393055745526
H -0.7267255739476763 -1.2994126091954303 1.5347291299222545
H -2.1364984792101063 -0.9301981763214848 0.5150423239169454
H -4.1272738954989086 2.672066739992356 -0.965049926700338
O 2.1491401149293967 0.4487870163987614 -0.7804914057411917
C 1.5938873480111244 0.26316000175432547 0.2762104637287961
H 1.7500278513226672 -0.6573772887819624 0.8572801500354321
H -0.6572641373625727 0.15379458123723735 -0.8995663095494292
H 1.1387587655201066 1.0863438946816788 0.8471910928071889
H 3.7581234897324247 -1.0951475238453505 -3.3592998536008434
