18
## STRUCTURE-ID: 64567104b9146153b528a810 ; CHARGE = -1; SPIN = 1
I -2.131410532472294 -0.987640035305021 -0.3923598906619214
C -3.003388678720421 0.3424879412006605 1.057797198794345
H -4.064308667075181 0.13512120411026238 1.112608692209546
H -2.8128489949604836 1.3592680146056997 0.732052852527025
H -2.5119590885870235 0.1393639561238479 2.0028536963853956
O 1.2306964624916996 0.7623958290053736 1.5560044312164698
C 1.285244297871098 1.047886075996938 -2.3505198215427114
H 0.7921264333715134 0.7690057962334509 -3.2736624978330853
H 1.4903451125117542 0.1628085176762991 -1.7332075553950894
H 2.1958656334435687 1.601329149149704 -2.5371680410137807
H 1.1830206385920534 1.2228689056748416 2.41732057997659
Rh 0.41948359745598895 -1.3698929078649993 -0.1313476886954
I 0.2626712215048585 -2.8450378671583767 -2.350507200546728
I -0.0352825688459789 2.29901888298184 -1.2410849884628932
O -0.1437436920841768 -0.6514692059251744 2.585300287844822
C 0.45971930598893224 -0.36123732797282904 1.5499999420917698
O 3.228959168990927 -1.9205616781870984 0.6949182625084961
C 2.15481035052317 -1.7057152503454118 0.30100174059714074
