19
## STRUCTURE-ID: 64568f049334e03c281aaa10 ; CHARGE = 0; SPIN = 1
H -3.144383622154263 1.50328535684552 1.8308279243096193
I -1.6055220981627338 1.5042368763412903 1.2280034405457967
C -2.432698163910688 1.0919134735422356 -0.6844311349807507
H -1.6021385489306472 0.9627216394134976 -1.3682878744492952
H -3.0100660044456085 0.17850756701014764 -0.6009376623282826
H -3.0435265622487564 1.93835211199502 -0.9738497094206593
O 0.4454360978747271 1.4939510265667422 0.11989428309219148
C 0.02221781237012654 -1.6214490370883028 2.42391517567878
H 0.37843771709156726 -0.6171001346563187 2.6282061291616903
H 0.7427099352044516 -2.366123986423577 2.742943433162331
H -0.953067017298397 -1.79581647602545 2.8657332752853124
H 0.8961245352207111 2.32261798940989 0.3139714868332264
Rh 1.6388249878292989 -0.0633431562432794 -0.70968242068368
I -0.19692790939209912 -1.8103305116099875 0.26426635104085705
I 3.856933292989347 1.3609136052424 -0.30918387961439864
O 3.316758112919747 -2.0773938249261454 -2.1866326441630557
C 2.628938525255164 -1.2725389805623477 -1.6945204059527872
O 0.47715038741306304 -0.45156010098219723 -3.12691317349518
C 1.5847985223749768 -0.2808434378491086 -2.7633225940216914
