12
## STRUCTURE-ID: 64566634f0e37b4a3d750ef0 ; CHARGE = 0; SPIN = 1
O -0.46213081888582735 0.6228572884862901 -1.7197238846212417
C -1.271502133302347 -0.4892558004543984 -0.27877077443389703
H -2.1481191788151572 -0.21679578568149996 -0.8506095113955858
H -1.2237253695189296 -0.0319646588771194 0.6943640183746032
H -1.069120517970416 -1.5449313114773124 -0.30395031269731076
H -0.6108272100035522 1.5332826745677826 -1.4376299084127044
O 0.8359906638809378 -0.5417184097557102 -0.12256864941011432
C 1.2860490319009938 -0.00468901294434854 1.0546664805124943
H 0.787104744981014 -0.4636091354836633 1.9247587591228827
H 1.142089242905029 1.0882594222044473 1.1135596927823557
H 2.3636477933963183 -0.20123080078463235 1.1608864335647002
H 0.37054375143194324 0.24979553020015663 -1.2349823433861788
