12
## STRUCTURE-ID: 6456650da27d603d1a11299b ; CHARGE = 0; SPIN = 1
O -1.8375786984304159 -0.5436247991341439 0.9565268064386887
C -0.9047868471137281 0.39424937740260957 0.9790336100539179
H -1.049781603262973 1.2768674898891914 0.35273984332885416
H -0.5876954019619889 0.6107576161380157 2.0007477642432607
H -2.3346416127907497 -0.6024346641869736 0.12374010061831749
H -1.3165114872334478 0.6368902849214904 -3.8861983677797056
O 2.081222553677079 0.42965133893239 -0.20270185483794895
C 1.2664352273304604 -0.5751754115128219 0.07633338624176823
H 0.9314437252484636 -1.2077795568785938 -0.7480002951342583
H 0.16455578191348677 -0.09162286908016065 0.487547507666961
H 1.6045478661531027 -1.1244148324811578 0.9571746277119657
H 1.982790496470708 0.7966360259901377 -1.0969431285517819
