18
## STRUCTURE-ID: 64568c57cf3cbd7fd66aac60 ; CHARGE = -1; SPIN = 1
I 0.2807595141279195 -2.4851310814193197 1.9820417777847381
C -2.3381589422391946 2.554620782752176 0.11689710881236141
H -3.3555671528303708 2.592046130863832 0.485075413396486
H -1.8753487103336386 3.533162419420535 0.1280666923891286
H -2.2950204305695854 2.1102244904060616 -0.870670913966558
O 0.7018348994063986 -2.4009153940758967 -2.1030790345634682
C 2.809332444280358 0.6038253978516378 1.9802447428858907
H 2.8014036818651906 -0.3633786475219157 2.46998978491853
H 1.9900782960359478 1.2180252597218297 2.3387429066196352
H 3.763900181686831 1.1015486927443254 2.0903900602034593
H 0.7709245613930512 -3.3113837602821836 -2.4509462645491347
Rh -0.2965112457394924 -0.7796238428013749 -0.001222763771835733
I 2.490620651059986 0.2592190969461111 -0.14288461081735157
I -1.197927809432395 1.2657017165559017 1.442692503887795
O -1.4417544901602828 -0.18313745131681558 -2.7278837058248504
C -0.9457196931332836 -0.49293657761352905 -1.688914299915917
O -1.3687460417021777 -3.042508965191775 -1.5431955935395045
C -0.4940997137152849 -2.1793582670395875 -1.5053438039494271
