12
## STRUCTURE-ID: 64566a3a1ec48c5da112b0a1 ; CHARGE = 0; SPIN = 1
O -1.20386402949487 0.10523069212857124 -0.4440536909113525
C -2.30519576385917 -0.06280924315362946 0.0016955415659903822
H 0.8472048990608925 0.4134063724250269 0.9713594321301712
H -3.0259743594779955 -0.749067396551929 -0.4634655726255017
H -2.6549523004616455 0.46082747333234947 0.901881854642118
H -0.35122501126676653 -0.5273226711891298 -2.1292485519330833
O 0.05819849041538137 -0.7989272023047935 -2.96192945969249
C 1.7143119116575118 0.3860003402020044 1.6182448209208333
H 2.207667439120541 1.3489637153702108 1.6021912799410967
H 2.399115799021209 -0.3759469102113175 1.2697081231524268
H 1.4049590281185997 0.15567941090916337 2.629423718944285
H 0.9097538971663198 -0.3560345809565147 -2.995807496134509
