12
## STRUCTURE-ID: 645665ef70088b2e944975bb ; CHARGE = 0; SPIN = 1
O -0.9912269858461126 1.2163583891312304 -2.1475979697424465
C -0.6868974338848225 -0.9098962564434627 0.9636015132166745
H -1.1319582797229046 -0.07807882712694786 1.5203356500940641
H -1.46986169987958 -1.4940911100637282 0.4859916560829326
H -0.1264520997576112 -1.544521666032239 1.658053278897237
H -0.8951852571311503 0.7385041372017677 -2.9748069642691215
O 0.15138034301779119 -0.43461291167662325 -0.06754599969814287
C 1.2390059547956374 0.3228827910191084 0.419368973888941
H 1.8571609897364851 -0.2747257246128042 1.097478068365583
H 0.8890234889423156 1.2166223904757993 0.9472544503394498
H 1.8254543672593126 0.6180454064912089 -0.44705332201823683
H -0.6604433875293791 0.6235133816366694 -1.455079335156916
