12
## STRUCTURE-ID: 64566a3663eda97f96763461 ; CHARGE = 0; SPIN = 1
O -1.1099963905535668 0.11625002124528125 -0.4627599137247133
C -2.2220801089415265 -0.03705300486566675 -0.03834125200312165
H 0.9420747461466027 0.37551800309749844 1.0059181628739398
H -2.993798806105774 -0.5770597263719348 -0.6032843471527974
H -2.530656829468054 0.354477228371529 0.9401970155565256
H -0.42779341867358417 -0.4775327643395353 -2.218205281827724
O -0.15627318166250637 -0.7754084858396073 -3.0976364483162127
C 1.7381430860598945 0.37402367870233444 1.7389204665286118
H 2.1502778036315533 1.370730203859758 1.8267767713024083
H 2.5152135474305735 -0.3107021362261196 1.4252714799106072
H 1.347391711557747 0.05948883019193756 2.697857946335078
H 0.7474978405786521 -0.472731847825461 -3.2147145994826176
