13
## STRUCTURE-ID: 645688646b1aec2ced1a561d ; CHARGE = 0; SPIN = 1
I -1.5418889573292327 1.7722689308069561 -1.6083186876824267
C -1.240527374348237 -0.42839129714200597 1.0361204138534912
H -1.8543953764701573 0.3288490050431767 1.5307765610717632
H -0.8478283719380538 -1.0889494029154525 1.8115472833033321
H -1.9259792262470978 -1.0020826747716007 0.4027245820179751
H 0.6697969297508408 -3.140926976449409 -1.3788625405784747
Rh 0.28605387620432915 0.263498020949245 -0.2963185289174123
I -0.12361323722195523 -1.9449231582884638 -2.0611116600583994
I 2.2202540295618007 -1.0597789215608455 1.0388563375212323
O 0.19666578067225204 2.1348769306200515 2.004067376722646
C 0.22811916720789988 1.423442520002227 1.1185572377605164
O 2.318267441656094 1.710017642122914 -2.085341608457893
C 1.6150753185015179 1.0320993815832098 -1.512696766556355
