13
## STRUCTURE-ID: 64568c556efc6e26065c0b03 ; CHARGE = -1; SPIN = 1
I -1.7730819859416869 2.034041430370565 -0.6124527424399818
C -1.5390825520017324 -1.061951556400304 0.9173124806854311
H -1.3533405708174857 -0.9860729116789587 1.9912703468188957
H -1.4997551027588591 -2.1043965976035532 0.603544576946818
H -2.5161895583071026 -0.6481295237995133 0.6687560183675576
O 1.149988713507594 -0.5214247121837395 -3.297600938411126
Rh -0.02924087554723723 0.10844679239982642 -0.08501840082657372
I 1.5770642018153271 -1.9419595592025602 0.5077293745371125
I -0.492755412149331 -0.9444236974880446 -2.530067973464287
O 2.9129145666275003 1.0175620292822607 -0.40153366916756056
C 1.755760143410772 1.0264905501908854 -0.20759754187969204
O 0.978462927348107 2.513088268444938 1.532513369987794
C 0.8292555048141453 1.5087294876681812 0.9131450988456158
