18
## STRUCTURE-ID: 645671798d31b643361dbea0 ; CHARGE = -1; SPIN = 1
I -4.262257273520095 0.9419569123704181 -0.543431050171084
C -1.7943019240954108 -0.5935809909176266 -0.5849661058161278
H -1.426729276129954 0.41422490518943184 -0.48630002164677627
H -2.220706961061748 -0.8713168476667827 -1.5323085669192567
H -2.27319249477232 -1.0025077937552496 0.2851457721024781
O 0.47108283278361485 1.6743901394154894 -0.06550016888071879
C 0.8907297891765047 -0.6177292951739916 -2.3230287895688595
H 1.9348112108628865 -0.8655282188735193 -2.489528447835568
H 0.7705392726705292 0.42847366372792084 -2.052853652418694
H 0.2599696721608358 -0.9072928841250444 -3.1564846593086444
H 1.1575434889281304 2.2555821917163823 -0.40750326432694345
Rh 1.0856337218211203 0.47406672386501064 1.464121565464745
I 3.501713064982899 0.42604910278374564 0.46198486056611715
I 0.23280712501295298 -1.7265292855693992 -0.6018502153400732
O -1.4201388012233094 0.9472238317801429 3.0230066165287672
C -0.5049928057453799 0.7636100880904639 2.346471895572792
O 1.9654441819297952 -1.1718056056277095 3.795077837631618
C 1.6320451762224775 -0.5692866372294448 2.8679463943690444
