23
## STRUCTURE-ID: 6456b8e9a03cc61f8b0b39de ; CHARGE = -1; SPIN = 1
C -1.8429807256076267 1.2899504823714323 2.455629717755632
O -2.368922714096071 0.337149211101036 2.8448576211314527
H -0.1852589669829107 2.4575654052324842 0.6057622780405653
I -0.9275473410438313 1.1580660926092536 0.013607229392046106
O 1.5946928998743022 -2.863199259660569 1.7063943733581644
C -2.294535010072781 2.8090301503995776 -0.7495595136342907
H -2.724985590938114 3.2791651752962787 0.12546585445899563
H -3.060451784302226 2.3627756731993625 -1.3697573474567408
H -1.6855432200236835 3.499643237456299 -1.3182213303697758
H 2.5117455231616055 -3.1714542719213275 1.6350025607011656
O -0.6888659896251585 -1.8861036351197382 -0.9077907035395608
C 1.8288515874598228 0.029210620362429676 -2.3096660548184165
H 2.6021395380932786 0.18926700088929752 -3.049659066696465
H 0.9547590850966545 0.6473453891833643 -2.4866309646876443
H 1.5614983168382408 -1.0197130776316483 -2.2333386800276407
H -1.6196410113844129 -1.6194680033917996 -0.8266576131510734
Rh 0.7891175431040526 -0.40060038824820976 1.2491929706627762
I 0.8142981014333188 1.3089944225120351 3.3671139774242715
I 2.636317547889278 0.5824459702632417 -0.3873548242450615
O -0.8971436472585437 -1.8600090242633218 1.3886493950832006
C -0.15731713094265848 -1.9972340956777102 0.3619505470833513
O 1.953619658499523 -2.693128053107874 -0.5431883714522284
C 1.2061533308279613 -2.439699021853934 0.4281979449872588
