12
## STRUCTURE-ID: 6456684c0f4f4f00be6aac6b ; CHARGE = 0; SPIN = 1
O -2.875396585539616 -0.5225339820426564 0.44537451429565633
C -2.5747411221244945 0.45657048418956125 1.4159318556406926
H -1.9810263328619089 1.271679568853653 0.9917501851144186
H -2.037777754664337 0.024919631702925164 2.2659456000449487
H -3.5269003278891335 0.8534578311404651 1.7638151507660245
H -2.0484170054838073 -0.8932516747357943 0.11493756899721753
O 1.698236820750156 0.5133045655126784 -1.0544653151714964
C 2.7658425977978554 -0.4081950299409855 -1.015655931015981
H 2.4670343145166194 -1.3838827454608396 -1.4111420795267466
H 3.0424587498277504 -0.5202116890281806 0.031268233742693746
H 3.632347071190757 -0.04254643625177994 -1.5744600720925468
H 1.4383395744801677 0.650689476060939 -1.9732997107948864
