12
## STRUCTURE-ID: 645664ebe860da59d50b39d0 ; CHARGE = 0; SPIN = 1
O -1.2511751597158427 0.9189200775151157 -0.212947563216355
C -1.073104534546259 0.0033071981222456887 0.6522309608615338
H -2.892363961228198 -0.3770609996858295 1.3016192334672159
H -0.8170047079314258 0.19293968029306696 1.6815953055986783
H -1.039361811939452 -1.0105469598976295 0.2903732884212835
H -1.285176990483223 1.8301203215677844 0.14174221954210062
O 1.1244207379197473 -0.1319192893884577 0.40373583836105703
C 1.3752734135543894 -0.45834545922974035 -0.9534460252511621
H 0.8286399358563702 0.20996078413056124 -1.6237281155770291
H 1.0276623952166752 -1.477927998608334 -1.1050907664910472
H 2.4423282209543813 -0.4107370806435145 -1.172907935726271
H 1.5598624623428756 0.7112897258247128 0.5968235600099666
