12
## STRUCTURE-ID: 6456652063a93a64bd5b5c2b ; CHARGE = 0; SPIN = 1
O -2.8786956227406026 -0.5386421418818392 0.8423313330136237
C -2.5011113276785744 0.11820550446592393 -0.3478531937006953
H -2.50596921397621 1.20529447606737 -0.2248982394533441
H -3.237475328852516 -0.15489383820225583 -1.1017364476492266
H -1.5104389402557874 -0.202576662606035 -0.6847298828550322
H -2.2550166137871894 -0.3035668822081281 1.539643133569831
O 3.5273062224554543 0.05956177102396437 0.26580052574742374
C 2.1357872750423037 0.09120978246032031 0.03668746446199346
H 1.666994703574316 -0.8640563145378413 0.29243438295467583
H 1.9065571015644056 0.3396773137798927 -1.0041278632118011
H 1.7319635903074113 0.8689938849671476 0.6824251502014858
H 3.9200981543470013 -0.6192068933285234 -0.2959763630789306
