12
## STRUCTURE-ID: 64566af379b5484b047c7c4e ; CHARGE = 0; SPIN = 1
O -1.7162061238348723 -0.09680711533557425 -0.7364446904262929
C -1.9710607959409832 0.090654803655981 0.6354501914303587
H -1.390320088916207 0.9270111916152486 1.0397088411944924
H -1.7462501337741834 -0.8120854308547799 1.212303598954663
H -3.031746997204681 0.31891922249194843 0.7347076559589845
H -0.7800238286150912 -0.3476907311879692 -0.8385514511587755
O 1.082858353036139 -0.6881788358747356 -0.8358356684579544
C 1.8679573398053928 0.18176429939578137 -0.044749996474264156
H 1.3881261950047485 0.23822569147837122 0.9306727610364692
H 1.9116842100026066 1.183823348265058 -0.48053261284429105
H 2.8823981347081897 -0.20394686078511626 0.08170646898224047
H 1.5025837357289522 -0.7916895828642061 -1.6984350981956335
