12
## STRUCTURE-ID: 645666d7956dea066e7b925e ; CHARGE = 0; SPIN = 1
O -1.7278040455119952 0.6103357013900526 -0.5413500829542048
C -1.0034942864020713 0.8961519848102911 0.5614555130759427
H -1.49399867895106 0.6998448818567169 1.5194414639514782
H 1.6434335727050913 -4.76838226824283 -0.0791318496576224
H -0.6545571542376983 1.930373311670023 0.4974731996033836
H -2.3150285394766335 -0.15243545848695023 -0.4351702441905847
O 0.2596813248253787 0.08445880099647915 0.6216504796498972
C 1.1437634573931057 0.3444784454789622 -0.4995714595950098
H 0.5878968174108906 0.33493138819913887 -1.4375768425338997
H 1.9128154179323464 -0.4239134539313988 -0.513524455662122
H 1.5967327781833318 1.3202246759259806 -0.3344243420961331
H 0.05055933612946604 -0.8760680096665239 0.6407286204087796
