17
## STRUCTURE-ID: 64568cf86615de32036b0e10 ; CHARGE = 0; SPIN = 1
C -1.6339288357866149 1.0659316210379748 -0.3287554957100043
H -1.9306900003114755 0.6375508146465946 0.6234965399433207
H -1.9944937658705568 2.089940874429671 -0.4106811124308981
H -2.069941647017013 0.46184565740750605 -1.1388699644933444
O 2.1172473985796105 -2.881296012193693 1.0325909195282648
C -0.18445605607164914 -1.5433580442416877 1.7188335556142462
H 0.17570904843787863 -2.414851164257311 2.2492786191816068
H -1.2497586791130249 -1.6061116864809022 1.531553165811058
H 0.0839030285168397 -0.6324460532016142 2.239694353052779
H 2.765959718978918 -3.315346301643641 0.47822847378795985
Rh 0.4227286505801322 0.7932509669508666 -1.1575740322880588
I 0.43511404981498664 -0.4449336872789699 -3.4958733087678144
I 0.8157056165515616 -1.5735952481625919 -0.17054678314997804
O 0.18047999500238673 2.159927784371688 1.4785094256770686
C 0.17890149761149748 1.6303828246940768 0.45990432715806984
O 1.01895367108529 3.2033464929232682 -2.9342198246590057
C 0.8685663090113168 2.369761160999001 -2.1755688582552297
