33
## STRUCTURE-ID: 6456bf16d3aa964dd04ed2b6 ; CHARGE = -3; SPIN = 1
Rh -3.4307242196705303 -0.8305938327361103 -0.8241303383415024
I -3.6512122667486318 -1.6287187645133991 -3.3441338619009358
I -6.059722235417921 -0.782553541518116 -0.42469898414808926
O -3.066739901196319 1.1151921018973339 1.389634622736973
C -3.2350263416660345 0.24468422595953296 0.6317042639185321
O -1.5092094580357933 0.9199369256304881 -2.1460253011734403
C -1.8689080511135916 0.07505281667545088 -1.3910463755493045
I -3.3297828039998003 -3.677676918176021 0.021684701901400184
C -5.068015896497832 -4.653652392076068 -0.9335855028792797
H -5.037776622803433 -5.696540362432092 -0.6429095731640191
H -4.968029193931906 -4.526629161486983 -2.006938183254267
H -5.959767632688904 -4.154692666929991 -0.5677465381876783
O 5.0189230772789415 2.3807527924772636 0.12041093600369547
C 4.922006198226239 -0.9603449353214788 1.6375966863243019
H 5.136585665649858 -0.5612386155240077 2.621982985855792
H 5.578653815744488 -0.5645412490542581 0.8717185626063096
H 4.917562446224473 -2.0449344013531463 1.6429523189956285
H 5.123824975717749 2.0968481749603276 1.0479365681260844
Rh -0.1526914411060184 0.1333172158723708 0.8229491647378098
I -0.8529199301595499 -1.9416194650025607 2.3190829893119105
I 2.7736689389011953 -0.33843548924802574 1.1040746322684802
O 1.1220298326968874 1.3664979523196663 -1.4905459945052353
C 0.5005167529383142 1.5579075684764114 -0.4265681465988689
O 0.16714996329886617 -1.4987588116207826 -1.6321188863144906
C -0.20648021557233412 -0.833486047639692 -0.730018793982286
O -0.34526018662199315 2.701293658974278 -0.40996911126823576
H -0.25692051371726654 3.1662566932511984 -1.2577712479772387
Rh 2.232379504884093 2.238819615572839 0.9688725756221989
I 0.27021816090858797 1.7816580104115975 2.872625924892238
O 3.56244633466908 3.0360002012523064 -1.3919045731386237
C 3.7263334537407142 2.6112735872283896 -0.2592618161351346
O 1.880871482098778 5.202214547997656 0.8282371155257259
C 2.0660163079696114 4.066710565675634 0.9779091796916166
