12
## STRUCTURE-ID: 64566776acd9b62ec6230d70 ; CHARGE = 0; SPIN = 1
O -0.9398187728875412 0.3386016523920565 -0.09562910078050407
C -1.2854085767446601 -0.49446062480146785 0.9352682116615387
H -0.5948286729781632 -0.4282008375253895 1.7941438366049585
H -1.3252862784557586 -1.5470383195230413 0.6078155925909592
H -2.2903944208547036 -0.23261708773238543 1.2995931443641713
H 0.12501111494353237 1.3128562145354084 -0.028359454078443844
O 1.109393317759543 1.5062047191406858 -0.2717559625823036
C 0.8236995035847131 -0.29159291660465697 -1.0778937567803062
H 0.8228781436272347 -1.0827960845080637 -0.3483340417416161
H 1.8050267900343955 -0.04532160113638029 -1.4600966684383712
H 0.08481791068612822 -0.3771527464489478 -1.8543146963676953
H 1.664909941285268 1.3415176322121856 0.49956289554762673
