15
## STRUCTURE-ID: 64568e5717a186182c7cab80 ; CHARGE = 0; SPIN = 1
H -3.209406316629291 -1.7413421266178137 0.8370933109756995
I -0.6427651773817743 -0.3393855522613528 -1.583887560198807
O -2.4225707902310285 -1.1436850412696007 0.7884916873310455
C -2.489367984253115 -0.1794477661419479 -0.2380569908858107
H -3.312098561995576 -0.37613566012836036 -0.930319028420193
H -2.466483833562961 0.842674175889949 0.14779756458361862
H -2.117215155054472 -0.7710748039500176 1.6578655972492367
O 1.9515319637172694 -1.7351164577331082 0.10348223790117651
Rh 1.6479855538629977 0.3164756824883754 -0.21460017358474626
I 0.2496344952142488 0.7851013556899025 1.974383019508756
I 0.5675688621791308 -2.917305508836759 0.7516002435595277
O 2.3797754584536905 2.5646008295301725 -2.090947007683261
C 2.2353540789996442 1.7698319812765486 -1.2129755123493373
O 4.325208160041065 1.723250366121363 0.16892354173588592
C 3.302849246640171 1.201558525942653 -0.15885092972278883
