11
## STRUCTURE-ID: 64568846070ea47ff3112990 ; CHARGE = 0; SPIN = 1
Rh -0.6835251631997714 -0.5314048474269456 -0.23912653164127526
I -1.9118162909622154 -2.019878168641738 -1.979649576347019
I -0.6816055822810182 -2.399435893798352 1.60325808889526
O -0.5910350063478089 1.381696163997639 2.0328773610971536
C -0.5125906681588455 0.6568080242891075 1.1577748934658656
O -1.0224269923644063 1.45369947595237 -2.475358511456707
C -0.8538096793071759 0.7322014275536369 -1.6176544801932493
C 1.2880607333668102 0.16010521408011072 0.36602099842834757
H 1.5525964537821504 1.1832404450180223 0.10295759300628475
H 1.7883870154027173 -0.5419516909654271 -0.32630422782733143
H 1.6277651800695578 -0.0750801500584198 1.3752043925726665
