20
## STRUCTURE-ID: 6456b8092c013310d2112990 ; CHARGE = -1; SPIN = 1
C -3.1612836626291703 0.7705761037773482 0.24264211488780305
O -4.077256548690189 0.727265517145472 -0.43270468012696944
I -1.9274086173164022 -2.0276214167966984 -0.38778662548628573
C -0.6353475791045244 -0.18618051644796776 2.1003904598761247
H -0.3809030610878967 -1.1828435192857283 2.4691410434626513
H -1.6624746488535544 0.04022693923958827 2.394433537321873
H 0.049884849554150755 0.5461410970569297 2.5504934946844733
O 1.2750623443371347 1.928097815743078 0.4607143454550208
C 1.9499335253764472 -2.937184607489245 -1.1944993259860444
H 2.6796604119567173 -3.7350822431110524 -1.159013062174777
H 2.044481299915097 -2.3437916199083286 -2.0970078607822367
H 0.9394225754634371 -3.3160480025157604 -1.0897956176450088
H 2.031590483843827 2.47215544877101 0.7599033457060368
Rh -0.3398557406637336 0.015268481034467445 0.08712171887814633
I 0.5155526724556879 0.5348966792493296 -2.4978038405300946
I 2.3332752873345193 -1.6353805804667267 0.47968971471933053
O 0.5216098814539362 3.7840956402272874 -0.5421230966618914
C 0.40287840270305475 2.606841332358875 -0.28859222889391545
O -1.8112566561958012 2.1963826118681236 -1.1255359744393434
C -0.7475652198527516 1.7421848395500052 -0.7296674622648925
