17
## STRUCTURE-ID: 64568e7b5bfd4125972b66b0 ; CHARGE = 0; SPIN = 1
C -1.947028613985347 1.0643937665736454 -1.5389739426189135
H -2.2865893199772254 2.0079391330211243 -1.121186078932648
H -2.452711551548179 0.21946316499330243 -1.0550118064125045
H -2.126243079887489 1.0358340632993575 -2.610548421861405
O 0.030305395782357362 -3.103572640083119 1.7559126272301218
C 1.5994408949284098 -0.9530500653633924 2.1983462879938847
H 2.100410792118444 -1.8079177681194343 2.632149887678778
H 0.7482041135306444 -0.6824284990569658 2.8100337435808345
H 2.2806739670543186 -0.1237544539557854 2.048937321266399
H -0.34683326245843854 -3.855373493532352 1.301499373891046
Rh 0.11650413863923084 0.5019308893189254 -0.9693452481064858
I 0.4530983278653144 -1.0225838783611028 -3.0937376520514337
I 0.8649549060695617 -1.5835682311667592 0.29942258200316674
O 0.2633127531290455 2.0222865793406273 1.615706151345744
C 0.22845827178517628 1.4725921037271184 0.618885397734889
O 0.27167079737644084 2.8445049482512714 -2.8033551170305278
C 0.20237146957772223 1.9633043811142419 -2.0887351057108945
