15
## STRUCTURE-ID: 64568e6056d41623be5eb01d ; CHARGE = 0; SPIN = 1
H -3.4525287649456704 -1.3746037935060673 1.2230364311158382
I -0.5518782688324703 0.2599957025842643 1.0178655788188122
O -3.526836589966864 -0.4253104845269339 0.9570764899462288
C -2.5779524945619148 -0.05590295327046033 -0.03883163179525242
H -2.4188607917469347 -0.8259412123743199 -0.8007421586853719
H -2.8389498124683934 0.9221325334665788 -0.4483252160199535
H -4.449464982023716 -0.13885872240655092 0.7307373543796396
O 1.9303018521236044 -1.7562912521397887 -0.5201662489682767
Rh 2.131569763787965 0.012678193725890081 0.42226710301153847
I 2.571831623247156 1.0734772399820898 2.7366234923782207
I 0.3328863648654334 -2.3203792891687756 -1.4557237123366906
O 4.8725344163535915 0.5787203630644054 -0.6712582775694694
C 3.6689155714978594 0.6964088302076442 -0.569816323319857
O 1.8054828852340266 2.056785221244926 -1.6082077492257205
C 2.502949227436502 1.2970896231164082 -0.9745351317293247
