18
## STRUCTURE-ID: 6456734fb64999555311299b ; CHARGE = -1; SPIN = 1
I -3.443580056086616 0.13345644260020917 0.9951596215101054
C -2.8524973038910546 0.6721728014698021 2.999232487345326
H -2.1042278908280605 -0.045535082111036865 3.307120584810171
H -3.7362210276596675 0.637413868940373 3.6222595599118614
H -2.4282377668168245 1.6653145190818104 2.945571670234917
O 2.246684744546904 0.44990361511199745 -2.1212207762878146
C 2.1512623100857344 0.6707556608373979 1.069627536713681
H 2.6292629874790308 0.7110342340220658 0.09743550906084457
H 2.53494299972125 -0.16362336164462926 1.6429605421612192
H 2.265990784131056 1.6071286209553237 1.5989360018018572
H 2.1971300120738664 1.1440993104313097 -2.780701555812768
Rh 0.7019638111508648 -0.9582184530347323 -2.011316785679065
I 0.07465015072108849 0.3368450374537269 0.7183795558209336
I 2.333925978107076 -2.6343111803781754 -0.7832602739977416
O -1.3895944268600224 -3.0858725082012017 -2.0846048547503626
C -0.5950033662940121 -2.249590686834803 -2.0261238661416856
O -0.462633879175228 0.94925903846262 -3.981429361369918
C -0.1238180604053661 0.15976812283794098 -3.2080255953315744
