4
## STRUCTURE-ID: 6456634561fd797b3e5b5c2b ; CHARGE = 0; SPIN = 1
H -0.3995574864179648 0.0009611302606008064 -1.7721457506407265
I -1.2922415608325593 0.3126907402767657 1.7808314198134552
H 0.3655195785137912 -0.14370884368411854 -1.7583321577560511
I 1.326279468736733 -0.16994302685324553 1.749646488583323
