12
## STRUCTURE-ID: 645668b3fa2a735ff8610ac1 ; CHARGE = 0; SPIN = 1
O 0.00017465287822655907 1.68283863649721 -2.720135004265518
C -1.6702892477226807 -0.9542916527267172 1.4582119139347103
H -2.4473528264563345 -0.20672114829786223 1.366174629014545
H -1.3125579210545886 -0.9787478443890204 2.479338013521372
H -2.0706586232788378 -1.9241020496181331 1.1934731619592491
H -0.8359177045456537 1.2526315555918168 -2.9148300566254783
O 1.1463751146872847 0.12321037360094513 -0.472403948268918
C 2.2080223002106476 0.16159361543762216 0.08565913423484271
H -0.8534939782237196 -0.707153686233623 0.7929570113020185
H 2.96605686171686 0.9206319888013006 -0.15092046166256967
H 2.482202358283507 -0.5613700707822099 0.865831804083136
H 0.387439013505298 1.1914802821186634 -1.9833561972273912
