12
## STRUCTURE-ID: 64566b058a4eed7f504f7351 ; CHARGE = 0; SPIN = 1
O -1.2049419648522735 0.03897910472038455 -0.31908088744986096
C -2.256229479159939 0.2619070449848946 0.21489011986451712
H 1.0378183545654254 0.7449505429718137 0.6051497895553888
H -3.1302095999760318 -0.38920099514531387 0.08036868394115254
H -2.4051374271222987 1.1313426351592575 0.8691368447326582
H -0.7229674974982481 -1.39188375718353 -1.622526566656451
O -0.5469534479884585 -2.0849085902052895 -2.273256196842139
C 1.979826188280869 0.8806358407948245 1.1200439826693318
H 2.5375548871202693 1.6792326355754954 0.648777112441952
H 2.551887985323949 -0.036612068157656746 1.0701204125557728
H 1.7942007285139727 1.1327038366930515 2.156039612258637
H 0.36515127279275533 -1.967146230207922 -2.5496629070709784
