13
## STRUCTURE-ID: 645673aa00065f01674609e0 ; CHARGE = -1; SPIN = 1
I -1.384504947298658 -2.496092106259703 -0.3378088286130945
C -1.7584614577576227 0.2652973405374342 -0.04819070420292904
H -2.1278304791295093 0.3767805292379516 -1.059807616786319
H -1.395922359732696 1.1927411808843666 0.41044842150122235
H -2.4871094149248965 -0.1743956376453421 0.6117159640328578
O 1.7401182951242862 0.685979391516026 3.268039785141836
Rh 0.699241905311984 0.3499426771548692 -0.29884825639442725
I 0.5449109697309856 2.639741897532996 -1.5805132646678905
I 1.3515431220081346 1.7897208991595275 1.8082548593562082
O 1.770332498971578 -1.8925550290419644 1.3781169138267773
C 1.31286855105618 -1.0963743163341062 0.6997488748812061
O 0.9412738373901107 -1.0841750383856417 -2.9251976338978483
C 0.7935394792501232 -0.5566117883564328 -1.9259585141775908
