13
## STRUCTURE-ID: 64568d67a6bff1700067f9c0 ; CHARGE = -1; SPIN = 1
I -3.2775236070941944 3.199387886737364 0.5179454514215969
C -1.4591019288810723 -0.5449013568905677 -0.24038533819462785
H -1.2781919893203446 -1.5488772407541886 -0.6317514310297122
H -1.9451832186385611 0.052822760104444394 -1.0154720386318934
H -2.1322189925920783 -0.6256874575236987 0.6267902955920208
O 1.222633027743872 -0.015460716226973288 -2.2481852806879843
Rh 0.28246453556940077 0.2925631917046798 0.5150734026829101
I 2.0091427290836426 1.4908651158608965 2.148866009076552
I -0.7174571237729758 2.4613656304659255 1.3348997219957353
O 3.089068232382711 -1.072699945565568 -0.28938807299120856
C 1.047441941789191 -0.27998526691377784 -1.112146686288498
O 1.2710484125162869 -2.1263640830879127 0.5236842495257572
C 1.8878779812141162 -1.2830285179106249 -0.12993028247064464
