18
## STRUCTURE-ID: 64568a6e49bb0853e612b08d ; CHARGE = -1; SPIN = 1
I -0.22254521575165012 1.9552688494653079 -3.470793382851209
C -1.8726451852862211 0.24451819512701392 -0.8837825441577793
H -2.531859179261717 0.9429164229895214 -0.3663883712940788
H -2.200842378732817 0.14163404538010185 -1.9175906426795721
H -2.002778010300781 -0.7397936167090841 -0.3987864591033703
O 0.25454505258887467 -2.368968134592578 -1.1337952960149398
C 1.2711626145649284 0.06200343723443406 3.5459989603834807
H 2.2069909931462095 0.07482335957280682 2.9969518385194736
H 0.9402625388279658 -0.9536640011934023 3.7265450403650853
H 1.3472573161483372 0.6247965693874624 4.46787197395372
H 0.34983366228831314 -3.1458136560819607 -1.7182374470249326
Rh 0.2511204115388898 0.13459535169615683 -0.4034078996016442
I 2.833390454663557 -0.04107462849064873 -0.06030920883630834
I -0.2295983218820044 1.039356582294242 2.306900534155147
O 0.5274235731210086 -1.1481881713342592 -3.000067199817567
C 0.3791213968568619 -1.1994836459166085 -1.8025703493133731
O -0.7792132941383139 2.703289923945632 -0.669627311071954
C -0.5216264283914712 1.6737831172258748 -1.218912235610149
