12
## STRUCTURE-ID: 6456676f6be3017757530d6b ; CHARGE = 0; SPIN = 1
O -1.0188077621901648 -0.27991999058751 0.13489359835527454
C -1.0946632651569022 0.40172925192118597 1.4143881470891972
H -2.0031299741176456 0.0635755082735798 1.9076385806580884
H -1.0955375555751634 1.4837028016895881 1.2895375318641054
H -0.2246738605886724 0.09831411140978294 1.994790983880976
H -1.7291113103509557 0.053176145600828596 -0.4588441543425573
O 1.246090392093656 -0.7478461089160876 0.26243244085403283
C 0.3423646715484319 -0.14649185362359815 -0.5274487461647576
H 0.20978377389877312 -0.5891329473357941 -1.5185958054019955
H 3.522350618652094 0.4555545565403194 -4.058968903942401
H 0.5837131324506326 0.9182812186823742 -0.594224237634973
H 1.2616211393359062 -1.7109426936546677 0.1544005647850131
