18
## STRUCTURE-ID: 64568b6143a9b1450d293420 ; CHARGE = -1; SPIN = 1
I -2.903311754589714 -1.1869218366257397 -1.7695569762680448
C -1.445673942251034 1.4566222084743456 -0.49369285524309114
H -2.4710327949174435 1.444063104815257 -0.12210521625197919
H -1.434507127983279 1.970828953588677 -1.4566340494423224
H -0.8084424666454575 1.9896137545436556 0.2214379896973446
O 1.050452214252581 -1.5042248247468781 0.12980336576459797
C 0.30786710071688667 -0.5911070210984236 3.1390531180551142
H 0.33737774575641094 0.46176355075859526 3.3932865043190175
H 1.1296506604097498 -0.8628292055988805 2.4862357911859174
H 0.2733145126603329 -1.2194199186753496 4.02048709703529
H 1.8611523433150055 -1.7629135260600057 -0.3096701977492107
Rh -0.6473053492641478 -0.47377591475196984 -0.6252753771649763
I 2.191672642521636 1.6285072802795526 -0.6753251593284153
I -1.4959899755481716 -0.9452622122832046 2.0008377380105973
O -0.26258420117568004 0.4160300508964704 -3.3579073139269404
C 0.20635722067440668 0.04127880359845697 -2.3047565158781924
O 2.470037420106688 -0.8441601997983715 -2.2679049728172482
C 1.640965751961242 -0.01809304731617063 -2.008312969997493
