12
## STRUCTURE-ID: 645664e4985a457d3d6b0e1b ; CHARGE = 0; SPIN = 1
O -0.2530247338208154 1.8346849064854622 -0.12146453529595139
C -0.30795990478075935 0.6523638136090952 -0.7613702160145791
H -4.339975793623185 -2.373978100254097 0.17241887029598216
H -1.2980084492237214 0.35969387011479087 -1.1249753574424752
H 0.4384347944627427 0.658212527345909 -1.5625166767215695
H -1.0123097950379933 1.9801400500356767 0.4628979316095716
O 0.07186629693949395 -0.4297960776872069 0.2210027973161867
C 1.4642052323447932 -0.36034338408351335 0.6255636468118011
H 2.1290017804607237 -0.6558196926248203 -0.18510301465377219
H 1.5862857227897473 -1.0141548512482135 1.4859046480255829
H 1.6612272006052797 0.6707665859255478 0.9158229082235111
H -0.13974235111630204 -1.3217696476186396 -0.12818100215427916
