21
## STRUCTURE-ID: 645674badcd2d0744761a6e3 ; CHARGE = -1; SPIN = 1
H -3.990223432167965 -0.9861362049000116 1.1030639914722749
I -3.6044715444792232 -0.007926007086191806 -0.08969995601641065
O -1.4735689880530536 -0.7172568882237051 1.0445873741555263
C -1.3936124333839937 1.1898239696793713 -0.9597403096126812
H -1.8370162075195424 1.8447646467880203 -1.6928724727776465
H -1.147506719291397 0.1817745161306115 -1.2390363544884595
H -1.3529648330446937 1.4990766212232352 0.07021137094643846
H -1.5663751633169176 -1.3468047242476797 1.7586834601974268
O 0.9932998753520864 -1.795090125061288 3.009414971964433
C 1.1779379982006735 -2.04652672615414 0.26689471445629953
H 0.36529388516807304 -2.116362091278421 -0.44635817116693005
H 1.0739596313156186 -2.7937443811271208 1.0384186355717924
H 2.139198603581208 -2.136802712854088 -0.22610631704665476
H 1.0239537201007662 -1.340747867607087 3.8510986643234824
Rh 1.059588305864558 1.5160582598906758 -0.75801679181914
I 1.0615534239032818 3.276171118875866 1.1893479161032556
I 1.0707730192136373 -0.16956263346953077 1.2241238016173401
O 1.8960727423744015 -0.7494987370315397 -2.522636151833106
C 1.5538732390090662 0.1290006661446798 -1.8577023587643704
O 1.6231907322098886 3.6971918520032663 -2.7505548721064086
C 1.327044144963525 2.872597448305055 -2.0131211451764943
