12
## STRUCTURE-ID: 64566526cbe3bc23004d91e3 ; CHARGE = 0; SPIN = 1
O -2.2330039076380013 0.7945041503445821 -0.723843552106628
C -1.7838407196289767 -0.12917872081079157 0.11612825026338963
H -1.969574013067144 -1.135051389780951 -0.24880714064638887
H -1.931756373029276 0.02222259081832213 1.1821230090745243
H -0.38603329382831697 -0.16569450203952582 0.09486579733884823
H -2.269671858015788 1.6867626491077559 -0.3407163266338945
O 3.0826547308148777 -0.9382109512985662 0.41576874317086177
C 0.7599210856064008 0.07934624414425544 0.005557515375680744
H 1.3604837457683885 -0.7829994057622911 0.3071867818625978
H 0.9435157693296446 0.34755472896265893 -1.028921320641694
H 0.9658182644162157 0.923944135985781 0.652572215846993
H 3.4614865692719863 -0.7031995296712218 -0.43191397290429856
