21
## STRUCTURE-ID: 64567bd0f39c993d95662c57 ; CHARGE = -2; SPIN = 1
O -3.2291331355608617 -1.177805182372777 -1.8307953175480338
C 0.060931863381246336 -0.3085212231669796 1.9242237793488517
H 0.3046618330915865 2.9314061308074986 2.436137901310916
H -0.11420751877675725 -1.3859386993665237 1.8942594280799525
H 0.08022824093496715 0.01666568956328524 2.9645853816753536
H -3.9422177713361792 -1.530021942553241 -1.2861636212840104
Rh -1.3863511708401106 -1.660856495654231 -1.1503871365936493
I -2.4069057398038187 -3.270678635553853 0.6253588153842813
I -1.5620499135139414 0.7037137630548361 0.9166324404300059
O -0.2639274266013133 -0.12456380867923651 -3.4597500228234828
C -0.7064496080119929 -0.6839868114347023 -2.55364258398133
O 1.33388981403106 -2.7192085959506116 -0.5246356228038829
C 0.29058398367406085 -2.2413466657783374 -0.7134298095888401
O 0.9544030442744086 3.0303164891356786 1.7279432034219482
H 0.8294133796833486 3.9235285270413027 1.367633235679398
Rh 1.1177082813055175 1.5037627356810899 -0.08789053977014911
I 0.7048041324741361 3.5630995774081202 -1.6482547776311323
O 2.3567291938902475 -0.6158331711181666 1.5446212024690067
C 1.3844452583844242 0.05319638349045724 1.2027382805809255
O 2.34258916785158 -0.37401705947749486 -2.054150104954756
C 1.8508540914683858 0.36708899492387836 -1.2950341314013982
