12
## STRUCTURE-ID: 6456685db895a7565d76345b ; CHARGE = 0; SPIN = 1
O -1.275961781890985 -0.17622022822541436 1.1260674370380885
C -1.0757945243313523 1.0276058893360718 1.8292594510179183
H -0.14583696874591404 1.0043958933477564 2.406218055661989
H -1.9145468738224685 1.137861725338606 2.5157985077291345
H -1.0529917899294803 1.8877423272802458 1.1527424193593263
H -0.5393423321696145 -0.28371754769224805 0.49873137388859584
O 0.994792159427253 -0.2852500841256651 -0.6163548923139284
C 0.8269730577987406 -0.8524430441660887 -1.9001818240091919
H 0.9553230515609358 -1.9380724550913717 -1.8745460208229214
H 1.5292030084339385 -0.41950806168723825 -2.6176037206459726
H -0.1891967482590546 -0.6230233713811679 -2.215391577907021
H 1.8873797419279956 -0.4793710429334856 -0.3047392089960145
