18
## STRUCTURE-ID: 6456716509bc9068351a5628 ; CHARGE = -1; SPIN = 1
I -2.8246010406305304 -0.8789770873918792 2.4225334319885383
C -3.458726340983571 0.1698976929025065 0.6673562757750398
H -4.509958942466041 -0.03534463628281755 0.516700682357432
H -2.865347673215182 -0.19168902800661616 -0.16326217051426428
H -3.2705145502682935 1.2215307530710344 0.8362933273767069
O 2.8451559166703673 -0.19244309833304893 -0.8404797455459085
C 1.577673627694503 2.2884647644432383 0.6616051845580865
H 1.1024377756738533 3.0132918696358324 0.012508139414201643
H 2.3303881812772493 1.7261335937266027 0.12092411512303389
H 1.9965272861447594 2.753749802514778 1.5435980999303753
H 3.4229729199020498 -0.42333175079443686 -1.5715787518269235
Rh 0.9205925575558879 -1.076377419693247 -0.937110734343012
I 0.12480294024815516 0.6455506282250282 -2.7675023221951682
I 0.09466607824209913 0.8853446173148496 1.2810361889428996
O 2.803975128771144 -2.9314891727484578 0.4379024984169749
C 1.9594680869058143 -2.310625405864726 -0.04356384167963948
O -1.6104506585401979 -2.641798360521463 -1.136944215419341
C -0.6390612929821818 -2.0218877621969207 -1.0400161623589168
