12
## STRUCTURE-ID: 64566b692c3a6f68d261a6f1 ; CHARGE = 0; SPIN = 1
O -2.110713396022055 0.6955995289907471 0.9658331782312363
C -1.4785537291638362 0.10698082981746197 1.7991440474654246
H 0.6458587479206547 0.9720864687141675 1.6350153755471284
H -0.9825753248892665 -0.8529840643445148 1.5887584514239648
H -1.384450022864259 0.4712505003020658 2.8334227173677844
H -1.5125311072459917 -0.21817864766492043 -1.7597117261292883
O 1.913033376970857 0.5760883783052487 -1.3645959982443967
C 1.5431257500247935 -0.5239219748087584 -1.6707431093288705
H -0.7412323071265712 -0.3465902374789228 -1.8310515553234032
H 1.3067238179057954 -1.2927484780342853 -0.9192746120837412
H 1.4487673099947889 -0.842938259574108 -2.720009610612006
H 1.3525468844950719 1.2553559557758482 1.4432128416861953
