18
## STRUCTURE-ID: 64566f4ab951ea051f4d91e0 ; CHARGE = -1; SPIN = 1
I -2.058972232161556 -0.16545020584700174 1.603644852574384
C -3.6892413036060967 -1.4636689351784171 0.8960267968377597
H -4.613405572092954 -0.9332018438010573 1.0917375646208622
H -3.6250058519999393 -2.3863485805155826 1.4595505516035074
H -3.528015326439983 -1.622407493925228 -0.1676638639297819
O 1.7667775414729359 3.2337203473006433 -2.216358646328596
C 2.037773992188657 2.374737298121001 -0.28317403177457945
H 3.068072857256826 2.2721422238625633 -0.5562422952409498
H 2.1256027289595463 1.8064252333261033 1.119031358985454
H 1.6983328987658166 3.3523175994127796 -0.020477459305153916
H 2.4735092762939765 3.0303929132657688 -2.830417981240444
Rh 0.2810391558585946 -1.0829773714152566 -0.04020790756962072
I -1.293967015429104 -0.9937917551949373 -2.136983493558109
I 0.6982367686033696 1.1979880547600612 -1.2786455165187616
O 2.966015486416419 -0.8831929300013237 1.2758709465289282
C 1.9053941480761702 -0.9628664644314715 0.8318680554900826
O -0.20481109238294265 -3.924107910382947 0.7863510543025957
C -0.007336459779724689 -2.8497101793557 0.4660900145224359
