12
## STRUCTURE-ID: 64568839f4fff45ce7224134 ; CHARGE = -1; SPIN = 1
Rh 0.3824373248982554 0.12269478060523951 -0.6905029731619261
I -0.5512807291331587 -1.7992490263806253 -2.1305803849061387
I -3.7644446207838866 1.419075418195675 1.037496354736907
O -1.0941295081529345 -0.22912985363881266 1.7347169541034322
C -0.9915212635547209 0.23155796150164668 0.6226232666687813
O -1.8584515700285087 1.5267604367156484 -1.191928807958312
C -1.9855819869351266 1.0669468729859632 -0.08625432197232943
I 1.604024628817682 2.34481847800201 -0.23647669821040326
C 1.8664517262263236 -1.0239449328964583 0.1379787414481722
H 1.486603051712869 -2.0214551181883342 0.36513260324820296
H 2.24000572711111 -0.5533712191732623 1.0491399861928048
H 2.6658872198221015 -1.0847037977286966 -0.6113447201891877
