18
## STRUCTURE-ID: 645689508c8140335d324920 ; CHARGE = -1; SPIN = 3
I 0.28467017505830283 2.053390577399908 2.2118792761822044
C -1.899600576731623 0.7328247143993388 0.13799284798387412
H -2.3881393790591647 0.20477113684602902 -0.6824535457179577
H -2.3255345265718934 1.7382470477066565 0.1969161478008208
H -2.127190763361204 0.21355215800811095 1.0728410476139616
O -0.8902880874103556 -0.7502688485953282 -2.2045204666494063
C 1.618687778289684 -1.7563504414000253 2.5540553800600425
H 1.7194922397153927 -2.72371358147205 3.0303974238491116
H 1.1567707668937637 -1.0298943744051972 3.214277357460718
H 2.5710074282567805 -1.3910964244996118 2.183560124332607
H -0.7909278148889991 -1.2883494761588 -3.0160666294237974
Rh 0.21230027825314965 0.7744082243578911 -0.12676508307331752
I 2.9487462464369214 0.7270009580358213 -0.2876179096912039
I 0.30557974119949827 -2.01727819166542 0.8379915220634752
O 0.9838134322820306 0.20658577643759538 -2.928138737516977
C 0.10823045192556756 0.13850029166633143 -2.080129916067628
O -1.1288794425604962 2.2212153411140303 -2.4897437207332724
C -0.35873794772761863 1.9464551122248153 -1.624475118473198
