18
## STRUCTURE-ID: 6456717ebaf13c62284b65ea ; CHARGE = -1; SPIN = 1
I -3.183874409329332 -1.2806344887760759 -0.14944236924087187
C -2.367033091074718 0.7231785812052701 0.012439506486693093
H -2.8031070954440334 1.2354148432750933 -0.8572165798522752
H -0.22819197653917536 2.00550946580393 -0.985598237416974
H -2.898050294156174 1.1282582738677764 0.8890070736780454
O 2.614066653456233 0.25951681479275407 -0.2716669172465068
C 0.5126571538995333 -2.894976067466945 -0.9534482911724037
H -0.4050985372170101 -3.1992591973744777 -0.45841779758039475
H 1.3284955194708918 -2.8106903633384106 -0.24325698752624514
H 0.7597321685069165 -3.552406493916929 -1.7799476538597165
H 3.5702558914032 0.42965512688636787 -0.1464299704136738
Rh -0.16974503786723885 0.9506881143146424 0.12962092088680677
I 0.09283444050326212 -0.8017445056468689 2.13002507797733
I 0.1794033624510419 -0.9139390154640382 -1.8052069193990068
O 2.4075496147610203 2.216618903935041 0.7440378398363156
C 1.8455382643537355 1.2543651105273699 0.2299339733933812
O -0.7571069346962297 3.020688029861643 2.1558581681995994
C -0.4983256924819213 2.2297568675138733 1.3597091632499008
