18
## STRUCTURE-ID: 6456717992ab1a5f2a1fea7b ; CHARGE = -1; SPIN = 1
I -1.144935442431617 -1.4824477389724935 -0.36158996906231816
C -3.1464266450634444 -1.3451352762403976 -1.245418951025867
H -3.56236394717775 -0.3774308042394345 -0.9742176220844212
H -3.738153443933919 -2.138208642715413 -0.7933141468456215
H -3.095427188205381 -1.4775245198312663 -2.3212204543469452
O 0.9955686670184055 -1.2532066599633724 0.4499040683913252
C -0.515574576319561 0.20511751906613546 -1.425441478307629
H -1.1339812841095782 0.3150177674564467 -2.307540550133552
H 0.5267453080050782 0.062405650520201666 -1.6581729585413356
H 2.625689110598297 0.2783027146226132 -2.056271968989314
H 1.289830699349669 -2.0862683044903805 0.8333715796277213
Rh 1.329614314360139 0.5645219842441488 1.6075191012372263
I -0.6041611098985024 -0.1440006395429508 3.1667020824032175
I -0.6571866066913521 1.9890834973879101 -0.25909639802779133
O 4.049339997649402 1.1561623306984896 0.5386064800290808
C 2.9608893402531398 0.8893666855233179 0.7977761384230112
O 2.0810858098666927 2.861916936942718 3.332138034578215
C 1.7394469967303954 1.9823274995337563 2.6762670126749533
