18
## STRUCTURE-ID: 6456716509bc9068351a5620 ; CHARGE = -1; SPIN = 1
I -2.839733255342785 -0.8679409103302493 2.4106095781127292
C -3.475178048699436 0.1800168908570848 0.6554792297823656
H -4.5240202019995195 -0.033185952032539774 0.49965183099348515
H -2.876030600770509 -0.17627469783645458 -0.17335874286811115
H -3.2956300734473576 1.2326612769476106 0.8279306767036145
O 2.8539910080499844 -0.28425677481007505 -0.7659299444146609
C 1.5841956702468294 2.2766448878841135 0.6484674641482986
H 1.1351311366413144 2.970703075290768 -0.05120102986698185
H 2.359968232980266 1.6949937721927442 0.16381520701039232
H 1.9659834853566518 2.782716746436916 1.524873045168853
H 3.45686388506265 -0.5505335929950786 -1.463385607042954
Rh 0.8779008453795422 -1.0604870616963271 -0.9401463649155126
I 0.13433196291797664 0.6801490989346 -2.7745774162790564
I 0.07726253612443523 0.8985989019628914 1.2702635170847778
O 2.867043138994653 -2.8398371838802903 0.4139815849709943
C 2.0041273916258318 -2.237609102418439 -0.06331179271647974
O -1.638050863845917 -2.6463015504960112 -1.1368418647534224
C -0.6681562492746133 -2.0200578240112446 -1.0463193711183876
