18
## STRUCTURE-ID: 645670e8a1467362282fdd8b ; CHARGE = -1; SPIN = 1
I -3.4872705771043275 -2.8945783663084703 -2.6295412023241447
C -3.602263188888187 -1.5837958910737515 -0.9413603166458725
H -2.9006837930058453 -0.7742941662354897 -1.0997227451801184
H -3.3428221805684917 -2.1580166512060543 -0.06260791222596775
H -4.615262651135578 -1.2108254731991595 -0.8815594643215464
O 0.9119223267617871 2.746572389827326 1.5304954751878215
C 0.007930372635753814 -1.7681998544617812 1.0723483998814287
H 0.03528178955847347 -1.945939782394953 0.00400280971931894
H -0.7786317815892245 -1.0652022075813457 1.3189876609643396
H -0.08438656810570083 -2.6906153715793777 1.631377878723321
H 1.4412381525605535 3.2453763974204324 2.155349051324062
Rh 1.828157452636348 1.8538177429449676 -0.08815663028596797
I -0.5397152965849183 1.2791980854862235 -1.0396013338650296
I 1.8940973481498622 -0.8513791199253838 1.6312707163347508
O 4.205333264525541 3.287945155211142 1.0048464361323586
C 3.3508933416336526 2.6726168185944923 0.5268828258333529
O 3.0800232144818156 0.7194734390247683 -2.5491178191738735
C 2.5961587740384786 1.1378468554563825 -1.5838938300782022
