12
## STRUCTURE-ID: 645666fd137bab736c1dbea8 ; CHARGE = 0; SPIN = 1
O -1.6142282114722049 0.45668377626650913 -0.8355363538818209
C -2.0483542471658835 -0.00637901179892174 0.4210432552848796
H -3.097745671182269 0.2701848599362579 0.5173379333731806
H -1.4834276104868553 0.45933306912358646 1.2359434147426427
H -1.958573258314124 -1.0945319209741444 0.5005508480713055
H -0.6857452447719575 0.18491366934650205 -0.9532152639797035
O 1.1388710419689303 -0.3104028286505301 -0.9532047662268174
C 1.8904334310195474 -0.03190842266802562 0.2115565000911765
H 2.05183077523224 1.0428682795844963 0.33342433204333544
H 2.8552026589323787 -0.5446275078515992 0.1926201361428088
H 1.310889252514463 -0.4026288964305546 1.0550531040899866
H 1.6408470837257425 -0.02350506588357779 -1.7255731397509757
