13
## STRUCTURE-ID: 64568c8f900cd7205709291a ; CHARGE = -1; SPIN = 1
I -1.0666779083227629 -1.9248887689377436 1.6713392418253123
C -1.6669770223602784 -0.39383349112105354 0.2904376432231771
H -0.6491184108408216 1.5465272373828785 -0.7982955635109908
H -2.2144909907359325 0.3463532377490418 0.8726455608071292
H -2.3290646803873893 -0.8642647621596885 -0.439289827924083
O -0.577873229574873 -0.5661361799122475 -2.413748021657031
Rh 0.06838788649654133 0.2486645042389783 -0.5540017692270148
I 2.5765237491918374 1.1888724376177102 -1.3756320771307837
I 0.4540908695208917 -2.1400022700571366 -1.9907977727905501
O 2.28589927555231 -0.8101922009431607 1.0401773686273137
C 1.8311674221673402 0.2646313175929174 0.7576160736646439
O 0.52687637475502 1.9803752999232027 1.8765262223019568
C 0.76125666453814 1.1238936386262108 1.0630229217909768
