18
## STRUCTURE-ID: 6456736a0116f95e162648bb ; CHARGE = -1; SPIN = 1
I -1.511803937464572 1.8045667756696782 0.5177509985021336
C -2.8753899336515634 -2.092090615467509 -1.6092181105863734
H -2.9590710964009412 -1.0180056800045654 -1.7162628682325178
H -2.389213740975711 -2.5149564736998715 -2.477420443037198
H -3.863752868244946 -2.5162540798721142 -1.4992233321440613
O 2.1275067132971186 2.9886029113134227 0.4525602419003587
C 0.6699171086630007 -1.2096255439428676 -1.8903481018017778
H -0.172792037734334 -0.8825829992649966 -2.469167062932631
H -2.2943520000646416 -2.314340453046155 -0.7233537648569055
H 0.8401805744630328 -2.248147336083717 -1.6804792350467441
H 2.4353848310469117 3.916750666854318 0.5056333634844677
Rh 0.6795641329766453 0.7897072453618166 1.5620392820020361
I 1.7293403574920878 0.17931640288305076 -0.8649507914053985
I -0.42190183998240566 -1.5825121437495415 2.2176309808826082
O 3.139802499926709 0.304033429235609 3.1689416740188476
C 2.198001611286379 0.41540274115670883 2.5110889358451223
O 1.251100568840893 3.3666961689930903 2.4718317066798536
C 1.4174790565263558 2.613438983663675 1.5229465267281985
