12
## STRUCTURE-ID: 64566718028c5847953ae5ee ; CHARGE = 0; SPIN = 1
O -2.608072791837594 -0.18823383094571472 -1.3871029230589105
C -2.0876207068765003 0.41468102102302185 -0.21930855938868382
H -2.362746906567277 1.4670935162700727 -0.26357841512406915
H -0.999195183697163 0.32747174166687676 -0.17481176159948597
H -2.5246712081983116 -0.027820567057446562 0.6818931045362067
H -2.3137952336785816 -1.1061966856629633 -1.412678792006149
O 1.3490074410470314 -0.1250891915606412 -0.2674408425469652
C 2.264546202115402 -0.21876537181201713 0.8022627705086437
H 2.6742883178629437 0.761198233272891 1.0645896611278085
H 3.0852907117424215 -0.9028848736334295 0.5674876077720231
H 1.711010143703659 -0.6097177688626993 1.654206526216624
H 1.8119592143839809 0.20826377730204965 -1.0455183764370373
