18
## STRUCTURE-ID: 645672b9260115598e62318a ; CHARGE = -1; SPIN = 1
I -2.7772880157791597 -1.418157309737132 0.7477638524201642
C -0.9661629934437757 1.6487643554674463 0.6610025780411215
H -0.544610732273105 1.7764470860471029 -0.3301503156400559
H -2.041676337298035 1.5214128218963003 0.61772189740344
H -0.692014687399805 2.469130541618971 1.313984074506694
O 1.2345914430307974 0.2589160974563427 -1.0253333400644784
C 1.630407892190288 1.0673848207100496 2.082439588947494
H 2.0313769619788244 1.5163108885906291 1.1824402458058032
H 2.357200440324953 0.3953444740475603 2.522503643232148
H 1.3239478414422465 1.8183720179265128 2.8002127046795873
H 2.1665724756069946 0.025017278770318733 -0.9714435275794979
Rh 0.032619850645948 -1.4150935302097036 -1.4258161252086068
I -0.08674828554051588 -0.09649110322384556 1.4923171773863928
I 1.8714274067060503 -3.0284049456601974 -0.46853128144815825
O -1.5903613424451792 -3.7997201736858126 -2.191499132418205
C -0.9881514326736671 -2.874143471649331 -1.8627777369621017
O -1.8394187863064586 0.4247746022345441 -2.84849619990841
C -1.1217116987663929 -0.28986445059971083 -2.2963381031933303
