12
## STRUCTURE-ID: 64566b526aad622f894609e8 ; CHARGE = 0; SPIN = 1
O -0.6945319524815804 0.22053361897534984 -0.8571100833742384
C -1.3212071430760932 0.2996776744627827 0.44066764577304685
H -1.661847047105213 -0.6773344665242085 0.7807774446126142
H -2.1460603554074487 1.0044328762656238 0.3711318590765459
H -0.564222890650398 0.673719827101655 1.1312750604505515
H -1.315990645397099 -0.2071292419257613 -1.489847820264408
O 1.7965660272066586 0.6876044757812905 1.3844090772614683
C 0.5528118916933406 -0.5147448990806068 -0.8197657694606376
H 1.1678268236410936 -0.05979896859161071 0.028481337023169975
H 0.38818984378814503 -1.5703596951559082 -0.6202075070060287
H 1.056898684647073 -0.36431904473469384 -1.767971573157022
H 2.7415667631415257 0.507717843426096 1.4181603290649412
