21
## STRUCTURE-ID: 645676074f9e443cbd1f8be7 ; CHARGE = -1; SPIN = 1
H -1.8807983262020098 1.7882514993233998 2.025432193817252
I -5.18312921542679 0.6689582642324643 -1.4048869030375541
O -1.965880882740605 0.9481283314132009 1.559816165841069
C -3.066628645981962 0.6022703830425041 -1.6143272893484237
H -2.762511475132529 1.4194329671509913 -2.25535252309622
H -2.8008782266414713 -0.35006188441083813 -2.0545920880908177
H -2.62366885491886 0.7038333298878593 -0.6304781229756342
H -2.07816743880516 0.2738656612087439 2.2377193171334735
O 1.182617523266301 -0.76570814300865 1.9020412059010805
C 3.532514354099238 -2.075864274544539 0.15571491910479818
H 2.7165794878991676 -1.9776603708242493 0.8667559275396538
H 4.463379745320788 -2.3122305543415735 0.6539731539556694
H 3.294552448191418 -2.8023213357090464 -0.6105211865514846
H 1.4702125217717028 -0.2985080406768321 2.692951575300133
Rh 0.6988076437433739 0.5019987587730691 0.36775725741473214
I 3.762681328569653 -0.16390975557178844 -0.7973813636411856
I 1.473703880456209 2.5860034352434473 1.768426879165253
O -0.08084337229804997 2.249770897956219 -1.9212166297880102
C 0.2437235521513744 1.5935124353846153 -1.0227609505503874
O -0.4293050947692983 -1.689443700024143 -1.3143334034254799
C 0.033039047447489193 -0.9003179045048852 -0.6047381346679317
