17
## STRUCTURE-ID: 6456702cb888fe0a250b3f5d ; CHARGE = 0; SPIN = 1
C -2.3674475806084994 -1.2990054863973142 -0.27488617643449903
H -2.59507705400874 -0.5712931261737937 -1.0509473844158788
H -2.778355223921668 -2.2599261428363295 -0.5759522676465397
H -2.855492693442563 -0.98839116870841 0.6451699020531554
O 0.18611748988180266 1.5250264969966882 1.6993463289046353
C -0.8682371481745184 -1.4365961566679946 -0.0675492387081743
H -0.3825931935046834 -1.7714436549806365 -1.001093083986064
H -0.4543519267065312 -0.43535677241477483 0.28310422791098944
H -0.6482073740105266 -2.1633664322174795 0.7141515961868792
H 0.07274624774946882 2.14580657455677 2.4552949551503502
Rh 1.1222263302355389 0.30017457116693474 -0.4604541974167572
I -0.405673886646188 1.7380361438682037 -2.0151619985909424
I 2.589873261008967 -1.2757509898719148 1.0223260837632477
O 2.031655214583629 2.5926539552594057 0.9368209002177147
C 1.1951940796441376 1.748917108514598 0.9190715640540638
O 3.538843871815205 1.250916765695487 -1.896000898569423
C 2.618779586105163 0.8995983142105638 -1.3332403124727314
