12
## STRUCTURE-ID: 64566a582020e9580e3dae50 ; CHARGE = 0; SPIN = 1
O -1.0677480118529985 -0.5075419064937566 -1.4232613882183334
C -1.1874896008721558 -0.29789797583168603 0.5548462066026807
H -1.9869164745696337 -1.002494747513019 0.3688920440911345
H -1.5121305754162253 0.6912008154503935 0.8241535829631931
H -0.42189407757448244 -0.7159283674856004 1.1859488492306995
H -1.7541716320466345 0.08163148943227017 -1.7567568621410181
O 0.46498640962374344 0.7803240297585412 -0.1830070264043028
C 1.659130338315781 0.3158059160067654 0.3034088483652343
H 2.4784377055525764 0.947369137004366 -0.07108927929637614
H 1.8690729531850063 -0.721333416988111 -0.0069438018618081755
H 1.6912454325254285 0.3601832896793515 1.4047975433326514
H -0.2325224668703986 0.06868173698048309 -1.2009887166637618
