13
## STRUCTURE-ID: 64566e16596c7f38996c2b45 ; CHARGE = 0; SPIN = 1
Rh -2.238191013446785 -0.22355566583248068 0.024752352379330222
I -0.4864314026204177 -0.05059946346645444 -1.873019988082493
I -0.4767117678453425 0.16412146093677937 1.8675713382473693
O -4.330434916842253 -0.4595573712009399 2.1397236600962484
C -3.511755281847833 -0.36458927062488106 1.3350580074317426
O -4.372133928287753 -0.668405472798774 -2.015644868935442
C -3.5374611232955244 -0.4972419434066616 -1.2397409015156553
H 3.799907416291077 2.3548834304539707 0.08969273305397213
I 2.448888878389199 1.7060172085624965 -0.518429211006068
C 3.1142022269791245 -0.2730037593453574 -0.0021189078279252194
H 2.459058346083789 -0.9481068717978753 -0.5427224054038787
H 4.14344685498741 -0.36177054105826534 -0.33680645454520425
H 2.987615711455305 -0.3781917404215683 1.0716846461080054
