12
## STRUCTURE-ID: 64566a1cf63baa29366aac6e ; CHARGE = 0; SPIN = 1
O -1.3457863462106137 0.5985853179992369 -0.4057698435808132
C -1.2374072706722312 0.7737343674152833 0.7862393525421454
H -0.8843173459043797 1.7240917663937532 1.2081496336787634
H 0.8906175380332014 0.159611464503671 -0.865830797677102
H -1.6441476948717249 0.0659179863823892 1.5218354032183221
H -1.5007014840773154 -1.301071986214033 -2.186904268375158
O 0.7593486377407394 -0.06314986882960408 1.1866529329052844
C 1.5189019978273925 0.22913808147323997 0.029681160222814574
H 2.3707971049140215 -0.4443615509134291 -0.06397033920030411
H 1.8734280305595403 1.2527509727855746 0.1341597106038459
H -1.3876277277176772 -1.98037663054961 -2.550896047571156
H 0.5868945603792672 -1.0148699204464167 1.2066531032328778
