12
## STRUCTURE-ID: 645669e2c941fe7b0e6dc160 ; CHARGE = 0; SPIN = 1
O -1.6160792270362574 -0.10686656689835697 -0.89234671928175
C -0.91605028880696 -0.15135119957123522 0.9728517051720261
H -0.8881744357246097 0.8343680396220311 1.4015172891509433
H -0.07777477642035216 -0.7808841307253938 1.2181593600729788
H -1.8581063898214796 -0.6700272483279859 1.0892192927518325
H -2.2314426885724576 0.6353711793147488 -0.8887383829187975
O 0.5186159089481078 0.7015016679250089 -0.3126567818977726
C 1.673206843542969 -0.03385117797308775 -0.3798933883776718
H 2.4015933985064946 0.48440229609777286 -1.0212155518346864
H 1.5119028516544444 -1.0390124500891469 -0.8036915408848674
H 2.137731389116321 -0.14811606468201177 0.6137096000085841
H -0.6554225853862194 0.27446565530764105 -0.9969148819607996
