20
## STRUCTURE-ID: 6456b7f640c94b0c3c2726aa ; CHARGE = -1; SPIN = 1
C -1.9432392802310692 0.4979345693898027 1.226281742260488
O -2.9330081457977375 0.7526739281394014 1.7451326560070013
I -2.012305246261718 2.206678594708561 -1.542258713663111
C 1.823670971568364 0.9791094797394496 -2.011951011518051
H 2.5613961301496717 1.6221393931521337 -2.4925882088334252
H 1.0709223165899653 0.6827420050506539 -2.7430178818547715
H 2.315633144094438 0.09058939598335516 -1.617183101147208
O 0.4602622611186343 -0.8794819863318482 2.2190697367282164
C -1.7813739118867151 -2.707634388014655 -0.0643861565902053
H -1.6666708773298968 -3.72601076176641 -0.4206221398556999
H -2.780387768492275 -2.330883407726628 -0.2567168208466749
H -1.5194481431517473 -2.615579443369194 0.9845115466766623
H 1.1294108935988674 -1.3539835775864364 2.755710956306752
Rh -0.3080633671923263 0.9098795459516265 0.21891715131994335
I 0.01156671932148534 2.7494251439115773 2.2433450809049473
I -0.38664181285811483 -1.4710860621545256 -1.185474453107236
O 2.2139250839921933 0.0025540673102871212 1.1529948953614488
C 1.0164418146524847 -0.06595857652372131 1.320615104919869
O 1.5460504231460401 2.898742339786133 -0.6678340133888835
C 1.181858794969445 1.7581497403504518 -0.8645463696801761
