13
## STRUCTURE-ID: 6456734a454171640473b9d4 ; CHARGE = -1; SPIN = 1
I -1.6692391488068046 -1.2010486342837308 -0.27421130786349335
C -2.676881118233451 0.7125207408037162 -0.13016273487790234
H -3.6880989735850163 0.519890999540853 0.20503209383760235
H -2.6546309515067 1.167160517055171 -1.1140532114094936
H -2.1256848194047477 1.3140493645392926 0.5861900634416106
O 1.357078549058632 0.361897539098582 3.3434016716034987
Rh 1.3228072147498573 -0.1423746860609548 -0.34436828613570025
I 0.5469532558807929 1.9692909520610404 -1.6657408489008831
I 0.8740754892755905 1.2854675753815021 1.784584846185782
O 2.5992586294467905 -2.054148143611843 1.5637279444744676
C 2.106178219556048 -1.3712334326252047 0.7820489943042944
O 2.1776657230976197 -1.547000761776571 -2.8454454851377635
C 1.830517930471391 -1.0144720301218502 -1.8910037395220054
