12
## STRUCTURE-ID: 645667fc8942363aa1248ae0 ; CHARGE = 0; SPIN = 1
O -1.4312255864549919 -0.7428874252435572 -1.039395353436677
C -1.3183526137549935 0.19416043073214798 -0.21044430142127546
H -1.5405965124344516 0.09741935634553031 0.8450022564710894
H -3.4542125794074434 1.1006571716962046 -0.19484255400403994
H -0.9950823310160789 1.1537620228272332 -0.5979914566960528
H -1.7612323502469036 -1.6087061834138472 -0.706707692001391
O 2.3760359105169213 0.5534544836865436 -0.3270906377780511
C 1.5945400319242666 -0.07838212755974301 0.6384432879644752
H 1.860111453653937 -1.129488793344814 0.7744175582302509
H 0.5130191033496221 -0.01452661359914184 0.37089115385257837
H 1.7341676202622494 0.46313220156399626 1.5733226052753007
H 2.4228278536078878 0.011405476309428618 -1.1256048664562335
