12
## STRUCTURE-ID: 645668e0efd70a73cb610ab3 ; CHARGE = 0; SPIN = 1
O -0.38118386978420515 -0.5695181441767168 0.402396921396809
C -1.0023168605090076 0.4426629116697867 1.2161285886314308
H -0.2152787542200819 1.0720542905999604 1.632820290436326
H -1.586271754178338 -0.012240850065671926 2.0113932033588937
H -1.648421812773963 1.0262824576465324 0.5649441218449083
H -1.6187476940995342 -1.8532445547500163 0.3612330229291888
O 1.087411421926918 0.3132907772749347 -0.13040903030286483
C 1.2513604017586757 0.19608018570696928 -1.4817880754044614
H 2.1513201747111594 0.7808308071701123 -1.7103341654391815
H 0.4135213874495788 0.6245359863595501 -2.044833443700557
H 1.4250226204384489 -0.839669000267941 -1.7981651283491442
H 0.12358473928034648 -1.1810648671674997 0.976613694598655
