8
## STRUCTURE-ID: 645663fb3dd64353d0374190 ; CHARGE = 0; SPIN = 1
H -0.7938077573171327 -0.023870848672281435 -0.07652451641815704
I -2.146299827369153 0.04447995813946138 1.5541854768642809
O 0.4065715418098577 0.07767427885344008 1.1236100600065912
C 0.17047899604726238 -0.04549377782993814 -0.814242177071638
H 1.2513414163215177 -0.010391378505994706 -0.6893131533708662
H -0.10609114432060633 0.8414415306958428 -1.3826780948914725
H -0.05950762103480676 -1.007987471140062 -1.2690681931238812
H 1.2773143958630617 0.12414770845954365 1.554030598005144
