12
## STRUCTURE-ID: 645669f1b161542842662c60 ; CHARGE = 0; SPIN = 1
O -0.9282650192617162 -0.42270481345827976 -1.5440522400409635
C -1.2955079707641692 0.08033232865375023 0.3488802773269301
H -2.2157033133255117 -0.4219159184532287 0.08209806660815441
H -1.381188442486868 1.1460112253036396 0.46391657268526987
H -0.777077491217353 -0.42592038708640234 1.1451603213074912
H -1.374002467361804 0.2635090339085444 -2.0539013754996125
O 0.6776905354589658 0.6099110330818647 -0.16490232137373972
C 1.6150983065180413 -0.05967627118983549 0.5773948298894693
H 1.5890097865719455 -1.1494541942120207 0.41056747423553736
H 1.485416452276514 0.12803805032373236 1.656281316183713
H 2.6204350614862397 0.29439051331272587 0.30463005968619683
H -0.015905437894275096 -0.04252060018449886 -1.2260729810084519
