13
## STRUCTURE-ID: 645689c8839f7e271a1dbe9d ; CHARGE = -1; SPIN = 1
C -1.3674676556305816 0.7404114363090475 0.18980271552301434
H -1.8148400067041186 -0.1838449135055228 0.5872046315936188
H -1.668002009831753 0.8359646100539448 -0.8529583165009571
H -1.7610459128205727 1.5779625311189478 0.7644209275328657
O 0.18765286429108957 -2.2003587056996707 -0.4987344011782177
H 0.1387198657178268 -2.8896745231615744 -1.1915055571933877
Rh 0.6484945071360633 0.06318739890023645 0.6909354052758199
I 0.1927870187105129 0.41414847661771953 3.2964028303281543
I 3.1113032499575053 -0.8135695650830909 0.9940460721087784
O 0.8832981750560722 -0.8012835371222683 -2.112878887659312
C 0.6336177227846272 -1.0151791180659757 -0.9514894303764833
O 0.41076562512908876 2.6586096634235536 -0.7068692444294351
C 0.4047165562042462 1.6136262462146649 -0.2083767450244532
