21
## STRUCTURE-ID: 645676ab74a7dd59655c71a4 ; CHARGE = -1; SPIN = 1
H -2.9678537818644477 -0.2061464050372112 1.3342677049611054
I -1.402223965124969 -0.16165387114073732 0.546098765711669
O -0.422741265067338 2.263527432451555 -0.990621260357627
C -2.7571675531601882 0.315566351966034 -1.0811387330293223
H -3.441527099814727 1.0742874463225895 -0.7236992087300729
H -3.2723472578339945 -0.5941689186370581 -1.3639124923569002
H -2.1659585294936927 0.6837866494148116 -1.9088777615130876
H -0.3598198663290651 3.191129766907176 -1.2880205222758458
O 3.039420623539149 0.7256375734921013 0.13043942123840246
C 0.8948540016176074 -2.329991216512725 2.314615582069384
H 1.5844977647489062 -2.8860497974095596 2.9377059736420947
H -0.1283512818128107 -2.665305038587839 2.442033996638299
H 0.9661519694437402 -1.2609317220518572 2.487860609319701
H 3.5184149191955605 1.2052559002141936 0.8320045295879702
Rh 0.7652914160872714 -0.34365483052830675 -0.9572384065157845
I -0.2829894235598873 -1.51426774122898 -3.1300905873936085
I 1.4381850101852618 -2.6822653330374697 0.24658593329598105
O 1.321130769650025 1.0456646246163923 1.5248144855672416
C 1.7081083557775536 0.5952034577826573 0.4469109545750015
O 1.3846269834060323 2.0486313693489175 -2.279203762604564
C 0.5802982104100508 1.495744301655268 -1.5205352218300618
