21
## STRUCTURE-ID: 6456797619513755891dbea9 ; CHARGE = -1; SPIN = 1
H -0.1524478340084746 0.19667719880916387 2.202579015517004
I -1.4801978305226837 1.3827476828386638 1.8370591955224769
O -2.995986264214191 2.7144527920970667 0.9157823647221703
C -0.8511079601348206 1.0108890873919234 -0.3558332722163229
H -0.7844427165333039 -0.060178781629529006 -0.33069567075586037
H 0.050536002026424595 1.5879707694030274 -0.40732923594681714
H -1.6906554964660134 1.430240943181407 -0.8736360319119109
H -3.3590160740988235 3.304905397829954 1.5741827553238363
O 1.9189673567471195 -0.3702525761243624 -0.5373121742860917
C -0.18771516138782723 0.37659180432130496 -2.5400140752859564
H 1.3110611719199317 -0.03588111102998107 -1.2302692491409453
H -0.05306587098037014 -0.6922643778102421 -2.786612961586487
H -1.1129350224761454 0.6746770997889748 -3.053177715995511
H 2.65335060981592 0.2563367158697371 -0.4556388405241463
Rh 1.2495790361843806 -1.4959507109723829 1.2376764714522916
I 1.3932447150310945 1.4121851585842684 -3.654484645090861
I 3.199890503569535 -0.44199246234111134 2.5461690608001355
O 0.6242068951959966 -3.2202113111237463 3.572905131426406
C 0.8429533514136437 -2.557508604416146 2.665558853904089
O -0.6399210802617179 -3.045331380957214 -0.49517721475543386
C 0.06370166918033643 -2.428103333710773 0.16826823882795236
