12
## STRUCTURE-ID: 64566ad0c514b411a12726b3 ; CHARGE = 0; SPIN = 1
O -0.6252303416591793 0.7773661287068365 -0.7659430608905978
C -1.8612889436021958 0.05036546119267934 -0.8782997093198817
H -2.628656901149033 0.7071296949014615 -1.2827715473818087
H -2.1420480317950386 -0.25462053211850866 0.12636254874298164
H -1.7454773407615867 -0.8291319347579091 -1.5098441747416977
H -0.3496634091134289 1.084075875281916 -1.646422776443553
O 1.0352010801829037 -0.7810621811150579 0.22706138005275645
C 1.5094746487006492 -0.49193117332475095 1.325392900524988
H 3.2801281008782834 0.5779936728530672 0.9356506148926486
H 2.113121718488856 -1.2219456224079077 1.8546025708578497
H 1.1670628741148907 0.3674654801984695 1.896621528100607
H 0.2473765457148907 0.014295130589708134 -0.28241027439429695
