13
## STRUCTURE-ID: 64568a1ba882f8131246226d ; CHARGE = -1; SPIN = 1
I -3.076279736273498 1.532765854330439 1.311434957855583
O -1.3082917380050942 -1.5020417404579138 -0.5452327013506216
C 2.216401500700676 -0.6273181675213542 1.9251029395120116
H 2.508770059328263 -1.3725450169713795 1.2099684657055216
H 2.9426292123407713 0.06616509405074521 2.304890840400115
H -1.0457965701807792 -2.4461887829102387 -0.5854314902658396
Rh -0.7205686462355163 1.5879350608321543 0.23225453560558557
I 1.4920886415733545 2.7876114883795013 -0.4255370565698578
I 0.26096142409897827 -0.08808953899623079 1.9876754135866346
O -1.5990472992583697 1.3045300284729746 -2.331953436534627
C -1.10608706786966 0.6976991539017697 -1.4020118713174694
O 0.12927492080152278 -1.1820105287180203 -2.230306088137426
C -0.694054701020644 -0.758512904392452 -1.4508545084896147
