12
## STRUCTURE-ID: 645669bac3dd0069da33a751 ; CHARGE = 0; SPIN = 1
O 0.29569920220464646 0.4420392842599293 -3.050317047356198
C -1.872315751945577 -0.3240717461508172 1.4403163905155436
H -1.701093023298647 0.018935980053164523 2.4523572354407617
H -2.3483098134694553 -1.2956062502546617 1.4644460314293424
H -2.514161735904796 0.37912561463636213 0.9258884347500068
H -0.5626504631039376 0.014918722270277298 -3.107693570043874
O 1.2716829483926226 -0.11330454120414761 -0.30880442354889365
C 2.257590365885108 0.22903655185686622 0.28349430527336617
H -0.9278898187563255 -0.39797733887078623 0.9172461145858462
H 3.0319564889723902 0.8543678015806881 -0.18123588838176868
H 2.4410673461608576 -0.06268981237386333 1.3264163606237873
H 0.6284242548631152 0.2552257341969853 -2.1621139432879253
