12
## STRUCTURE-ID: 64566772b4c7d43819671008 ; CHARGE = 0; SPIN = 1
O -1.3316339485464783 0.4057076382420542 0.3825534367482955
C -1.0326196398533778 -0.262539352672202 1.5906524822746946
H -0.026179882670579878 0.03876854076312901 1.8756063360455695
H -1.0568400991323585 -1.348395258086206 1.4610156387115953
H -1.7255742073348566 0.023831244089674634 2.386008930521038
H -2.2283213320606214 0.1779996214139785 0.1091702934071566
O 0.9084589644454456 1.194712481328134 -1.2422625430367085
C 1.4736537888666672 -0.08275135055185377 -1.4228486886370397
H 0.7840989380016461 -0.7558734599578963 -1.9423163583041843
H 1.7590940001144781 -0.5337176923063865 -0.4668380237402307
H 2.366980685327746 0.047900980275422715 -2.0324486100567984
H 0.10888273284226697 1.0943566074621494 -0.6982928939333738
