21
## STRUCTURE-ID: 645676064f9e443cbd1f8be4 ; CHARGE = -1; SPIN = 1
H -2.508295730933838 2.169698765662384 -0.9010548012265791
I -3.6966368531519134 1.2985696638081237 -0.13086328284322415
O -1.810089147266673 0.30890452009306674 -0.05719201682322571
C -4.298489276389012 -0.5033069707337233 1.034691365871283
H -4.126965499003651 -1.3889491462309682 0.4369956218687659
H -5.353424732288602 -0.36449742750386804 1.2329603861471166
H -3.7303772828889783 -0.532204843842227 1.9552544656501059
H -1.8345435985938627 -0.537169563675175 0.3935968555563389
O 1.0480266559010238 -1.332407011800783 0.5356232105185008
C 4.247659187781261 -0.7613674389315485 0.5721209843079262
H 3.274203884444514 -1.2344512331044482 0.6734888786452266
H 4.436430587214985 -0.0855320736922775 1.3972771773778132
H 5.0324160113730505 -1.4986867405834132 0.4697647117347481
H 0.9361255146884752 -1.1679259326751243 1.4784029342762883
Rh 0.8608004718049461 0.4079228793664151 -0.5738027499205485
I 4.191929230914631 0.4064470839698817 -1.2301194334503431
I 1.2895829540455643 1.8527966490676657 1.5738780738310603
O 0.4446958717625845 2.8760861720491993 -2.1950778055664464
C 0.6496220907397062 1.9236465851163498 -1.5680300277000778
O 0.36557431710153626 -1.2197680005544895 -3.030403771487047
C 0.5817553427442956 -0.6178059358051343 -2.067510776767643
