12
## STRUCTURE-ID: 64566af8f5267108865eb02b ; CHARGE = 0; SPIN = 1
O -2.6577808712321818 0.464126067860571 -1.544574789441472
C -2.4039560800398427 -0.14108152034992233 -0.2958499373495572
H -1.4890313796310197 0.24996561256503833 0.15996459637936783
H -2.3257655014577985 -1.228865845774605 -0.3854361748616398
H -3.2502405351400894 0.1007536705629772 0.3446235360794222
H -1.926070509403377 0.26652708061108543 -2.141215204375191
O 3.4112596717240278 -0.10375991487976914 0.7201736962296874
C 2.022294423102641 -0.03155415814052774 0.48509324341387877
H 1.4499018088531432 -0.3238732290200041 1.3710746013186448
H 1.8083606499383718 -0.7314887343878347 -0.32079173136110434
H 1.7205711593850674 0.9737919515548652 0.17470470820493642
H 3.640457163901059 0.5054590193981363 1.432233455763024
