21
## STRUCTURE-ID: 64567575450d1a10ef293431 ; CHARGE = -1; SPIN = 1
H -2.4972828047644646 -2.0505871292978095 -0.46098821056238337
I -3.0210635356783198 -1.777600834203477 1.067322257220791
O -1.4922943582606658 -0.3329701099142671 0.30611681893163456
C -2.7152283872070533 -0.5687620248850588 2.865581169529648
H -1.664753515219746 -0.5924870064056982 3.1296103787474183
H -3.328839869207906 -1.050876580507864 3.6168423741209015
H -3.0450210787578653 0.44301824515298066 2.6729506125943594
H -1.6088277952116963 0.5556026651302337 0.6499533656332718
O 2.29619260784241 3.730202096273198 -1.6721041342554115
C 1.7534488339552843 1.2650311347321925 -2.761075586072477
H 1.81105281101689 2.239354187534395 -3.220430718959846
H 0.8570666467272106 0.7367287907329232 -3.0701567003311614
H 2.6381095511668513 0.6838131063515538 -2.999238126012621
H 2.4390282715881035 4.386643906923071 -0.9898503224167896
Rh 1.0209912856912575 -0.801688193146277 0.23269218766788555
I 1.184393770290824 0.579054392173708 2.4555439616399912
I 1.6830607201965582 1.5680714175012518 -0.6758169672101048
O 1.9209479731562957 -1.9372342672108724 -2.386613163964071
C 1.5487466487850028 -1.5399230768594212 -1.3629909584744633
O -0.19904548121329416 -3.1828406204996207 1.548347781994939
C 0.41931770510426447 -2.352550099575109 1.0543039801784941
