18
## STRUCTURE-ID: 645689b8e6dd5062856f2c9d ; CHARGE = -1; SPIN = 1
I -2.812940459671426 0.7791178810376573 -0.11402894781497927
C -1.4067122361463666 -2.464221576130176 1.4082862810453092
H -1.0794440982373354 -2.4722903967923395 2.446335212381366
H -1.3084888551364338 -3.4604316037296012 0.9834122415229682
H -2.463969354593395 -2.185552263526078 1.369917686308481
O 1.792134479154841 2.358122569123386 -3.0251462228040658
C 1.0945963969857857 2.4944559325168343 -0.38903838812539543
H 1.5654447199780435 3.2630925084360687 -0.9837172638722
H 1.760983944773997 2.1371339912777225 0.38818780544782683
H 0.15831618958910293 2.84617588409133 0.031335177537092064
H 1.8153718331549633 2.0422408522881073 -3.92805406011036
Rh -0.5803890772998977 -0.7365978303094297 0.13339301633249215
I -0.9598610052175881 -2.1203971188997626 -2.1294801646317727
I 0.669706439309948 0.8842490192945311 -1.7109534342051111
O -0.0631029412271644 1.1053832756536839 2.4258327024864057
C -0.22290166680795734 0.3967119577795429 1.5367002203024034
O 1.4035723604977255 -2.8335191381110736 0.9341718707785508
C 0.6376833308931712 -2.0336739440003866 0.6228462674210082
