12
## STRUCTURE-ID: 64566be54c6dd310256cdb4b ; CHARGE = 0; SPIN = 1
O -0.09555192493398094 0.3197054932131584 0.09466961878724679
C -1.2815596374184641 -0.28080041590549415 0.5689474672482986
H -1.6180585495240325 0.198751514551309 1.4943178366471936
H -1.1316368186049877 -1.3500791144688278 0.754211994004661
H -2.0318421937586484 -0.14622341683680798 -0.20654664762002395
H 0.3523141190626423 -0.0707785217993929 -1.7238243358338963
O 0.5855705506049955 -0.18616652006201206 -2.6576321504670672
C 0.9722864357915832 0.2235203854914761 1.012703971244036
H 1.8283435324937007 0.7089584463242506 0.5500685424175312
H 1.213669000973164 -0.8237473585751772 1.2247229258205279
H 0.7251185043096123 0.7293060927086701 1.9520733730388018
H 0.48134698100441786 0.6775534153588497 -3.0637125952873094
