21
## STRUCTURE-ID: 645674b9f6577745d732dfde ; CHARGE = -1; SPIN = 1
H -2.651259520121665 0.1999925145688641 1.4627387278596105
I -2.5077959386324826 -0.20544637886418443 -0.05496457470070119
O -0.730381863715315 -1.2516851606239285 0.960789307161414
C -4.3667289894050985 0.9333358891747906 -0.4085403258147365
H -4.171161024475109 1.9563939409721935 -0.10827714188636244
H -5.168559825157062 0.5014796249881084 0.1778908637086083
H -4.610592566667473 0.8970133182489859 -1.462646433429612
H -0.7576687974155323 -2.2044513401808477 0.8803892712032246
O 1.397928554317435 1.2229575930344612 -3.2617095407994694
C 2.4929102595923456 -0.7663742441308414 -1.7650534549599666
H 2.272747177490032 -0.7787711236325432 -2.8213871078460007
H 2.2354885121768824 -1.7119911891027126 -1.2968339951127381
H 3.5421269117846728 -0.5402791961868787 -1.604507841086104
H 0.9317321433785919 2.0373359720435493 -3.4517252077553975
Rh 1.3317189923501593 0.009989544189148955 1.6188518054219172
I -0.16266111562262095 2.1729104358164184 1.7061017406468235
I 1.3327970464408911 0.7603898573675189 -0.8862523088847327
O 3.9723291340939104 -1.2954489099140776 1.060635853065815
C 2.9351445625968533 -0.8260651880871769 1.2992942164179546
O 1.3702437361838165 -0.7156045697720819 4.530267942904949
C 1.3116426108067576 -0.39568138990882623 3.4249382038854934
