12
## STRUCTURE-ID: 6456662066a93847cf293431 ; CHARGE = 0; SPIN = 1
O 0.9708332915788388 2.5756260394296673 -1.4365931756329369
C -2.1367421162807645 -1.0552268470485575 0.31712746688803584
H -2.5705060311610057 -1.651660435498076 -0.4747655182959865
H -2.686919241732689 -0.1283049464691021 0.41307036157665333
H -2.18785808830302 -1.6017959550420784 1.2497593896339458
H 0.15494004455861532 2.5279200592408038 -1.9409204694538083
O 1.268716763994622 -0.021152685235362404 -0.04803129989828046
C 2.1327213310640776 -0.3914703955683976 0.6978734549298943
H 2.9526313723016755 0.2668503343637592 1.0152566603271322
H 2.152050844183704 -1.4108468523118152 1.1065290480979013
H -1.1034920227301586 -0.837270627960757 0.08079606569025291
H 1.0536238525261086 1.7273323120999156 -0.980101983862814
