13
## STRUCTURE-ID: 64567257c099543f2264e47d ; CHARGE = -1; SPIN = 1
O 1.272351142261935 0.39162917127797964 -2.5910985574966476
C -0.22383095448149165 1.2646066119431891 2.9956336713125142
H 0.7031009967511507 1.527863333951774 3.490476944341347
H -0.5140947513739033 0.2432228117040488 3.2205408662789528
H -1.0158726903238227 1.9637920744942232 3.234518120992417
H 1.2373426414570392 0.9126156817693988 -3.4178181266687577
Rh -0.11085555409753994 -0.8757269624923824 -0.44749375034598077
I 0.1280700732651 1.3806350229762414 0.8251531048576926
I -0.6362021303484775 -2.3322953133597326 1.6764611002319194
O 0.08010578377148993 -3.0157481116169853 -2.512477301204549
C -6.647490211408168e-05 -2.2315527920183222 -1.6541123386383763
O -0.9433503987221845 0.6096075038430583 -2.7187027044778165
C 0.02330231674281038 0.16135096752750366 -2.1010810291827102
