18
## STRUCTURE-ID: 645671c31a83b4426115987e ; CHARGE = -1; SPIN = 1
I -2.592693269555781 0.8608973952274673 0.08428624383388064
C -2.92219648530679 -2.1687473059260123 -0.315499842759607
H -3.526274147224354 -1.9571828604316523 -1.1950727897944966
H -3.5676460365106197 -2.1859695528386 0.5593465083852183
H -2.464540430775819 -3.149818640449397 -0.43235359718615396
O 0.533877188679617 1.516134550122934 1.7605957561362344
C -1.821280515285798 -1.1504018442757926 -0.1509764089444325
H -1.166895723359729 -1.1109190026842097 -1.0191500967989369
H 0.7296495204821305 0.7141233972617601 -0.900501660843581
H -1.2231280438622294 -1.3386981461021403 0.7360148028224475
H 0.5160139986619602 1.8343127225053477 2.689612868592873
Rh 2.184156332399962 0.7213434104191763 -0.5170218220492059
I 3.9823586406927074 0.04697073314329017 -2.3914776398609408
I 2.070354176818833 -1.6700314270317687 0.5279650799389121
O 2.766944095075252 1.674233439298272 1.8629943267980247
C 1.7387171040274976 1.3972573080196216 1.2674829963148055
O 2.444765903457692 3.5297211212766895 -1.4464141757173126
C 2.3178176915854083 2.4367747024650046 -1.1198305488677083
