21
## STRUCTURE-ID: 6456792e9cae2f09790b3f6e ; CHARGE = -1; SPIN = 1
H -2.6084464833489154 2.295406932185947 3.3785691728729206
I -2.749536437734733 0.7759036941069732 2.916435028827115
O -1.0769537978994213 -2.1695876187339764 2.887447212437553
C -0.5438994943241487 1.1838245834500771 -3.0444679029679973
H -0.7038678761514966 0.29361368163018076 0.28244669716557913
H -1.0119854077786754 1.9431619728597878 -2.418635856807831
H -1.1320963551696606 0.2711356230017972 -2.9640347008684502
H -1.2284599342154965 -3.128257324387439 2.985212071967991
O 1.9933974768630143 -0.7433965606956217 0.18247733007337158
C 0.8641176258141469 0.9590762059375738 -2.5525561656565112
H 0.879435028386857 0.5856707916362901 -1.5319465068716542
H -0.5544085701909109 1.5233887850165861 -4.0777857789074075
H 1.4702187609571487 1.8576867082871107 -2.622323364536691
H 2.865525155908292 -1.18489945993834 0.2431359831132298
Rh -0.34972775449889043 0.04991220525127111 1.7273037904846198
I 1.892734361068887 -0.5288551953580304 -3.726402923181333
I 0.8032374639633914 2.365173301517083 2.3447809395215646
O -1.0813005247569398 -2.615816342208843 0.6931167907797334
C -0.9419470443633109 -1.7944635973344154 1.5792280864615584
O 1.8489167002082372 -1.215793039400825 2.3659800957802055
C 1.3650471072626558 -0.7228853468231663 1.3520200003124019
