21
## STRUCTURE-ID: 6456770bd177f62e4a248ae6 ; CHARGE = -1; SPIN = 1
H -2.9080972600010293 -0.48800501639585164 1.8460568389767185
I -3.500034157644977 -0.20217709137584236 -2.3680889091539354
O -2.39700419643799 0.30122814666320397 1.6434450078959302
C -1.018126842803635 -0.0030756727200390117 -1.4203549765947299
H -1.477239939898739 0.039420041226665196 -0.4435560522353198
H -0.9707026322792489 0.8879580260266455 -2.0202157456361576
H -0.8566657582360413 -0.9545207885413285 -1.89626999664593
H -2.9576394953026894 1.054398507588318 1.8527203440456528
O 1.3685241218427844 -1.490030597869489 -2.8300674766860845
C 0.2930208981609878 0.4511818270166605 3.4715805851301673
H 0.10545667629691606 1.1166898335222322 4.305284248698713
H 1.2072443889354714 -0.11579831789729522 3.602634798934527
H -0.544362651541352 -0.20922493671906228 3.281773751876577
H 1.9324476907198769 -1.995947686628008 -3.448494776804359
Rh 1.1562291085342409 0.1298679676551586 -0.4807739824009163
I 1.007853772109866 -2.0923617676413118 0.856995920606995
I 0.5247440000866965 1.6878892180031546 1.6952145808554442
O 3.310809611618526 -1.0112965879123614 -1.8509037051336663
C 2.091137912461859 -0.902998382489518 -1.861966541931159
O 2.017479246125534 2.28249662751967 -2.350916922596984
C 1.6149255072529256 1.5143066509683563 -1.5840969912014655
