18
## STRUCTURE-ID: 645671bf317a7b15591d80b3 ; CHARGE = -1; SPIN = 1
I -4.270996459050948 0.842841415081936 -0.890472817267747
C -1.7803767130803576 0.4673413643093627 0.23675920737723033
H -1.829844470732437 1.5117298107851282 0.4678288963713168
H -1.5160052943588678 0.17813968611048256 -0.781276840505895
H -2.3020584968726467 -0.24544145221773062 0.8386465746419279
O 3.06950051373313 -0.8176336636099355 -1.0746715626535057
C -0.3155376794536794 1.0719476244948867 3.095551933029643
H -1.302422763282534 0.6747548260613753 3.2979559541032994
H -0.3487793648204257 2.1297073799363004 2.8647546478328385
H 0.36861328324208403 0.8689493489930408 3.9097544780016906
H 3.981170743553081 -1.0329836856676191 -1.3572736151301745
Rh 0.43536706957482846 -0.3255619351382841 -1.4237910368723998
I 0.8614553005850101 2.140815580243715 -2.0549953053444536
I 0.4765748268169616 0.026197514145899915 1.2978719465063302
O 2.5040163957530694 -1.255260175367435 -3.1949470918710805
C 2.179600218743722 -0.8987512819921518 -2.0774452966905383
O -0.21709889900454366 -3.2296914465096678 -1.6654940141178844
C 0.006821788654563184 -2.107100909659268 -1.488756057410632
