12
## STRUCTURE-ID: 64568f1e0ffc037af264e474 ; CHARGE = 0; SPIN = 1
C -1.245409260898561 0.9600146401730366 1.7498077119932531
H -1.1745486091173354 0.20324963612374508 2.525690843334862
H -2.285216648444068 1.1517529273340794 1.4887011031757575
H -0.8105883994994756 1.897785050521624 2.0954895842880186
O -0.48736149827341735 1.1332496464952355 -0.5473704827266287
Rh 0.7246417500051597 -0.35849035056211204 -1.3355951522321436
I -1.358367809967875 -1.4463459641439371 -2.479219785313018
I 2.8285589757904654 1.1348650090098023 -0.9260863027753918
O 0.15442920247874442 -0.5822224747760789 0.5432456681559177
C -0.5156012817168228 0.5096327115380743 0.5420096543069292
O 2.396349279333581 -2.7625778603210356 -1.9257312016775818
C 1.773114300309608 -1.8409129713924508 -1.7309416405299407
