12
## STRUCTURE-ID: 6456689d0a38c747ab1f8bd0 ; CHARGE = 0; SPIN = 1
O -0.7553574087704128 -0.09477583778470874 -0.6006576799681768
C -1.514852295107742 0.4603678530923156 0.42039324598165184
H -2.5158321333715103 0.674621463866887 0.04475595288373329
H -1.0758435140385947 1.4283606221246956 0.6850828990764846
H -1.573034265281003 -0.19681234427679745 1.2928061865065141
H -1.8901849885057642 -1.204540850764885 -1.5663872655656412
O 0.832178703371381 0.5672000695847516 -0.3346284512123497
C 1.6942655928309263 -0.4134601030001087 0.221197301212051
H 2.704165876975765 0.0036237583721946054 0.21825687916429093
H 1.671396160495572 -1.3431565326607622 -0.3467371890688664
H 1.3729541702298942 -0.5965436653769679 1.2447854800304596
H 1.0501441011715047 0.7151155668233873 -1.2788673590401622
