12
## STRUCTURE-ID: 64566dbafada7d7a9d5fdab7 ; CHARGE = -1; SPIN = 1
Rh -0.8870558949087132 -0.5585026108823584 0.39957334918349374
I -2.1446085810652544 1.552842456283002 -0.729496992045858
I -2.992639194869375 -2.3309655608480324 0.6778413233405701
O -1.668226510270836 0.4955374114958413 3.0603918946586193
C -1.341611680993424 0.11049302489546785 2.030041907061726
O 0.01411437525415802 -1.001035046932809 -1.5218783794702377
C 0.5010288528486422 -0.10438367233502424 -0.8769475171690868
I 1.0941709615157007 -1.935860854317967 1.616897797166818
C 1.6342334045595324 0.7912954209914657 -1.1176841189759779
H 2.5456685218829977 0.2436967945790689 -0.8621992148669144
H 1.6647632855627597 1.0515063787811962 -2.177266421110025
H 1.5801624604838176 1.6853762582901413 -0.4992736277731268
