19
## STRUCTURE-ID: 64568eaad69f9937694dd52d ; CHARGE = 0; SPIN = 1
H -3.753361808930976 0.06019567943469562 -0.9172730297463417
I -2.7749431345186593 1.006542682507342 -0.09265152877355246
C -1.617162228563524 -2.2225753861223168 1.406038619038917
H -1.0933497231737 -2.5998121819815196 2.2807754802942903
H -2.497513114840378 -1.673801652620282 1.7434445067965136
H -1.9225895494751168 -3.052586121982218 0.7743335830025773
O 2.1548305174396707 2.294718093785653 -2.9261754625857948
C 1.815537787974543 2.2424037975433126 -0.21993604842778844
H 2.4194696125496105 2.9302447657882036 -0.7924327775401607
H 2.4290394176958565 1.665157055743588 0.46220463604886436
H 1.02891297335967 2.7681261708899085 0.3091230993193493
H 2.0484574005702276 2.0712437799293753 -3.849431536450301
Rh -0.5201360857987868 -0.6552279921888589 0.19345405317265207
I -1.0689268214803276 -1.8032775018308105 -2.141948139755705
I 0.9406718749274233 0.9207455558908965 -1.6304118917410588
O 0.49749719984801366 0.8621258957342616 2.5730083228943323
C 0.11593023347746143 0.30949387075248863 1.6493999374746333
O 1.2374049237893512 -3.0133636828379196 0.669751172388583
C 0.5602305251497439 -2.1103528284356994 0.50872700459003
