18
## STRUCTURE-ID: 645688cd52bc6868d55fdaba ; CHARGE = -1; SPIN = 1
I -2.6759570399485217 -0.9485731404187355 0.34687383279635753
C -1.6298593584082717 -1.6598575384246086 -1.4286284126910918
H -1.8124705628473012 -0.9474497796240511 -2.2250965364066424
H -2.0269192908552522 -2.6372092004353966 -1.671592113964778
H -0.5769882477957666 -1.7155057526159747 -1.1728026962038194
O 2.1323544084493475 0.3002788135281963 2.3144995580893566
C 0.878832366443693 1.0753831607935391 -2.256418193417241
H 0.4222092545797392 0.7803184285695661 -3.192995079005199
H 1.159384190030021 0.21368431950471953 -1.660238646836692
H 1.7285348618533187 1.7270291829992863 -2.4194405364507094
H 2.8430680588549864 0.3816866567698326 1.6529344617106017
Rh -0.6920794952151867 0.8272587771472838 1.253210537863664
I -0.7312780997237851 2.9085043742795427 2.95548020378709
I -0.5986315638210769 2.202231386004596 -1.113409448941695
O 1.1368816351299844 -0.825508626511747 0.6156221397332302
C 1.0545959971207457 -0.33090104495274186 1.76801847839415
O -0.4592040734957354 -0.9710258420093292 3.624844180996835
C -0.15247304035093953 -0.38034417460395537 2.6091382705466475
