12
## STRUCTURE-ID: 645667009309a939c87cab83 ; CHARGE = 0; SPIN = 1
O -0.9234968127545834 0.5481429016717981 -0.8831749773129748
C -1.7364626042813642 0.15746373731287647 0.20211433603125523
H -2.2416102171128087 -0.7910699709032737 0.0030834940351423023
H -2.4729922335314516 0.9248137036434547 0.4498881813655027
H -1.0721627163132317 0.019807083996538764 1.0655646456040206
H -1.4823768199398164 0.7645880703810175 -1.6377866420488714
O 1.3281817220421683 0.8205350314341512 0.3118991573854553
C 1.1144948621297965 -0.23278644813273505 0.9081465600806223
H 4.283777842721243 -1.6809810257500761 -2.1668658391301063
H 0.8030375156244305 -1.1563045252556527 0.4148335111005704
H 1.3155547016134619 -0.24297478484707752 1.9839627158576618
H 1.0840547598021621 0.8687662264489747 -0.6516651429682788
