18
## STRUCTURE-ID: 64566f28ba71a93ab12726a4 ; CHARGE = -1; SPIN = 1
I -1.8787840652780454 -2.1896065155945705 1.3352214953460961
C -2.300022818979201 1.2308071766762168 -0.12174511055571634
H -2.8463598584624554 0.3094897073947274 -0.2865380242325233
H -2.637046603232438 2.019969274217619 -0.7831128287126714
H -2.415491665743585 1.5466945226793665 0.9084160349972342
O -0.8338070113888798 0.4201625392716169 -2.3156773961694137
C 1.6714183836036607 0.5329659976115432 -1.687893290417831
H 1.7014803190873018 1.2366663561279354 -2.509325202873243
H 1.6348693918020463 -0.4789318885061558 -2.0734675789792645
H 2.5325572604032676 0.6652884218551327 -1.040556736228943
H -1.7831570504053937 0.5358009961913253 -2.385257844416055
Rh 0.5678508461756755 -0.6788650012104115 1.523531737905962
I -0.3233175053448062 1.226248578277029 3.1411277639453066
I -0.11876911090150763 0.9333027856546702 -0.47155651946746985
O 1.7289012249947302 -2.691427592771735 -0.3451654643527682
C 1.3263490526359454 -1.8884290576822471 0.37645984965510143
O 2.305601109875124 -1.5259761900274884 3.819599083085214
C 1.6677281011585574 -1.2041601101645802 2.9159400314709902
