13
## STRUCTURE-ID: 645688636b1aec2ced1a5614 ; CHARGE = 0; SPIN = 1
I -1.542160314484376 1.7435034714234967 -1.598140768792886
C -1.2706350765347192 -0.49324326494468435 1.0030343854855552
H -1.7492283025656146 0.26136663926809345 1.6334597024065418
H -0.9082527943524962 -1.2862907843799967 1.6601459533195475
H -2.055709392589972 -0.9059266690397049 0.3620514336634406
H 0.667661413654862 -3.157340333942692 -1.3736863709535458
Rh 0.27815590574781013 0.2313207389109153 -0.27201355528217047
I -0.12135177248003097 -1.9392996285099324 -2.023830164947346
I 2.17223294367284 -1.0997337954179547 1.1136354154394772
O 0.3358885138128711 2.243631602359294 1.9064725435161733
C 0.3258334203064207 1.4826219302701324 1.0645808688463934
O 2.2489095586137986 1.8487940497353559 -2.001675817827247
C 1.6186558971986127 1.0705960442676783 -1.4740336248739383
