12
## STRUCTURE-ID: 645669c3c593273f8a7cab8b ; CHARGE = 0; SPIN = 1
O 0.0773518278521061 -0.2380271336129505 -0.13875932482219033
C -1.1646707015573419 -0.0760410861432329 -0.7891962147671856
H -1.4465324842587595 0.9815193991896055 -0.8373014802826453
H -1.8992555525556059 -0.6228036143893129 -0.20274280115683024
H -1.1278679387430153 -0.48227767185121684 -1.8056683224206789
H -0.009792531959162477 -0.21922788438557306 1.787633113524844
O -0.04729512127705223 -0.32386813994510605 2.749945188389983
C 1.1327611274089944 0.4252241339594513 -0.8006674842606606
H 0.9480771903562911 1.5039917667756362 -0.8501068015086942
H 2.0341061240029816 0.2348660487444585 -0.2228112827719353
H 1.2585256060267727 0.03806563250258928 -1.817554583800351
H 0.24459245470379967 -1.2214214508443526 2.927229993876332
