12
## STRUCTURE-ID: 64566bb16a01b01c116f2ca0 ; CHARGE = 0; SPIN = 1
O -0.7301671801382241 -0.547044402384962 -0.1557915818770689
C -1.5847807253945116 0.17372477552101714 0.6366045144513899
H -1.4806966833043516 1.2621797268517587 0.4928487485179784
H -1.4303954526620304 -0.050049883232748664 1.705339799864568
H -2.6239237099089725 -0.09551863895807064 0.3952688822964505
H -0.021033362065676672 0.07433397240300511 -1.2271592505994984
O 0.9088048769202177 0.3845876752039639 -1.5677911330984349
C 1.2955428379644436 -0.19167925873671798 0.3001828489144533
H 2.2465626680118906 0.23436188736193586 0.009913199695142604
H 1.2932243954206464 -1.2627178719436374 0.39576576830370314
H 0.8486430725679452 0.3424321415357165 1.1211656299696326
H 1.2782192625886282 -0.3246101236212573 -2.106347426438318
