13
## STRUCTURE-ID: 64568cfeae7aaa155c6dc15a ; CHARGE = -1; SPIN = 1
I 0.7597234370546758 -2.9080726736971645 -1.4097860358458676
C -0.3580824460385493 1.4224057503600132 0.6785824348659638
H 0.3924109817132118 2.194858588485953 0.5038851262409916
H -1.3184264091379836 1.7766936254394694 0.3012861446139929
H -0.4460577377907009 1.258659985809104 1.7543294883399134
O -0.3313284927673022 -1.3437189331117119 1.5429817693629713
H 0.3668614456727471 -1.3116761083241084 2.206317341522034
Rh 0.22847897140174347 -0.4163383920515904 -0.20560314275148653
I 2.722453384625591 -0.05208905555831006 0.6697403813069676
O -2.574176022020757 -1.136537623214307 -0.8986660350679441
C -1.5103848397934778 -0.7933366505620584 -0.6817191938093944
O 1.2571616327400432 0.8917682863406212 -2.7000110733123113
C 0.8113660943407653 0.4173832000841093 -1.7613372054658212
