17
## STRUCTURE-ID: 6456b787f0565959ad2cdf85 ; CHARGE = 1; SPIN = 1
C -2.2868724463502446 -0.4634947138517105 -0.4431518422947527
O -2.4654262790666674 -1.4715435027863515 -0.9333442283526316
H -2.2040797570020385 1.1625452558617977 0.4994120286675173
I -0.3030156956586444 -0.6798259530286214 1.7724785665537344
O -1.9541348703265424 1.7622798775240143 1.2759883856570606
C -0.6133387934812454 1.5032727849657648 1.6921940903003267
H 0.12347371725659471 1.904596273005326 0.9913236318612553
H -0.48293387808991756 1.8692945994875863 2.714484368654835
H -2.066871796300648 2.7128482549233706 1.031099212609971
H 2.613419766338259 2.135450060677058 -0.4176972654931696
Rh 1.3523274065958 -1.0419605851889813 -0.9544360842574556
I 3.1748156333621047 0.702170200837409 0.026883632269966876
I -0.12330167625832114 0.8620151290333088 -1.974992861661928
O -0.3507264157641675 -2.811042049765248 -2.6483003159554426
C 0.29609764531470756 -2.1533733046601102 -1.9722076312585084
O 2.932760775302998 -3.475581040693827 -0.20589131214937612
C 2.357806664127908 -2.517651286340711 -0.4538423751513618
