12
## STRUCTURE-ID: 64566843a37c7301815eb028 ; CHARGE = 0; SPIN = 1
O -2.6399661387713325 0.6002303400385197 -0.6756076799320154
C -2.079179951280556 0.41263835841293045 0.6084849765123742
H -2.6008435370349514 -0.37955102488802006 1.155642719778382
H -2.20661589507775 1.3522860079807493 1.1433289249391134
H -1.0141796230826339 0.17332186343457007 0.5508302630321597
H -2.4649163345795433 -0.18783360318988884 -1.2029467242595984
O 1.3350646774361843 -0.4734759279287539 0.41594852265469245
C 2.2909611929289193 -0.2572189327629534 -0.5996778489603513
H 2.928273561174793 -1.1350149000322654 -0.7420941898141835
H 2.918142958483054 0.612259688084353 -0.38123889586420745
H 1.736433582932508 -0.07028479109150239 -1.5175944651858295
H 1.796825506871417 -0.6473570780578092 1.244924397099371
