12
## STRUCTURE-ID: 64566bd919341962a04ed2b0 ; CHARGE = 0; SPIN = 1
O -0.6713128103265156 -0.5789701486913927 -0.27389084976470357
C -1.6701883310731218 0.09531916975820842 0.3791475198953006
H -1.58274437312103 1.1893592427523445 0.27321179277002294
H -1.6852804003526565 -0.14794546422829027 1.4545598942954732
H -2.6450761896091053 -0.20206245282167234 -0.03496156571826598
H 0.16364538781605373 0.09839532162272764 -1.2042037092830513
O 1.1177577182665486 0.46582379114553957 -1.3933779591742723
C 1.2412603047793382 -0.15067883206839278 0.4983731923146134
H 1.2881795873230693 -1.223486992162465 0.5535551444656069
H 0.644089816074038 0.32095721725386883 1.2600795128998046
H 2.197311220247812 0.33965552138841953 0.373693676394881
H 1.6023580699755764 -0.20636637394887844 -1.8861866490954033
