12
## STRUCTURE-ID: 64566b8a939eaf1b7f7c7c4e ; CHARGE = 0; SPIN = 1
O -3.7734346924815783 0.8844339486133324 -1.9966612727954496
C 0.4352859771977748 -0.1895311270478516 0.5900470237382455
H -3.7475743045533374 0.0698828253319078 -1.4873893009063877
H 0.13277113526608464 -1.1274988416287774 0.13114111502367654
H -0.2161290723644488 0.018390984024803252 1.4336577643129755
H -4.6785391902747095 0.9958032286618838 -2.2991889213786374
O 2.784062949561252 -0.6078515532807994 0.030104609703049665
C 1.880350141769278 -0.2819581209663284 1.066759456198658
H 2.179547346268604 0.6637296092541386 1.541692394040678
H 1.9872302952082765 -1.0826546732891515 1.8031401487215541
H 0.3224429009251512 0.6087082164265812 -0.14091849067714973
H 2.693986513477688 0.04854550390028264 -0.6723845259812271
