18
## STRUCTURE-ID: 64566f184ea4be730e4609ee ; CHARGE = -1; SPIN = 1
I -1.6122872134718345 3.7695895818182543 -0.9014716717734632
C -2.6178925572153733 0.4506351696183821 0.8637865244096449
H -2.910683064624993 1.4883638285722531 0.9823479057536473
H -2.342092311345333 0.01201497626995957 1.8159861710717538
H -3.4256959354957757 -0.10986447938063945 0.4070385575174757
O 1.2040953942280497 0.5034439635680673 -1.644811004387522
C 0.2440265215968729 1.35121163517152 1.018615169586567
H -0.3061770670049398 2.2420561371135497 1.2994172903111394
H 1.1910586216540255 1.6181852248587023 0.5668032547341352
H 0.3808961029354953 0.6777097542741229 1.8567755795257324
H 1.0099051842889823 0.6323237175981711 -2.578253984132543
Rh 1.3204365618492968 -1.5361640202734506 -0.9779970995445829
I 0.0778658642334613 -2.371120065851836 -3.115001339153571
I -0.8952930227035967 0.36108077628988405 -0.4602047114820876
O 3.245372167195716 -0.5090905948200373 1.0645117087261886
C 2.4899512578774514 -0.9329653455259056 0.3106622043090958
O 1.507571169816922 -4.37384481480059 -0.09455645665756722
C 1.438942326185566 -3.273565444500395 -0.41364809881404424
