36
## STRUCTURE-ID: 6456ea56838be67a8c2648aa ; CHARGE = -3; SPIN = 1
Rh -3.7286687024096437 -1.0608054535540923 0.508877036915185
I -6.122761294546048 -0.19388266448544042 0.9449060892397201
I -2.1978835449813894 1.386403901951199 1.4688016493966125
O -3.453300440286012 -2.8333613168559717 2.916161517740049
C -3.5961630770372164 -2.1721204830490706 1.999079553398439
O -1.3288553920826505 -1.7571032965664535 -1.0922472292571241
C -2.233839335375687 -1.666756330228832 -0.3786562990015491
H -5.649864781485717 -0.8626593912417851 -1.9799974005231522
I -4.2491328319804245 0.11765260519730032 -1.700874560585068
O -4.1865572880614 -0.6845286299143635 -3.5481488174240443
C -2.3955362610288007 0.9906650633946177 -2.357108020074952
H -1.6765111839750015 0.20946060632815047 -2.590368146002947
H -1.997223574865249 1.591094017855605 -1.5462670645211327
H -2.5559661895788492 1.6296992672400168 -3.217001902754861
H -3.4656232266586997 -0.386324934408615 -4.1008907419392715
O 0.4352043526284352 3.9476527059278985 1.7640022041246
C 2.787268494777226 0.9308371136648358 -1.7181199375805718
H 2.584232470645149 1.991411812701411 -1.6600084793583587
H 3.0573521847865277 0.6172876981912582 -2.7177660942823993
H 3.5538851592910334 0.6612837346885567 -1.002841323271768
H -0.15558274206483066 3.7518655957596376 2.510787805357036
Rh 2.2518171959531252 -2.202791223098443 0.5837303610680161
I 0.9843028719679711 -4.225008231858869 -0.5542179226254776
I 1.0193833003973387 -0.08561931342235847 -1.161676870818964
O 4.105210626895798 0.024253802512379227 1.013506600344666
C 3.4326496731944127 -0.9089474951360451 1.4885379957519913
O 5.059233427071239 -2.7950006107380916 -0.18683284307295525
C 3.912290579054821 -2.6621969130728003 0.020962080930540795
O 3.7082680532967123 -1.2365694345270009 2.805786410979876
H 4.414576225098717 -0.6669771902264834 3.168344637610754
Rh 0.4191192151886873 1.0197717676975402 1.6053218826092683
I 0.271245919781895 -1.6415614280564643 2.3509348289921674
O 1.3005758339059013 3.083708945625167 -0.06518421736843064
C 0.7415871527931971 2.8419856025565666 1.004932610067853
O 2.9465165007651946 1.8457025297089147 2.9852337908517956
C 2.0087506289241785 1.401477569440107 2.4383008150845624
