18
## STRUCTURE-ID: 64566f227450cc11143dae61 ; CHARGE = -1; SPIN = 1
I 2.306499471004348 1.130423242013785 -3.0753881860256644
C -3.700040631860961 2.747374547967391 4.46867093201887
H -3.7563724337977606 1.9879788829817127 5.237362031748268
H -3.08539043083063 3.5674865004798466 4.815193134484654
H -3.259540506502473 2.3214151080604224 3.576153918256125
O -1.349743469735375 0.6558701546119697 -0.18019100803953192
C 0.434483191287581 -1.2343910212219218 -1.5758779210795233
H -4.694403250591601 3.1094138840620302 4.2427382897633406
H -0.0980082669118758 -2.0998542712294186 -1.1519221740803482
H -0.3063586340145839 -0.7057125512424336 -2.19101684424631
H -1.4226077988912422 1.6075800565278444 -0.27680592826817046
Rh 2.36497559838729 -1.4404260826989386 -2.428149113405573
I 3.295418265904525 -0.9323305359850456 0.4833899798080992
I 0.5822092231693667 0.09850930068703265 0.09857342744016313
O 1.6874511376054988 -4.3525096362534486 -2.4570623320935367
C 2.0114175955674156 -3.2459391567732725 -2.431901128212452
O 4.9904503293542835 -1.6329819303685809 -3.866327423035251
C 3.9995606108562614 -1.581906491618915 -3.2874396550331944
