21
## STRUCTURE-ID: 64567cf706ebab29d12a156a ; CHARGE = -2; SPIN = 1
O -0.7511246469720552 -1.467133625061076 0.8476442623236188
C -2.8111653886786736 1.2866081670022862 1.7505282478175723
H -2.897425866752792 0.2095353850585977 1.8435112144633388
H -3.6374260534971383 1.6847261188175864 1.1696946488116342
H -2.727395640422379 1.7694911840081058 2.7175787873853485
H -1.0239104312977583 -2.3910248768497886 1.018010754765539
Rh -0.8558461894286153 0.04365803795580323 -1.390886621207334
I -0.9519343544646164 1.717863752252796 0.6390296584238061
I -3.4617860034963703 -0.16915330468334092 -1.5349893877029124
O -0.10046066085608468 -0.8998025800210623 -4.107996891239897
C -0.49308630321382707 -0.5615685579304958 -3.06351910076687
O 1.7062578165225366 -1.3314094025719958 -1.47239532654573
C 1.1436576416029869 -0.21554868702138238 -1.4245141252510016
O 1.8392890473570385 0.8317778590454344 -2.040137876853421
H 2.696772937891088 0.516207000859827 -2.3793662993655116
Rh 1.3470742201609969 0.5045380985953706 0.8671165552378312
I 2.4135240742572717 2.9478201867602736 0.6108408044366022
O 1.0779037376150458 -2.2382958097100123 1.8213695942092634
C 0.5561055095343526 -1.2689928196464408 1.273206356049143
O 3.977647675106486 -0.7375780449813183 1.529677702821683
C 2.9533288790325383 -0.23171808187917917 1.3255970421872647
