12
## STRUCTURE-ID: 6456684a1bdb9717ce28a816 ; CHARGE = 0; SPIN = 1
O -1.0241788940222232 -0.5360381208610037 0.05994783208561876
C -1.35702471990329 0.5925741295993163 0.8077367646499255
H -0.7588963179694961 0.6623195471009394 1.7226198423948023
H -2.410533081807013 0.4721405628043022 1.0743729208903872
H -1.2486190842302467 1.5219534039636458 0.24120947555415942
H -0.573593135308538 -0.17136873328915386 -1.4090035312541576
O 1.5212738189832538 -0.10820411284838526 -1.3501846387511522
C 1.5408079498690834 -0.5101214051921077 -0.11243760061054844
H 1.9038710531373741 -1.5270593724172905 0.05819135798123319
H 0.3087981546400288 -0.6366156743833823 0.1362857963790998
H 1.852216281824876 0.2330817291179083 0.6279542616116153
H 0.24587797478620266 0.007338046405230205 -1.8566924809309862
