19
## STRUCTURE-ID: 64568e3bf9c10c37ac3ae5e8 ; CHARGE = -1; SPIN = 1
O -0.5083870580077177 1.9497937559396212 0.0823179752624881
C -1.8389163608744787 0.21611053357764312 -0.7916807132009932
H -2.515089452889567 -0.01680396615240099 -1.6066084196457067
H -0.9633355423190431 -0.4434086238662668 -0.8259672602765563
H -2.3267507494574993 0.07871965446141141 0.16986907534813322
H -0.24531468451122856 2.888186535239568 0.03828531993346546
O 0.9865147219116236 -1.3060649675089298 -0.7472083016197933
C -0.3767697887979016 -2.360783301183358 1.889443811443835
H -0.0016313507078308043 -3.1825705749639654 2.486088427533665
H -0.17971079793204273 -2.5127681037242917 0.8334274379382302
H -1.4272483529357731 -2.1785695292225267 2.076835439314565
H 1.2986543930677759 -1.4461422720305266 -1.6409685269831458
Rh 1.810355828567472 0.4102588830118172 0.242273681381678
I 2.87950248845395 2.369443083003179 1.6688838685632135
I 0.7258056759546326 -0.5807272594579288 2.417723532296366
O 3.0922643229777225 1.1671448574314767 -2.323553779025809
C 2.601561419915353 0.9137693279905722 -1.2951971428716602
O -1.6588961972787173 2.4125569349135523 -1.7692919307124446
C -1.3526085151385558 1.6218550325416374 -0.9046724946808504
