12
## STRUCTURE-ID: 64566886478b2c03da2648b8 ; CHARGE = 0; SPIN = 1
O -0.02515611516831624 0.0652085622742379 0.012377938115606626
C -1.417218963506442 0.2886876525268537 0.060133398189302696
H -1.6352538446971965 1.3364339590676864 0.2941229252393553
H -1.8911562986600858 -0.351509819148558 0.8122386891650647
H -1.8071290202131745 0.04362752654189765 -0.9249640085874765
H 0.8445481433056282 -0.9913131131078368 -1.373567505635525
O 1.3364170400918307 -1.3384203350070352 -2.130986906739132
C 0.617076776250545 0.3305908873853516 1.2400590742484734
H 0.49176551685736697 1.3803023797190566 1.526879439335817
H 1.6728241122553316 0.11398772221834767 1.0952667566890093
H 0.2178272722609674 -0.3059515043248442 2.0370994328713596
H 1.5954553812235546 -0.5716439181451554 -2.6486592328918546
