12
## STRUCTURE-ID: 645688537642891ff615986d ; CHARGE = -1; SPIN = 1
Rh -0.4913344031803714 -0.00568887523249639 -0.24174872221857696
I -0.6633115753070344 2.28667625509876 -1.7322688584100536
I -1.6253125388723126 1.1343070204518964 1.933662881414304
O 0.5181224336210075 -2.1287854930397616 1.589192566502088
C 0.1097238301276218 -1.3268701927397406 0.8807339034807266
O -3.249331729559951 -0.24949076139742282 -1.505983571536205
C -2.225978471672966 -0.20286848110857109 -1.0038312743576412
I 0.5093541764616123 -1.4571717492747882 -2.2925904996065136
C 1.497713679797901 0.38711313337382275 0.5147920913269433
H 2.276554966619082 -0.33157338455995194 0.24060252890895029
H 1.5789620440452743 0.5600269489557189 1.5925524987038895
H 1.7648375879201281 1.3343255794725242 0.02488645579210414
