19
## STRUCTURE-ID: 64568ee7d7eb294c261688ed ; CHARGE = 0; SPIN = 1
H -3.6598678516379546 0.36942410327491043 -1.1331598560903555
I -2.8085523729278843 1.134050980308469 -0.03760871647463763
C -1.7346473804079572 -1.9379504804241 1.6656810255228263
H -2.4036677287034958 -1.4084999951069868 2.3433015600488063
H -2.3490882876728234 -2.4534748810977125 0.9175251234747561
H -1.174530935627171 -2.688976342986954 2.2215439156283185
O 1.5675052550111699 2.2765743424603717 -2.9399448191076663
C 2.0898207928290735 1.7977064874319 -0.36652175170732576
H 3.1239289868257325 1.6372478385443867 -0.6444640065455756
H 1.8909634495225922 1.4544887871518164 0.6429937151784356
H 1.8305557328544684 2.8394964529615354 -0.4965045529906198
H 1.2545406453895918 2.2097141929498707 -3.8435003400177434
Rh -0.5555759410413023 -0.7431683747923292 0.2592110337404145
I -1.1870036716274386 -1.9353205028846157 -2.0500784853299643
I 0.8858671669991429 0.696066675680012 -1.715812904466397
O -0.057204017555626964 -0.20157503746338973 3.156953605832868
C -0.2950568733500293 -0.4209753070169686 2.055260411572031
O 2.319340259793451 -1.5451263386411735 0.04746541423146315
C 1.2626727713261898 -1.0797026003488484 -0.08234037249954494
