8
## STRUCTURE-ID: 645664700db08004c9293425 ; CHARGE = 0; SPIN = 1
H -1.5567152977510708 -0.17178836691809127 -0.7780723625130646
I -3.1444114279676065 -0.20307840569524938 -0.8093784073592246
O 0.2596218588746593 -0.04220742747671934 -0.6786341098937826
C 0.8267432862879244 -0.03500240303670175 0.6185623255501814
H 0.2857406594659505 -0.7760892096783768 1.2040083331848457
H 0.7189542172396475 0.9440710680646752 1.0924145348404366
H 1.882562955457581 -0.3109252094142698 0.5846474472798752
H 0.7275037483929131 0.5950199541547327 -1.2335477610892691
