18
## STRUCTURE-ID: 6456735626b72257924609da ; CHARGE = -1; SPIN = 1
I -2.0234655802329837 -0.04459136098392463 -0.44670942490280646
C -2.240135662545913 -1.9821686069983482 0.4232855461630577
H -2.191336034743056 -1.86793920104615 1.4998638714817842
H -1.4104074215823699 -2.578943997592022 0.0639415842406245
H -3.1921918389187565 -2.387535103914048 0.10762612745535448
O 2.7257821414405314 -1.304082659157041 -0.6314694252934377
C -0.1033836068905416 3.4634800882507433 -1.2358536328280894
H -0.10518101702297698 3.985589812595557 -0.2849412326821311
H -1.0347904047475436 2.921701386652331 -1.379266295457126
H 0.1064423134162854 4.131799829585029 -2.0614735775151267
H 2.983856763974597 -2.0474892733979595 -1.2118589739982224
Rh 0.7476324367408309 0.19188730060725756 0.7054397191786144
I 1.4963009466909694 1.979751974450046 -1.16506375707412
I 0.03775457970216631 2.1206581963683777 2.445248153416547
O 1.157698536199364 -2.0413764854467518 2.6419199490401124
C 0.9728818555948103 -1.1182432985041106 1.9489268865091038
O 0.6974296200699996 -2.1501155808814834 -0.9778741328585875
C 1.3751123728545958 -1.2723830205874973 -0.4417413848755575
