20
## STRUCTURE-ID: 6456b71d88f509683819eb5a ; CHARGE = -1; SPIN = 1
C 0.0289886283578634 2.471403804231306 0.7263149070243379
O 0.659701971046273 2.5093025380008824 1.6967954736948496
I -1.612628898771207 1.1265306195480307 -2.226378923622182
C -0.7569767723960975 -1.9798543967392948 -0.7374996366317329
H -1.8190549614709792 -1.7796082010214256 -0.6678056621134466
H -0.538625092075269 -2.9914936064959794 -0.4163003947976096
H -0.38672342600155074 -1.8001532392704533 -1.7411239074510052
O -0.37288170929842057 -2.420335197658638 1.99393664213431
C -1.6465462123565522 0.01954486736976255 1.4520471741683596
H -2.265214065715006 0.4566360721447951 0.6785799027151315
H -1.4433138428631314 0.7420061320855617 2.2323038642511395
H -2.1032724396428355 -0.8636120504331549 1.8760932473839786
H 0.4019417140959258 -2.8781376581339866 2.3151462116717294
Rh 0.703458056393012 1.406637378820518 -0.9988650378456554
I 2.5953544278697827 -1.9719501603338423 -0.6740868085834785
I 0.18445164000179243 -0.6454339001053815 0.6282460598644646
O 3.534754344443453 1.403391219043765 -0.01985045603047501
C 2.4684013278600734 1.323198315764283 -0.4244112645668753
O 1.2705361499824532 3.264471064831956 -3.305867989464105
C 1.0976491605404213 2.607456398351347 -2.3872734018017865
