12
## STRUCTURE-ID: 64566a7a6b30df6c276f2ca0 ; CHARGE = 0; SPIN = 1
O -0.7749074958726546 -0.4964851412423653 -0.0973332891590789
C -1.1775389507914773 -0.3365376892959873 1.2027218742678756
H -1.6341873184575253 0.6539986061951001 1.3650770477096543
H -0.3497931038962341 -0.457553073513188 1.9213517188923324
H -1.941458307281651 -1.090170384266294 1.4456208608827734
H 0.5052115725046603 -1.043651507844408 -0.4093125162792332
O 1.4492335107088643 -0.842698567430416 -0.7908518453327841
C 0.6160979930910746 0.9656043023290599 -0.7014538565422208
H -0.11762035172575924 1.1086934925930492 -1.4744086878881455
H 1.6290802175399564 1.2140435574637942 -0.9883278660292525
H 0.3565914666866212 1.3777300704787676 0.2586382560888334
H 1.4392907674940614 -1.0529736654670583 -1.731721696610755
