11
## STRUCTURE-ID: 6456885a09daee2aa36f2c94 ; CHARGE = 0; SPIN = 1
Rh -1.2006310282606256 0.7035353136536675 -0.35965471568503987
I -2.3094609704958895 1.5732091135397765 1.7487433833157566
I -2.276447707091373 -1.6308647552423385 -0.6108431875178527
O 1.099817183745733 1.6023195046908025 0.30162293890020786
C 0.6575667787597037 0.5055065571457844 0.35563453408503626
O -0.2595272357757384 0.719404634956814 -3.1914869078490296
C -0.5817599897237941 0.647162226325199 -2.1010850097431777
C 1.132101904517569 -0.780240039716632 0.86599024327633
H 1.158780907051342 -1.5267297145308 0.06678421157926652
H 2.129397750516283 -0.6492285731408561 1.291204756839752
H 0.4501624067568172 -1.1640742676814124 1.6330897527987234
