36
## STRUCTURE-ID: 6456db95c8c26f494d4b6a6c ; CHARGE = -3; SPIN = 1
Rh -2.515923918391976 -0.03518072045173799 -2.0927930770211796
I -4.22400701742025 -0.0858371001331424 -4.0816006001771585
I -3.3358177464459584 -2.341391852918821 -1.093411547064479
O -1.5570603019993237 0.6563409023773845 0.6222322337050739
C -1.6834236691674371 0.2998124226520731 -0.4851067608387786
O -1.987614298262815 2.843505764609636 -2.627686611762202
C -2.1640440520872617 1.7044662390090575 -2.493827832812134
H -3.997401850524575 5.896931909567796 -0.8870751239150083
I -4.14272941519465 4.192149630356813 -0.9065125872096061
O -4.044453398516382 2.0328692054601225 -0.6267251440850241
C -2.305396386368675 4.200049100547505 0.13748613437119336
H -2.3727619803079465 4.884774362200212 0.9717567310180631
H -1.5153903260444104 4.478980052877751 -0.5490500928225499
H -2.1385664625298535 3.1858408270153484 0.47896924301150673
H -4.942162157183101 1.6953604113430594 -0.6252295562390047
O 2.9815002470279808 -3.9247744986912596 2.989396339042678
C -0.17697958530798635 -3.256554214281873 1.1540022649152208
H 0.2452821173673388 -3.922888455990477 1.8958702101721707
H -1.0306201742930554 -3.702504114539594 0.6565778312508406
H -0.46716452421584687 -2.317997688555675 1.624022037172446
H 3.4731515061224725 -4.584626376627976 2.469576760211888
Rh 1.185653211055575 -0.36115387364860096 -1.3422083237511675
I 0.07849878817040577 -1.1389445880546638 -3.6730550279944554
I 1.3096553206190562 -2.7532081631539462 -0.27212699595381745
O 0.9296447545367084 0.30684566841551414 1.4438354300212026
C 1.7029643249730027 0.1644112772271504 0.4934774737239331
O 0.5195266942803579 2.5362073972714185 -1.1859865477502605
C 0.7952696108006851 1.4133127012448448 -1.3958081356323377
O 3.0319526807297272 0.4021082710745125 0.7183004622421565
H 3.1908462401916537 0.6703558136705913 1.6453429727685414
Rh 3.699341435219445 -2.3136274529228413 0.6478378780978541
I 3.8488458090589215 -1.5898567238378851 -1.957418364105736
O 2.543647426328005 -1.7640885770392347 3.106286074312297
C 3.0661093363456144 -2.6651332685813225 2.4599938290159606
O 6.545648443777867 -2.4077647088560874 1.5728569477279444
C 5.453979317656887 -2.398789578635618 1.2078014763540796
