17
## STRUCTURE-ID: 6456b6a57883f861fa230d70 ; CHARGE = -1; SPIN = 1
C -2.483867387408439 -0.22797726842877594 1.0171256337767798
O -3.368841797494928 -0.8481863701371029 0.6513444217210526
Rh 0.23680353750500607 -1.3468716138750827 0.24206046929672873
I -1.2338633844604487 -2.907637281538435 -1.3009725906297007
I -0.8433100028865785 -2.1292401076224765 2.6756168264080413
O 2.503936347569265 0.11401313721638394 1.4818328642594796
C 1.5434446488565323 -0.3803686234191069 1.0600335273855763
O 2.380405196748672 -2.2661006139371467 -1.2481978192345493
C 1.5539053695574363 -1.3591612978567686 -1.2110372048190736
H -1.5334473603530017 2.3867550906155905 -1.4796609040067048
I -0.8780109002470476 0.8975161476846013 -0.9577788754170242
O 1.5905581836789406 -0.37319802542322794 -2.120212013367285
C -0.4794111194733991 2.1062774902625017 0.7936390738194158
H -0.2708533951820441 1.4215858523299172 1.6086846184166255
H -1.373783505097301 2.6826530461361537 1.0000244138242078
H 0.3748131023761721 2.740742067626965 0.5864687186855976
H 2.2815224663111624 -0.5108016296339987 -2.798971160119167
