21
## STRUCTURE-ID: 645678d68f50744ae92a1576 ; CHARGE = -1; SPIN = 1
H -4.068938948811417 -0.1050715166238574 1.0618723748796617
I -2.46411241128686 0.43518460114635177 0.8607044258800483
O -0.46148878172094354 1.0145437331225586 0.2073628746822567
C -2.6936752491748974 -0.2593810198381121 -1.1297040000266807
H -1.7744791421673152 -0.013312682254779872 -1.6435276818791547
H -3.5402065029852876 0.24750089235322786 -1.5742765204564952
H -2.8327972521069675 -1.332895495085012 -1.0954594353986518
H -0.2073136509624875 1.8529532054493796 0.5904553791471623
O 2.2736000525775397 2.233069408003404 0.28669919554613155
C 0.4034458784017517 -1.1919047810469663 2.3697908372143033
H 0.7158530239156203 -0.19234330747953712 2.085760609478386
H 1.2139337749751629 -1.7142544040207075 2.863197291625021
H -0.49200652840742193 -1.1605615467316526 2.978287647194499
H 2.9755303513223432 2.1919480268952327 0.9439517145042673
Rh 2.0801799648678387 0.4893624503398258 -0.8186307547445721
I -0.0523768196511837 -2.2388206996030076 0.5675308491333424
I 3.7945201267642834 -0.7111128790552907 0.7562073680874486
O 2.004522891415448 -1.7926135737383886 -2.7334499248724433
C 2.023092219112472 -0.9422765845233799 -1.9434587974252466
O 0.1672264439679095 1.8287123530944938 -2.6804426753925603
C 0.9354905599543732 1.3612738195961556 -1.9528707771767762
