21
## STRUCTURE-ID: 64567677f3969a4d36670ffd ; CHARGE = -1; SPIN = 1
H -3.9401980052666716 -1.639027682622697 1.778862342094623
I -3.604560630529979 -0.43571033035087897 0.5863217687190262
O -2.0338422283984277 -0.19074546969780207 1.9008264067008913
C -2.4473632760862305 1.1977629960173857 -0.27819276109659885
H -2.6392806262209914 2.1265448482572467 0.2480547153162109
H -2.7113682894834317 1.2885135778302792 -1.3313009052745204
H -1.386379319021238 0.9113634570774961 -0.11357222744051193
H -2.174756388925926 -0.6821808251332704 2.7130459942971994
O 2.804705785241662 -0.0695579534369641 -1.266195773839303
C 2.0788390554953313 -1.6280058669070694 1.5791755671999186
H 2.5667906508746143 -1.5832995594118755 0.61358582714778
H 1.2928574209073012 -2.373794088121153 1.5741253559293071
H 2.7891239419249554 -1.7993600490640442 2.3770497554123002
H 3.5967013530730445 -0.22385702939212584 -1.8172882025044226
Rh 0.1013136334893011 0.5862471906784408 -1.0058756451916477
I 1.1696764827723947 0.297381766581857 1.9118683245027261
I -0.6502677511610374 -1.9017950935923456 -1.110750928265257
O 1.0068178596041055 3.3459422731046073 -1.6967602200549015
C 0.5924679537457094 2.309056539768716 -1.3567318052913258
O 1.8726644733610562 0.24064006075077155 -3.2619795728270415
C 1.7160579046044728 0.22388123766339482 -2.0442680155344775
