18
## STRUCTURE-ID: 64568934b5ac8e1c8573b9d4 ; CHARGE = -1; SPIN = 1
I -1.2595033761888594 -2.3896685249009986 -1.868839704010651
C -1.9589453759884348 -0.6312386236367495 0.9555986003355483
H -2.669500035439861 -1.4585222330388565 0.9219395760278178
H -2.324053796799415 0.1599992647162002 0.29762195857876245
H -1.9283588799555003 -0.24478889500539597 1.9770309692948704
O 0.28814268798757564 2.484474630715265 -2.928804754604782
C 1.150860033364137 2.1151115953133317 -0.3689962300194174
H 1.2827888913697758 2.986616479308808 -0.9923986075368924
H 2.1082661511061307 1.6850290156166856 -0.09485385713557651
H 0.5634406541434598 2.3510130997733176 0.5111598473214166
H -0.06526834937460828 2.273699322029473 -3.792657124909763
Rh -0.05869466631589204 -1.3313595985848323 0.2792192914659016
I 2.5278228751952483 -2.059378249035828 -0.4899836490988147
I 0.08907959130212355 0.6995830337563499 -1.534700629144939
O 1.288419442572883 0.3845877550161862 2.3091260851070765
C 0.7398154151748295 -0.24605163510457156 1.520527137605726
O 0.2973011767658673 -3.8130477107849403 1.9843964907714329
C -0.07161243891946277 -2.9660587261534546 1.314614599952303
