12
## STRUCTURE-ID: 645666826386696307230d7e ; CHARGE = 0; SPIN = 1
O -1.3415442658934775 0.07208167993415653 -2.4066774606713737
C -1.7280168373994078 -0.27788513274339166 -1.0927895918702075
H -2.4572291325608457 0.45138572762909546 -0.7103447018966946
H -0.05489298950309793 0.5772561151344235 -0.018679610475355296
H -2.2292771207931033 -1.244448096903064 -1.1890156113512125
H -0.8286153330576065 0.8891280618062847 -2.3657263352928704
O 3.02698239284507 0.7298240547511475 2.312384027775638
C -0.5472693686674415 -0.38613039828290574 -0.13510493690689968
H 3.2059199614485214 -0.20500628171960286 2.44269947345389
H -0.8917154700621331 -0.7171266644045402 0.8400306384681832
H 0.17666975648020472 -1.102404701053294 -0.5153761003438296
H 3.668988407163286 1.213325635851677 2.838600209110791
