12
## STRUCTURE-ID: 64566873721dd230253ae5eb ; CHARGE = 0; SPIN = 1
O -0.0016448159368995722 -0.29568891521110385 0.005844223776155728
C -1.3983794251340256 -0.17053516970065405 0.16580031388261493
H -1.7611591006849288 0.7637476702243802 -0.2765613096924295
H -1.5925497818182865 -0.16728778551778656 1.235752250543175
H -1.9206440822166495 -1.0126138408202439 -0.3008527342760835
H 1.1002291061297726 0.6993440140186843 1.2388531069987392
O 1.666696092362026 1.1040609182102914 1.9124163720067202
C 0.394027607914177 -0.3193676118290477 -1.3486502376529903
H 0.1089500741368145 0.6085755162302909 -1.856461184382159
H -0.06119934363588096 -1.1668572249015963 -1.87228671873946
H 1.4764819762812476 -0.42273386128640983 -1.3574434041543344
H 1.9891916926026603 0.37935629058317427 2.4535893216899876
