20
## STRUCTURE-ID: 6456b713db70852e527cab7a ; CHARGE = -1; SPIN = 1
C -2.2541585511683864 0.6725515064828415 -1.2307113534261838
O -2.9359416857741363 1.23909972024487 -1.9694057014607382
I -1.747953281191773 1.693883574360542 2.0640834282783844
C 1.788242338400198 0.06490473855084807 1.693484435892606
H 1.9873819293869555 -0.8874745999558405 1.2032500574022744
H 1.143290858218173 -0.1114213455855638 2.5545800326640555
H 2.7255757467911046 0.5094279208465083 2.0272256288217565
O 0.3672885073888799 2.3408468111945697 -2.144713619782585
C -0.5546493234161459 -3.695549259202652 0.07781554418642499
H 0.31032185044611366 -3.4317078284560134 -0.5223405439613658
H -1.3789970469802886 -4.009219688566944 -0.551671611729277
H -0.3141613322391708 -4.444019203742241 0.8236444591353989
H 0.4781017557262657 3.233863327455438 -2.52875267973384
Rh -0.6402357081382168 0.5885390994226097 -0.15894288349956512
I 0.8300216715842843 -0.7134534457663354 -1.9574443350144666
I -1.189511488521167 -1.8977892400877303 1.152829727551516
O -0.9597236490130482 3.364434903882573 -0.6929231244180517
C -0.40470265064036637 2.3505056593199773 -1.0575396226669662
O 1.6358911471715178 2.104043704719347 0.4875697175757226
C 1.1139189119691926 1.0285336448831996 0.7299624441849059
