12
## STRUCTURE-ID: 6456681743933d0a874d303b ; CHARGE = 0; SPIN = 1
O -0.7202936193468641 -0.9864020366415079 -0.24336679788746649
C -1.2260278382722263 0.35352332722871943 -0.4707506904317023
H -2.015176498450495 0.2800045210125647 -1.2159480606872535
H -0.45177017733000874 1.0396360471203947 -0.8134329705090952
H -1.6491573826068808 0.7117881614236 0.46568063636449364
H -0.3733694431382609 -1.353667639327589 -1.0925866247628804
O 1.5698500260397634 -0.767446999343068 0.25772921542615573
C 0.3666844259872222 -1.1097931209615601 0.7772920235384028
H 1.7780980667911621 0.1735212696713233 0.3332688186560342
H 0.3776751731061745 -2.1784140254922706 1.0140554127750534
H 0.03368267736078588 -0.5156244339743153 1.6322201131351086
H 2.309804589859635 4.352874929283697 -0.6441610756168452
