13
## STRUCTURE-ID: 64568c5154c29c0d7e333bd4 ; CHARGE = -1; SPIN = 1
I -1.957199265900018 1.8749466607543237 -0.5900338039322472
C -1.3971110332169563 -1.5519828611082376 0.5182110679935809
H -1.2979937537578632 -0.8964380460686805 1.4180642942663015
H -1.0715628914813147 -2.5591649524682683 0.7802984887541213
H -2.4425143439875185 -1.5584049724805684 0.20629251365164752
O 2.8796562083728396 1.2647592302919022 -2.026325247819226
Rh 0.13737235114322244 0.5553076232621141 0.28326472279537157
I 2.196158003407183 -0.9606659128518471 0.9862640902303534
I 1.0716233506532375 1.5938400101429602 -1.9478558716968724
O -0.39568832968131 -1.5376395717770739 -1.710581591590729
C -0.5539274941806601 -1.0528777035575576 -0.6308631312056772
O 1.847166264959769 2.7825998686710296 1.428912548057258
C 0.9840209336693964 2.045720627189913 1.2843519204961193
