13
## STRUCTURE-ID: 64568b2ca1a1b129ce6a602a ; CHARGE = -1; SPIN = 1
I -2.8983878603612325 -1.0617839246726386 0.796254496744412
C -0.9575714702483518 0.7462291710763833 -1.3287678461362817
H -1.6207663660191334 1.5197928090951942 -0.9461814594823422
H -1.4533565334406913 0.20831981845622052 -2.1484293337589744
H -0.021436432373504892 1.1970927709220556 -1.6740645021646992
O 1.8958742768594208 0.014307014282713455 -0.07028744862122459
H 2.743545556491561 -0.47554316437268557 -0.06713456589876757
Rh -0.4608955401378712 -0.7566568336022766 -0.0005037181717436237
I 0.0555327217006664 -3.1886566758113912 -0.8456925051890364
O 1.8435578393024603 -0.5316049647507082 2.125105750415925
C 1.3255491193413693 0.02143019740353532 1.1643757552457377
O -0.43451145257581225 1.6093493173155466 1.8254173654541899
C -0.01713385853887473 0.697724464658015 1.169908011562794
