12
## STRUCTURE-ID: 6456687c34c7e703e64609e8 ; CHARGE = 0; SPIN = 1
O -1.60341698521325 -1.0515933238108042 0.24234422717500806
C -1.7165281191589754 0.08007972673298862 1.0737663284158714
H -1.3288858053459918 0.9775534988722712 0.5825184837247145
H -1.185860161174778 -0.065539073352981 2.0202454086721016
H -2.776484778701888 0.21966199434106407 1.2817576225950176
H -0.6680770249851147 -1.1466659201824705 -0.0023249433112037723
O 1.2098420725231784 -0.6890286855085797 -0.28929227156160464
C 1.4790932967757338 0.4237630492035571 -1.116759914913124
H 2.3131608878583743 0.2232393112363346 -1.7941103583668014
H 1.6997572350792423 1.3165373326983985 -0.5242938723866347
H 0.5818035300025381 0.6022167061115477 -1.7067595601911103
H 1.9955958523409378 -0.8902246163413227 0.23290885014775994
