12
## STRUCTURE-ID: 6456684786ff426fa8324923 ; CHARGE = 0; SPIN = 1
O -2.011193170685073 0.0027814412327648503 -0.18433787342249197
C -2.5421205990702407 -0.5307158106466322 0.9890833352570693
H -2.2445068427607233 0.946601685452779 -0.21530760940947083
H -2.220057509020713 -0.005459843282943808 1.8973527984235516
H -2.270312889046476 -1.5864408756587454 1.0689520678788267
H -0.7566303455116135 0.0527699221756493 -0.461767077012751
O 2.4777604414473386 0.6305648230824872 0.3528212943429788
C 1.901619660684282 0.21629792588310612 -0.861638377158681
H 0.803265550358359 0.026560724426423283 -0.7423073491570025
H 2.3764143125511095 -0.6859405355715892 -1.2559542834851098
H 2.0327048977815267 1.0331472610013859 -1.5690954908974004
H 2.453056493272105 -0.10016671809535833 0.9821985646395117
