13
## STRUCTURE-ID: 64568cfcd5d6a86d1a64e47d ; CHARGE = -1; SPIN = 1
I -0.2849582948949099 -1.972849190816235 -2.007408646002432
C -1.6508086292480164 0.5646753643633367 -0.02430676820025209
H -1.9333909223759922 1.0805408910609302 0.8930485297930331
H -1.5336105966444162 1.3169664799424425 -0.8147518684995038
H -2.464387331361742 -0.09043516209202009 -0.33487271204751407
O 2.377768987183684 -1.0954739819528003 -0.013886219617635552
H 2.713887357070796 -1.310387700192637 -0.8911659676071774
Rh 0.45411133337338155 -0.18161655794535436 -0.17916947772071667
I 1.4994420257327803 1.600760148120135 -1.9602454570181826
O 1.815597373281291 1.6734071976546427 1.7095851488789726
C 1.1992626830982978 1.0016111491777078 1.0243260434615158
O -1.4378069200102666 -1.5878798341206437 1.6585654254402669
C -0.7551070652048855 -0.9993188031995284 0.940281969139626
