18
## STRUCTURE-ID: 645673739268c32839293428 ; CHARGE = -1; SPIN = 1
I -4.240405884679692 0.8367826646555386 1.0082582225616175
C -2.4952663458931252 -0.28237532049875064 0.5056392702386422
H -1.6302100066952052 0.345908749185379 0.6862108865905436
H -2.5582484987072136 -0.5512662630240179 -0.5412364810330118
H -2.4718022530745367 -1.1668498164758894 1.127949806705597
O 0.34386169356961355 1.3716646816441511 0.7653720614860152
C 1.100721823410948 -1.6790532116102435 1.639383555775046
H 0.7952717014514877 -0.6509845778596467 1.8077406765174937
H 2.169999033178753 -1.7895864261471872 1.7727389455955682
H 0.5440292480628692 -2.369506507364644 2.2587908800318046
H 0.9544294660955298 1.8328444613957098 1.3488871222089882
Rh 1.1356874490187676 0.974405134095034 -1.1011219049634033
I 0.6501201005972126 -2.1165402126903605 -0.4221933284709894
I 3.55599559185757 0.8741712573365297 -0.07939175540022576
O 2.2880810138155163 0.5824013641096428 -3.827181254472453
C 1.8376364476841485 0.6989906904908939 -2.768642603987205
O -1.4856781422718661 1.6954937855952665 -2.344855287457297
C -0.4942224374207881 1.3934995471625928 -1.8363488119268208
