17
## STRUCTURE-ID: 64568a6dbe45bb2c19324920 ; CHARGE = 0; SPIN = 1
C -2.3154253099758035 0.34987244217057545 -0.4317228792843964
H -2.8986408459192226 1.2438828024295592 -0.2188105654830938
H -2.2639207821349303 0.2461867393629203 -1.533798582225636
H -2.835265390048963 -0.5312169936750187 -0.05871234019727893
O -1.2613618543419902 -0.6158411503289438 1.8734093363625928
C 3.4278506717520667 -1.4439426090088932 -0.651479029629126
H 3.1128543921425273 -1.8103685023286429 -1.6224994221865836
H 3.073945331028547 -2.092951095877679 0.14218005647167248
H 4.501792535450127 -1.3005246832547168 -0.6053279703280957
H -1.4303101780143395 -0.5564863029714611 2.8347879369187217
Rh -0.16384321076623215 0.40043091692282917 -0.3917161477893608
I -0.14145478508125897 -2.1745466474604576 -0.811227097080616
I 2.525779809668258 0.515911049677102 -0.35830694533874974
O -1.496836672450631 1.6074563809821771 1.8259367115525034
C -1.2853052650171757 0.559810978934288 1.2630069389360317
O -0.31895494049419454 3.3643625559805415 -0.7094531770735031
C -0.23090350579577948 2.2379641184506953 -0.5462668236211469
