12
## STRUCTURE-ID: 64566b5f89312801876c2b46 ; CHARGE = 0; SPIN = 1
O -1.680531257147104 -0.21181075053276083 -0.6637410153025464
C -1.333873497708009 0.1909649992298655 0.590621411179741
H -0.15159587232324612 0.2357318883238756 0.5570861511265448
H -1.5560072068174966 -0.5434891606812658 1.3744770459296183
H -1.7309376014274491 1.1791331603044553 0.8278507771151252
H -0.8405811691290161 -0.7993594086360337 -0.9235076604553457
O 0.5440662685316496 -1.2219158718125849 -0.8809626019934294
C 1.2764839873786922 0.4306439679465875 0.1991781918738752
H 1.362964579783282 0.9586048304872815 -0.7351473059953245
H 2.026828860327261 -0.32338510549896476 0.3653054486525246
H 1.2178867943351075 1.1125695623813996 1.0459837784555919
H 0.8652961141963347 -1.0076881115118574 -1.757144220586381
