17
## STRUCTURE-ID: 64568e9e40ce8119ed75cc1d ; CHARGE = 0; SPIN = 1
C -1.8707541030884909 1.0522620803145424 0.9679903335568041
H -1.9214378614052596 2.102722436249565 1.2517187289132365
H -1.9408515873246543 0.40230958228259756 1.8410020021001843
H -2.7445376546099274 0.8368472529464442 0.33479004514190264
O -0.464640304460054 -1.3864333579674457 0.35510503524359455
C 2.6253653287151506 -1.7498214989561414 0.06377940305865239
H 3.0900336448556724 -2.64871095557456 -0.32368619313191743
H 1.7027824267109894 -1.969252108282568 0.5958426815930001
H 3.3134953254995203 -1.166473879381792 0.6636637040574637
H -1.0515083822448474 -2.0323045397355335 -0.05268978616855205
Rh -0.47958166073096414 0.39263864117743086 -0.5881456474423472
I -1.9407656481904947 -0.5508558808830983 -2.6550640654734496
I 2.041967088449055 -0.541730333159884 -1.6312851829916175
O 0.6084278353287105 1.3524348807700541 2.015898260309252
C 0.06814303431717135 1.0512619633508908 1.0532618038705162
O -0.5343729528207932 2.8732129847111914 -2.2997584457171607
C -0.501764529000771 1.9818927321382953 -1.5924226769195746
