12
## STRUCTURE-ID: 64566b5f0995a92b830b3f71 ; CHARGE = 0; SPIN = 1
O -1.5394391943944405 0.12607720081179571 0.04787781195245194
C -2.538079963626423 0.42301185725227164 0.6394062129544047
H 1.6720495152622536 -1.6208541310919415 0.698281507302986
H -3.2676012351292445 -0.32852418008040024 0.9750766111344721
H -2.7879171311464273 1.4656807280982767 0.8844802710070803
H -0.5391867942738421 -0.5634858710300201 -2.6535007104336477
O 2.3742168762195393 -0.9599438431321267 0.6854707482188671
C 1.7879405145398521 0.3134060879195498 0.524180760223249
H 1.1827287706607732 0.36578086913157304 -0.384801878925163
H 2.6069327122065737 1.026614282453515 0.45118619206781424
H 1.1617015312659262 0.5757818257028297 1.383009199545497
H -0.11334560158453487 -0.8235448260353039 -3.250666725047998
