12
## STRUCTURE-ID: 64568ec95ac2066a3d19eb60 ; CHARGE = 0; SPIN = 1
C -1.3927297013341837 0.7769908244632268 0.5110625138102178
H -1.1517511906430076 1.8308375498938714 0.6426240981650913
H -2.049034469133661 0.4216340638059788 1.3064946664084371
H -1.9051815829571062 0.6238854276297263 -0.4550337542028101
O 2.211681689520127 -1.2453092478417902 -3.073204844964408
Rh 0.2684296394648169 -0.5377978514045236 -0.012095607344974285
I -1.0050091459520132 -2.6602313829967312 0.7580554850498833
I 1.0426019893675234 -2.0696177719451634 -1.913961182017971
O 2.0666645421178944 1.4214353546255736 -1.4116071205564762
C 1.3568330331062093 0.7597703190905901 -0.8319908498139339
O 0.32641186315107856 0.5114837671906161 2.7775003258277167
C 0.2310833332923575 0.16691894748860844 1.7021562696392083
