12
## STRUCTURE-ID: 64566b82967df61b014efcbe ; CHARGE = 0; SPIN = 1
O -1.4782396543061747 0.021021736911105426 -0.06577195204767007
C -0.2426814123090482 0.1582193090440365 0.5930156141406547
H -1.835203023917537 -0.8596656310895686 0.10728929340458453
H 0.11518389306198042 1.1643233433177365 0.3599364647824629
H -0.37411811829386193 0.07966293228828902 1.682859489841577
H -1.0343316429857985 2.474932195227633 -2.474539029268632
O 2.0605998406775843 -0.6674467391534806 0.6864844221383055
C 0.7901129705436009 -0.8745680197926293 0.1182846076340053
H -1.3476518855699846 1.91557966078633 -2.032920736214503
H 0.4281027906631317 -1.889967304355419 0.34039544679417544
H 0.9238670563433414 -0.7837700365263001 -0.96243884096529
H 1.9943591860927545 -0.7383214466577482 1.6474052197603397
