12
## STRUCTURE-ID: 64566b3543b8602156530d6b ; CHARGE = 0; SPIN = 1
O -3.574801584294642 0.669136525347326 0.7095143933612656
C -2.72793604726035 0.8789572342345771 1.5309962949608997
H -0.4707817861670117 -0.9513868267253243 0.22690398920628477
H -2.486948997000143 0.15718374957482226 2.3248963737448713
H -2.137832468885383 1.8067760259958716 1.5438232414299244
H 1.1050270292965398 -0.4928523258884452 -0.4269612775695081
O 2.983055791268776 -0.9501879438363953 -1.9897911210106782
C 0.25718832216352183 -0.1537240556066204 0.1540639044462422
H 3.7348866040003306 -0.3566586440324049 -2.0651589708601965
H -0.19479953433712666 0.6993118532652352 -0.3351755332735736
H 0.5891491034712758 0.12727557473826012 1.1446809667563729
H 2.9237935677442306 -1.4338311670668955 -2.817792261191904
