13
## STRUCTURE-ID: 64566bea2fc67114ee6dc163 ; CHARGE = -1; SPIN = 1
O -2.5384046196952865 -0.28934459723823286 -0.8683103217194286
C -1.62182805517626 -0.05261130326131311 -0.03794280322567962
H -1.7815644137038151 -0.0654868758191706 1.0345207196008193
H -1.336974318705627 2.0355451657659738 0.13113247215085572
H -0.5993140853925144 0.10447105735373144 -0.41613477007687877
H -3.436234848399768 -0.46436460074579167 -0.49977743353548865
Rh 1.3170341878727458 -0.3904463039558439 0.33837385801399644
I 0.8011547147514239 0.216862641476893 2.8248705215658485
I -0.0862941375799533 -2.616904648007712 0.4142285851076183
O 2.514270057638049 -1.1567711404503704 -2.2864755999450783
C 2.014852171691409 -0.8661652390026273 -1.2933439636145643
O 2.605345728475854 2.298566927340416 0.3467600537023306
C 2.1479576182237627 1.2466489165440693 0.3120986819756087
