21
## STRUCTURE-ID: 645674ba2e00396b857c7c51 ; CHARGE = -1; SPIN = 1
H -0.9821130664395061 0.30978152093892836 -1.5803412291200565
I -0.7793104379550403 -0.5672950931574416 -0.18628090087574073
O 0.07433603557670225 -1.9641870737837184 1.17724219046991
C -3.1501796073272885 1.8575132260862526 -0.05396543272537749
H -2.854046873725238 0.8182453876158978 -0.26474968575324553
H -4.024635739158467 2.094419563608226 -0.652390802385531
H -3.4115327331408776 1.9210134112367732 0.9970015440176418
H -0.39728761027009185 -1.9037989773817638 2.006793427145141
O 0.6694007962099293 -1.3663596949628465 -1.2419759493061087
C -2.005686651177849 2.8043616575264827 -0.3715578546046372
H -1.1040693834394826 2.5082446330289128 0.16002540375480126
H -1.7867654896975291 2.805684568889757 -1.434337283636723
H -2.259540346252936 3.817944397270517 -0.07487734312530082
H 0.3844436939256745 -2.268375374584976 -1.3886830241192927
Rh 2.9494972194431393 -1.1955160496959236 0.07073393171486425
I 2.1452317504770977 1.2631269438330004 0.4255968119444174
I 3.998592331837912 -0.7431358463150838 -2.3144613220723884
O 2.3490956517863006 -1.796154106671601 2.9271835518221594
C 2.4924446682692385 -1.5463385812777286 1.8083173298496746
O 4.054973201425883 -3.964924390063104 -0.003694342005631436
C 3.6371525896322945 -2.8842501221404993 -0.005579020988627517
