13
## STRUCTURE-ID: 645673d32d770607fa4dd52a ; CHARGE = -1; SPIN = 1
I -1.3982377128254433 -2.3217534293790045 0.598385713619456
C -1.1308536331689907 0.9862802976405995 -0.3761918802207867
H -2.1121529232474097 0.5645583774447755 -0.6185203000171031
H -0.9154568837072518 1.7484200280374005 -1.1329341466568241
H -1.242912371828363 1.520033887425699 0.5777271533984619
O -0.5421817836162505 1.701132186048694 2.71609066725851
Rh 0.41631290403468363 -0.4514931981347329 -0.06772296385165882
I 2.2706768883508923 1.4054749008848604 -0.657324639153808
I 0.6262970688485202 0.2551619507928882 2.571424989542431
O 2.5995085644882066 -2.420302459420335 0.8022901824447097
C 1.8124873799231498 -1.7134293668966898 0.38772554447507124
O -0.3611923434226302 -0.6524436264685477 -2.9434854185442014
C -0.02229515382907583 -0.6216395479758069 -1.8574649022942162
