12
## STRUCTURE-ID: 645664d5705d990e120b39db ; CHARGE = 0; SPIN = 1
O -2.475163163299678 -1.2613862933800928 -0.6382705819174521
C 0.4502901200225212 1.3341184323656723 0.7547901609222462
H 1.086202725651913 1.0109656411270622 1.5867190667884608
H 1.0262796412681763 2.002997538082153 0.10585873896094687
H -0.4195721111139886 1.8610735748291922 1.139960103025181
H -2.641891011520288 -1.78535766878881 0.14946000190447856
O -0.03261759817384206 0.2236267804718811 0.03166739701501699
C 1.0001436077410244 -0.5338373077064311 -0.5614992629050874
H 1.6680922421316742 -0.9487505349440645 0.20172488852576617
H 1.5873082265971266 0.0802674670450454 -1.2529849473662582
H 0.5213528159405314 -1.3417295698623624 -1.110189908870535
H -1.7704254952451803 -0.6419880592392729 -0.4072356560827456
