18
## STRUCTURE-ID: 64566ec66b24b64506750f04 ; CHARGE = -1; SPIN = 1
I -2.4274912493103216 0.19937084283258477 0.2535642426991867
C -1.8062339244237668 -1.3544406662663726 -0.8867557975893466
H 1.0525894399734188 -1.6002057723879566 -0.9230865642315349
H -1.4909719552076635 -1.154126888993469 -1.8920110644080372
H -1.6102917310373994 -2.293644549238131 -0.40555574287325313
O 0.4970762231363339 1.168072944674265 -0.7875929418601914
C 1.6103774452994817 -2.4446775688151217 -1.308042164883776
H 0.9360028435610502 -3.274365396388455 -1.46584883217746
H 2.3635296272154376 -2.724294576691867 -0.583016163226923
H 2.0843579688986402 -2.1754368681486826 -2.2422983475162117
H 1.2277267995011216 1.3332064593749178 -1.4192731796454259
Rh -0.6565397087815383 1.5433820382247945 1.8065045638530044
I -2.163314004765418 1.746423816041957 4.051921590915072
I 0.647329956345222 -0.6046620150664386 2.575154064983148
O 1.7001633269813337 2.4128713635123917 0.6237634916161316
C 0.7040085770237345 1.7414786077017135 0.3980237268741717
O -1.4522088609530752 4.280891363188358 0.9383548625817424
C -1.216110773456528 3.200156866445433 1.2661942548898082
