15
## STRUCTURE-ID: 6456885b999ca475dd5a8520 ; CHARGE = -1; SPIN = 1
Rh -1.358307941928911 -0.4418833944591476 -0.770376305432153
I -1.8790790132899153 0.4896846600056638 -3.1882221024655424
I -0.8933254090292174 -3.0390368648115493 -0.6987828045212872
O -0.4933704565014407 0.49828890959621686 1.3770649529002157
C -1.219934313532005 1.2271685004132553 0.6497846452772563
O -3.680430237039501 0.9913612950822638 0.3074996731230126
C -2.4952885041523776 0.7739499974491539 0.13647979126114437
H 2.9941760088679215 0.19427909932551157 -1.1601639462953393
I 1.3330236907109405 -0.00796818012422951 -0.9244293613185579
O -0.8051897394066043 2.4628002372783975 0.2820512298093362
C 2.028393124061712 -1.2978196137768445 0.6674559682825958
H 2.892984354300521 -0.824242817839012 1.1186103065714408
H 2.258681837484252 -2.2656212145667283 0.23394502775173964
H 1.2110253663271853 -1.3787206592113135 1.3754887566228533
H 0.10664123312744694 2.6177600456383834 0.5935941684333594
