21
## STRUCTURE-ID: 6456783775c8bf4ca9750f01 ; CHARGE = -1; SPIN = 1
H -3.8920062400582656 -0.1879812936507048 -1.3502213044481415
I -2.9935238692076074 -0.7335328006339162 -0.02928170766853905
O -1.654741889473187 -1.2340602282783268 1.6994312583058087
C -1.5004535283026357 0.6401883925042924 -0.6457703877073538
H -1.790226002796967 1.6368088996158878 -0.33351289510247123
H -1.398142881387516 0.5549986480562081 -1.7194061680320274
H -0.5650816819284917 0.29724173556225963 -0.12453632410862046
H -2.0480964233990604 -0.9392983129573006 2.5262329022133985
O -0.5341954841240386 -2.2643396844141592 -0.901982652916936
C 1.7396913325483132 2.453306180111569 -0.6907822523167924
H 1.8025232137564933 3.1300158983079234 0.15165863574284666
H 1.6876566430833162 1.4235558801110972 -0.3420266405172639
H 0.892082050817958 2.6916791008813497 -1.3192954752320714
H -0.6631470472448013 -3.1135933432832936 -1.3690540136050247
Rh 0.43442782099735927 -0.7664360152970032 1.2574303614769309
I 0.3344502284689185 1.3571003538419706 2.8447228517125884
I 3.5107038501006325 2.6678554623273003 -1.8638269746802743
O 0.7687551917170973 -3.5289568621133998 0.3791901142673111
C 0.303556791202352 -2.406444220194911 0.18020993052969225
O 3.3576941619843095 -0.8973524709322321 0.7341864056568307
C 2.2080737632458347 -0.7807553195646267 0.9166343364301169
