12
## STRUCTURE-ID: 64566a5836b45d7d0f2648b0 ; CHARGE = 0; SPIN = 1
O -1.5354779326204944 -1.1551603345518642 -0.07609265823872467
C -1.097677300839684 -0.38396512051992987 0.9083960813823208
H -0.21178571079078373 -0.7607061398727961 1.3933973869406195
H -1.8441790729515164 0.025097167545626735 1.586033149586063
H -1.0333848122904743 1.2098698925517826 0.47702030952449037
H -2.39481806317899 -0.8674797557892477 -0.42647500721823484
O 0.6087328837693207 0.5197653184055637 -0.229805356371697
C 1.760092688149976 0.025474977898764836 -0.7842007755292213
H 1.7025043095898187 -1.0738676243752185 -0.8528502606762213
H 2.664002136283975 0.2785669942708083 -0.196716749425882
H 1.9098631693877504 0.39805942454028254 -1.812631849998073
H -0.5278722945088612 1.7843451998961997 0.013925730024457014
