12
## STRUCTURE-ID: 64566a12bb38fd705528a810 ; CHARGE = 0; SPIN = 1
O -0.7926298170131219 1.1531682105174275 -1.2160242425938808
C -1.2766210319330553 -0.4089320793777583 -0.07839384953255432
H -2.2453239697051566 0.047176385549801254 -0.23246652589512437
H -0.9964806022939185 -0.41706481513890803 0.9610893701695177
H -1.1289731998528347 -1.3381401171525742 -0.5989033395832366
H -0.9955552172281734 0.8550063389171508 -2.1101959003300736
O 0.8149709832891094 -0.3100163871206171 -0.30956090261394986
C 1.4689835341984534 -0.12260533474568236 0.8799031197508428
H 1.2465002876363145 -0.9320373834813005 1.5950937121476187
H 1.2156609609883726 0.8390426336999568 1.3567174810912477
H 2.5554896039714783 -0.1316397874462306 0.7068768514920035
H 0.13397846794254237 0.7660423357787319 -0.9541357741024094
