18
## STRUCTURE-ID: 64566e1ac4ca583d826dc154 ; CHARGE = -1; SPIN = 1
I -2.333682455533091 -0.9970780728027703 0.17403295454054865
C -3.179801514430152 -0.870070985928646 2.177741085716339
H -4.208656536274023 -0.5515705119511791 2.067763876562776
H -2.5928773271033374 -0.14416568613942476 2.7308358822588312
H -3.108967527245381 -1.8559992581216354 2.6195184179927273
O 1.2718851628830161 3.5219197250608056 -2.120221852861487
C 1.4112761730381993 0.8245892753701594 -2.58974603651239
H 1.366000608006521 1.6534959561597071 -3.278383831740465
H 0.6864243893918401 0.059762627470883414 -2.8499295187171607
H 2.4130079994541873 0.4084628509393186 -2.5660668731681153
H 1.126830867003039 4.333694360275912 -1.6345853923088685
Rh 0.7093899363626532 -0.6076926441483312 0.7704154271893993
I 0.1298561775413455 1.2355596424971478 2.535564321571135
I 0.946287302743185 1.59059903915453 -0.6797644296217182
O 2.034008502186899 -2.123460794723156 -1.4454974062635069
C 1.5007648495087909 -1.559904124704238 -0.5879539533494078
O 1.007136743778615 -2.9038111819969834 2.688272344195277
C 0.8211166486876567 -2.014330216412094 1.9880049845161059
