19
## STRUCTURE-ID: 64567abddf916173ae530d60 ; CHARGE = 0; SPIN = 1
H -2.3702807406306925 0.996202471136864 1.6617462168488197
I -1.0526239426087598 1.4689980365104216 0.7719285716837687
C -1.8312737401186587 0.4099505084835863 -0.8879353256703431
H -1.0692561705215604 -0.3115053701155849 -1.2048377496623122
H -2.7314455977011116 -0.09487314936524233 -0.5599817189571556
H -2.026628874754009 1.128006902211093 -1.675718657784984
O 0.5707012668000506 2.0506675859149675 -0.7833055122656521
C -0.11012073634288083 -1.2414348117478666 3.382874918812519
H -0.18722711007040552 -0.16745775158524454 3.255280341735703
H 0.9279972498241749 -1.5460888005355322 3.416799469485268
H -0.6504181840303787 -1.5798079681813924 4.256850726806964
H 1.1492060840197063 2.6846984707779846 -0.34566345206980204
Rh 1.4761300205286805 0.30083493997383604 -1.5235842061714704
I -1.002480353668926 -2.169199857073081 1.6674208620721744
I 2.608052955491414 -0.07126822894516183 0.7593969149684048
O 2.73428908396122 -2.1970429834917087 -2.5429551908160533
C 2.2306079615823933 -1.2422081512484489 -2.15264717958274
O 0.5077261782585943 0.9027076625505911 -4.287609392167114
C 0.8270446499811479 0.6788204947299259 -3.2080596372659986
