14
## STRUCTURE-ID: 64567b1f9140f403fb068a13 ; CHARGE = 0; SPIN = 1
H -3.4564241860889875 1.9335680395318173 -0.7327430659725852
I -3.6321199438954412 0.6728724932286428 0.21574465290387937
C -1.2018655766878592 0.2717181761747771 0.18184310508640175
H -1.2136570729982454 -0.5829989464202421 0.8469045286049002
H -1.150679465312691 0.09528787440056888 -0.8871306313777798
H -0.9366152679243884 1.2430168018474181 0.5838216114423896
O 1.0132079683417443 -1.018465944192949 -1.856922407809942
Rh 1.3709391605102805 -0.03762264653737281 -0.11449884104693465
I 1.450506915236932 2.094662276079833 -1.578400946666601
I 0.08810845811062261 -2.744839810400559 -2.1286823770775123
O 1.7826222595561956 -2.707833192358183 1.1562602610074186
C 1.5556284939900094 -1.665731113321728 0.7475152006829462
O 2.397205042114401 1.5167809660358398 2.215612296988646
C 1.9331432150474168 0.9295850259321287 1.35067661323475
