16
## STRUCTURE-ID: 645678e7f819d278fb224134 ; CHARGE = -1; SPIN = 1
H -1.4230288071180925 2.2384498911372686 -0.8534304252991577
I -0.9559035755231615 1.1214257079353827 0.34311216964752406
O -0.6104303364748028 -0.5956729335594896 1.6378255652750042
C -2.2181899930099127 -0.18830876247628403 -0.7937022708958326
H -2.1120828268129475 -1.181141999999275 -0.3768912018609364
H -1.8751915885100385 -0.15955558911211956 -1.8225831798112382
H -3.2352690876523535 0.17358692987097973 -0.7061795105716114
H -1.1714617493305206 -0.6330996263662519 2.4119585880555596
O 2.5612398339509945 1.6922006533776723 0.2270680777859567
Rh 1.6816196519942064 -0.16738923218592094 -0.22373678406899336
I 1.246359578978923 0.45589193962091595 -2.7052361854677303
I 1.7752325667667235 3.3946904425150635 -0.2621922342356481
O 2.427378881717239 -0.7586830955500037 2.60983651247786
C 2.154844712890167 -0.5699153539908218 1.5075261649295078
O 0.6689802812078636 -2.9486238050590776 -0.530085359141005
C 1.085902456925991 -1.8738551661583513 -0.4632899268193588
