18
## STRUCTURE-ID: 64566ec120b3154b815fdad4 ; CHARGE = -1; SPIN = 1
I -4.658565377421359 -0.47661544149668245 -0.06600698125544273
C -3.0695588547715995 0.9859814033493212 -0.2436132861658621
H -3.55134533632553 1.8892244217400762 -0.6050974734898001
H -2.391719354909737 0.5916283864187983 -0.9945916403514959
H -3.0425122837594927 1.555864099538252 1.8380300431143
O 0.8932146617573284 1.8763670535993742 5.1250462905667
C -2.360017306982004 1.2044040421074973 1.0678131140381057
H 0.3633067653211379 1.115035405494332 4.87563448199676
H -1.8809839081507562 0.2860431917143815 1.3987803578476685
H -1.5809463256004617 1.9486300202912532 0.9146179304715054
H 1.1940276116786972 2.2822193721986235 4.308049199981286
Rh 2.7445340837047367 -1.492704403544711 -2.341013330862325
I 3.893994012612693 0.8397880865594938 -2.2392227575212353
I 0.6286452842439832 -0.7130368948726726 -1.0714057520257139
O 1.4902639546048204 -4.19780939432046 -2.44636978290198
C 1.9771032293833906 -3.154276019592387 -2.411524897970395
O 5.136750492005212 -2.453323474560165 -3.8464003564028446
C 4.213808652608966 -2.087419854624308 -3.262725159069204
