13
## STRUCTURE-ID: 64568876a3165e026d4d302d ; CHARGE = 0; SPIN = 1
I -1.2539147450113466 -0.282128271089923 2.629996827774848
C -0.9757395674167731 -0.02860873854822788 -1.227937941457234
H -0.935957321472056 0.8225149880334454 -1.907621501763234
H -1.870530242894439 0.09670614381524516 -0.6028115332425982
H -1.0883305140189488 -0.9522500934540995 -1.793893820922544
H -0.7411984286680141 3.0573470916475447 1.6359574756237156
Rh 0.42388791262770414 -0.0523100004550051 0.5014753894560449
I 0.398351020438698 2.7425987849897537 0.5736679889577851
I 2.7823437103596915 -0.21626904739653027 1.9271957925842957
O 0.31293330917166023 -2.9923892140207378 0.9889272692345533
C 0.3220143537325512 -1.8734804383361559 0.7898049705716487
O 1.5795862567045913 -0.20862827230772554 -2.2608840212780565
C 1.0465542564466632 -0.1131029328775918 -1.2538768955392219
