12
## STRUCTURE-ID: 645668a0811ac655785eb02b ; CHARGE = 0; SPIN = 1
O -0.07883270682567374 0.28863576619998615 0.09855373025799266
C -1.3355989787379503 -0.26951196448561443 0.4169445889309667
H -1.7578984796009363 0.20592833393560273 1.3087586447044368
H -1.2518886152098065 -1.3476546174938535 0.5926620027390987
H -1.9846573551575724 -0.08791307538303526 -0.4364830487104748
H 0.5537968513020686 0.007804887551732643 -1.697387816446288
O 0.8543176422780084 -0.044299896104526164 -2.617048201614933
C 0.8691645975492125 0.1276846920956039 1.1317991033319772
H 1.7908910433900675 0.5896414858615049 0.7859806788246738
H 1.0449604298138204 -0.9333974194707955 1.3403016084789496
H 0.531706571644198 0.6205301201301219 2.049934463123644
H 0.7640389995545691 0.8425516871632737 -2.9740157536200487
