12
## STRUCTURE-ID: 64566ac2aefdda385a1f8bde ; CHARGE = 0; SPIN = 1
O -5.614641100493581 0.7369454769487493 -1.4753162404421538
C 0.2679013297049982 -0.26217395680427413 0.4998392593006633
H -5.887019047236913 1.0633825051694301 -0.6137808729566947
H 0.588156166976722 0.24785836894437202 1.3936950764924219
H -0.12458427986326218 -1.256667723511612 0.6353066903667881
H -5.005020051257078 1.3835998423025173 -1.840306624814224
O 5.261740442029661 -1.1326604100769713 1.5497898497480405
C 0.34983458977730025 0.29902420280516473 -0.6886634444063019
H 0.028273172974843497 -0.2088967307597776 -1.5829686257259572
H 4.580221944997906 -1.2699195459143484 2.212969449785131
H 0.7412037925659883 1.2939738833899295 -0.8244164179188361
H 4.813933039823426 -0.8944659124931847 0.7338519005711295
