12
## STRUCTURE-ID: 6456695d71062376231f8bdb ; CHARGE = 0; SPIN = 1
O -0.21033099677051348 -0.595052485477351 -0.040534021782997094
C 0.672866618827987 -1.5691262097560896 -0.5626231025687616
H -4.132891131981494 2.6222690245517977 0.5251382627878939
H 1.7118144482342972 -1.441520961268842 -0.2888330769038323
H 0.2949504392322334 -2.581764693251448 -0.536669588086445
H 0.3014488639861214 0.5057266923634818 0.8595046148207401
O 0.6810821034088881 1.2665104862139451 1.472895091724116
C 0.03252294439202601 -0.5829971935656291 -1.4308471897492356
H 0.08094582345546832 2.038561411543149 1.4414406443487164
H -0.8114865137879618 -0.8704255836825862 -2.0423414180770068
H 0.6010561399239129 0.2646554055573894 -1.7900259266088017
H 0.7780212610790185 0.9431641067721904 2.392895710095635
