12
## STRUCTURE-ID: 645664ab508d425c3d7ffa80 ; CHARGE = 0; SPIN = 1
O -0.6419454854234049 0.6657432881393573 0.0406958776270472
C -1.5543416821732516 -0.008735829829246974 -0.7278792469888771
H -2.5518300519377894 0.43319901911594455 -0.5857913993326611
H -1.623052436544974 -1.0774832698404742 -0.4648482759352473
H -1.3138109803702975 0.06831873027309962 -1.8012930697463032
H -0.10151768796766483 0.07524260131206185 1.2205127956851303
O 0.7473027982419236 -0.3283662570565232 1.6618133589470345
C 1.3248366373902511 -0.04096378677874426 -0.22377777513510888
H 2.177030557989773 -0.571721845419803 0.17897158001095403
H 1.4994013697354378 0.99976561665904 -0.4301527503055247
H 0.845898410321444 -0.5906538238430347 -1.0159395228246415
H 1.1920285507385648 0.37565555726831873 2.1476884279981903
