12
## STRUCTURE-ID: 645667dfa0d6cc26ea6aac60 ; CHARGE = 0; SPIN = 1
O -1.2199046586610958 0.46643400749450387 -1.3079743650946212
C -1.1969301668328538 -0.319323076290093 0.5231049421046169
H -0.6176720840753893 0.14486054475967342 1.303006094335354
H -1.1326370096999516 -1.391905139322405 0.4828339844866511
H -2.202366956772429 0.07700973427719224 0.4767918092806731
H -1.6539694311352284 -0.21011268931247531 -1.8402995536202236
O 0.7134674361148108 -0.4774076356354032 -0.3501880709166293
C 1.6673946577349879 0.23284583146280502 0.33096035197958956
H 1.7452782102623945 -0.09837942168103204 1.3799163079722647
H 1.4730105395312323 1.3182870256716692 0.3247698341862651
H 2.6501485217235823 0.06817275445801335 -0.13535211333629008
H -0.2258190581900495 0.18951806411755298 -1.1875692213776536
