12
## STRUCTURE-ID: 645667015b2c167f08374190 ; CHARGE = 0; SPIN = 1
O -0.6914964014056938 -0.6188437045540162 0.02582173419763237
C -1.6057351526187829 0.2623416190121115 0.5421148097940156
H -1.1843229064349903 0.8876805726912512 1.3465800305966877
H -2.4548881129380726 -0.2954096476972674 0.9641972350343868
H -2.0095554710161587 0.9285941546034263 -0.23830485069910878
H 0.5442404132947863 -0.8428074912054594 0.6929005381457202
O 1.5732800125567281 -0.6963793572206758 0.6665390001292081
C 0.9318724563653189 0.34521296791737227 -0.9075804548199047
H 0.29124316998404987 1.1987285143654454 -0.7649777245875863
H 0.651847649063569 -0.3066134612145903 -1.715581258181343
H 1.9784334489834152 0.6177795174561732 -0.8865347293285242
H 1.975080894165824 -1.4802836841537723 0.2748256697188381
