12
## STRUCTURE-ID: 645664ab508d425c3d7ffa88 ; CHARGE = 0; SPIN = 1
O -1.6411446403010146 0.7341200576450579 0.4974415945797428
C -1.944613172124216 0.006401214625267693 -0.6689180457417548
H -2.939099870134555 0.31603215313854294 -0.9885029441726784
H -1.9523765032143052 -1.071666221791306 -0.477551833826921
H -1.2320903517457202 0.22191103681653723 -1.4727993505060857
H -0.7642893723448748 0.4465578717966855 0.8117294490099466
O 0.9930487791841779 -0.13908755676646048 1.162796225483791
C 1.850322412501348 -0.18729027313090982 0.0393303070979447
H 2.776178261014722 -0.7192525535509147 0.27138159896656927
H 2.086796222775923 0.8172565438728714 -0.3231045546565823
H 1.3176217207150265 -0.7308016182641301 -0.7391073097903244
H 1.4496465136734924 0.3058193456087588 1.8873048635563432
