18
## STRUCTURE-ID: 64567148062fff3819068a1b ; CHARGE = -1; SPIN = 1
I -3.2346150739962205 2.089327694214822 -0.9466600466457538
C -2.5988859252232914 0.33225935630420994 0.07229520503226618
H -1.632870544067662 0.5332663800024436 0.521290462343576
H -2.5293068230384907 -0.468374366351072 -0.6529416866780441
H -3.326918538083076 0.09907854080166141 0.8380145290747947
O 0.4369964806999853 0.8285909731269714 1.299896398419594
C 0.7728547226974565 1.5056746502643168 -1.8582907336277863
H 1.790701734481051 1.7606803899792423 -2.1258414604164124
H 0.587388165058821 1.709072647193153 -0.8078394720849992
H 0.051007704969193546 2.0024497963439343 -2.493513551872214
H 1.0472257645816612 1.4694207997940973 1.6785239747505365
Rh 1.3127237374716094 -1.022381716038629 0.9661769088944977
I 3.650533926583693 0.12071235010799501 0.6061250220105631
I 0.5435626903487022 -0.6208772046717039 -2.11719478157941
O -1.2530816886966627 -2.1887758641023343 1.9606705658120072
C -0.2653590029248967 -1.7543456862828641 1.549975016311301
O 2.567649651796697 -3.7214604121207158 0.7298870547237816
C 2.0803930173415326 -2.674318328565318 0.7794265955313271
