21
## STRUCTURE-ID: 6456761b6a67df2720224148 ; CHARGE = -1; SPIN = 1
H -1.3326637450887246 1.581461803579547 -0.5298156115038772
I -1.5227814672505482 1.5613657993693533 1.1276758781164509
O -1.6275072560568635 -0.3924752701600678 0.3003120257956213
C -1.7728753792490826 0.4515013977151942 3.015820298697427
H -1.7711990119028644 1.2145050348315996 3.7844305152755022
H -0.9286304882058816 -0.2174096360205436 3.132520570812107
H -2.712583476308119 -0.08479536218216513 3.004798618978715
H -1.8852834270869292 -1.0639535896244192 0.932952491165704
O 2.538472899956759 -0.9066369651902626 -1.8562735437773963
C 2.0827125923195444 1.702527316121401 -0.004430151540758537
H 2.3669060248616414 1.3861145807476218 -1.0021066246402224
H 2.905603956273628 2.190695066097172 0.5020510664043911
H 1.1991709126389762 2.3321106869605086 -0.024953584942547687
H 3.1152333854448195 -1.667429746990142 -1.7407075272525345
Rh 0.5298406176172517 -1.382560412277493 -1.642177018923219
I 1.6062715341881606 -0.07381827242772322 1.0818456208381468
I 1.0799194114225992 -3.8224056753498954 -0.8121705062591871
O -2.341012810898076 -2.147215577477361 -1.8829088578713236
C -1.2446800659813344 -1.8295625873008121 -1.6854004252413497
O -0.35348186317712055 1.0293419289561445 -3.156734815024456
C 0.06856765648214852 0.1386394806223459 -2.544728419107176
