18
## STRUCTURE-ID: 64567290fd34191f2c2cdf80 ; CHARGE = -1; SPIN = 1
I -2.3496929846072905 -2.8707713895181284 -0.9889169946336309
C -2.833290639359194 -0.31165618874553863 -0.026005997302409777
H -3.493694275854825 -0.920296570320815 0.5653295295026999
H -3.2877706969591376 0.042600112655492114 -0.9396975473653544
H -2.391463871998343 0.4567229811850661 0.6045900692162566
O -0.1531113174864578 0.992467039388237 1.2487381798905968
C 3.0529530200343826 0.732816403844378 1.3289032263954181
H 2.0174200918725265 0.7850699627120917 1.65532524833778
H 3.6180250577321496 1.5875019216666553 1.676452895249219
H 3.509974095617659 -0.19943003598011555 1.6351806893733878
H -0.3061493642186527 1.941875987360907 1.1921999677751849
Rh -0.34270551791555837 0.0689450067931698 -0.6050337302601878
I 3.038674311098299 0.7840530574048211 -0.8208083473925859
I -1.0084062731957204 2.343482792321362 -1.7834358287394336
O -0.1346433315978372 -1.0558487334298834 -3.3715224645626445
C -0.27565299079400657 -0.6744595192426142 -2.2980427787896955
O 0.9385531365184437 -2.2849819943200385 0.7247228335872861
C 0.4009815511135123 -1.418090833775064 0.2020210497181144
