12
## STRUCTURE-ID: 64566973f0b5bf1ca02648be ; CHARGE = 0; SPIN = 1
O -0.5697983732207922 0.07044287353570976 -0.19823354909047855
C -0.9147616283764992 -0.8980522699407625 0.8151118002087262
H -1.3496793481467815 -0.36908275898523313 1.661109093196772
H -0.03495388531958819 -1.4634918401030517 1.1295510678850849
H -1.6469494553187007 -1.5802647649297505 0.3839284582639026
H 0.11534790612996397 0.7337919670565938 0.1706065005102884
O 1.254768357250173 1.7887133200872214 0.49432218680383017
C 0.09555574017261712 -0.3998907509371715 -1.4748938596012795
H 0.890454075951288 -1.1229463226029142 -1.158877537597984
H 1.8987755629706131 1.597316421538932 -0.19667105333017346
H -0.6743668326842621 -1.0411451845181836 -1.9668640060954241
H 0.9356078805919575 2.684609309798619 0.3409108988467462
