12
## STRUCTURE-ID: 645666f7f327b4480d0876fe ; CHARGE = 0; SPIN = 1
O -1.440365846344827 0.6649843628247089 -0.20621055684356973
C -1.7822309446533984 0.7708114087139695 0.9432002525652596
H -2.8183746274452544 0.9843704455534681 1.2207085408940703
H -1.0775277826696361 0.6593132614184616 1.7768338341350196
H -2.6735545635040543 -3.7090958155999467 0.6593486713220028
H -0.04561015764684402 0.44274362403048395 -0.9511756534962643
O 0.8896086414416117 0.2715113550706146 -1.3377031696662358
C 1.8363860460553991 0.12654920732002195 -0.24944313876065016
H 1.5669450749061526 -0.6943167006649527 0.4133596760545483
H 1.8437559761032882 1.0654927179335099 0.2988273391234311
H 2.8218085111040656 -0.04543979889038358 -0.6755031945750993
H 0.8791596726535195 -0.5369240677098942 -1.8922426007524327
