19
## STRUCTURE-ID: 64567a0fb0357444f3630f10 ; CHARGE = 0; SPIN = 1
H -2.9760594074254314 1.6923360614590657 -2.655358967793294
I -1.9060741028602115 2.484106627493274 -1.7750918748688338
C -2.3632993008317618 0.38449185487235343 -0.14050133207672852
H -1.8414382874817807 0.43011662965117686 0.8038667538910632
H -3.3706558384360528 0.7632665525050996 -0.07406730630091617
H -2.264381798651534 -0.5337583698670909 -0.7005903078269518
O 0.6926236256127075 -3.4899024755138655 1.3773529276712038
C 1.45975000434232 -0.9618545425067575 2.004128561212031
H 1.730612180477289 -1.866462351879557 2.5270632441516683
H 0.7104758314536892 -0.4115900821694643 2.560030991981455
H 2.3310486836963475 -0.34713422637694835 1.8097343858295496
H 0.32911030303111166 -4.222822866826215 0.8833452683749651
Rh 0.3906855523973155 0.8503973042614906 -1.0601697614814234
I -0.14198692715674585 -0.8039850870327382 -3.0371713821457815
I 0.6426616237923727 -1.588787915724674 0.15497067310288154
O 1.1671824386294813 2.290604313169649 1.4475096417379332
C 0.851835377493089 1.7269478867854702 0.4998981930504337
O 2.807082286107944 1.877770595648301 -2.517665386179636
C 1.7508277558098364 1.7262600920513966 -2.1072843223296367
