12
## STRUCTURE-ID: 6456678f1f2eff356b324931 ; CHARGE = 0; SPIN = 1
O 0.4210105231644612 0.506733634880069 -3.107106284484644
C -1.9099610216277025 -0.3303265157598759 1.4816022150659471
H -1.7139441140916494 0.09598051729950297 2.4568230410208836
H -2.3363314952571455 -1.31805508004631 1.5982911531275945
H -2.6065402334473493 0.3020765100360762 0.9468719408295666
H -0.45347272957910856 0.12519974485969546 -3.2170923701698797
O 1.2157709648278199 -0.05041244764783329 -0.31290286490183405
C 2.2347740604979203 0.17190781199720057 0.2804791497233692
H -0.9858167394856231 -0.3996018942937779 0.9230318599057179
H 3.0857436626961476 0.6830702426748455 -0.1895274755060896
H 2.374422881393799 -0.12312942771289653 1.329294025226636
H 0.6743442409084394 0.3365569037132983 -2.1897643898372743
