12
## STRUCTURE-ID: 645667f289b4b6762d2fdd80 ; CHARGE = 0; SPIN = 1
O -1.2352360701878353 0.32025395335021645 -1.3435981244244086
C -1.1849781087110804 0.05547546000861822 0.6303850546383749
H -0.47645560343773835 0.6087015170893653 1.2228736752386018
H -1.2898817923742625 -0.9818289777998617 0.8934696968801661
H -2.118485157064776 0.5894022549770318 0.5134622762431192
H -1.814284852336253 -0.38540636097522496 -1.653847054897583
O 0.5924953369108384 -0.6702346237738187 -0.23668553758859046
C 1.7051228793388924 0.0005609271716436311 0.19902649748825768
H 1.69681863824272 1.0660105242829574 -0.08558120494819496
H 2.604331942376136 -0.4543771184490371 -0.24253941250577324
H 1.8123777691737442 -0.06364129096720433 1.2946850885430725
H -0.2918249819303692 -0.08491626491467796 -1.1916509546670457
