12
## STRUCTURE-ID: 6456658df66d814d286b0e1b ; CHARGE = 0; SPIN = 1
O 0.12107450167455476 -0.03503471732128508 -0.31188894677825
C -1.1124088832439814 0.5341055541373683 -0.6954500091584422
H -1.4602571618685838 0.10726212568218789 -1.6421753394880372
H -0.9412239083745698 1.601165721917145 -0.8162180846272691
H -1.8759291219834433 0.3688280108054235 0.07255678888951796
H 1.09582422010656 0.9554476484789426 1.0160290893683643
O 1.6343897080364413 1.4825116528475588 1.6254822903593396
C 0.045221134057183386 -1.4323070131777036 -0.127210342552851
H -0.2622436920787507 -1.9309793425222466 -1.052603063488089
H 1.0411979318612001 -1.765942408629399 0.15427539965966575
H -0.6656268053309676 -1.684434576333282 0.667313906010317
H 2.3799820771443443 1.7993773441152976 1.1098883118057212
