12
## STRUCTURE-ID: 645664ced14327467340f1f0 ; CHARGE = 0; SPIN = 1
O -0.7974169984265377 -1.2240065124494477 -1.1314815204885105
C -1.2425517438535219 0.47770343117660347 -0.19353647946236543
H -1.0154911501902981 0.5857442443451876 0.8533175218529323
H -2.2278092110542937 0.06057681055651082 -0.35262580307093916
H -1.0123195642213498 1.33383747434773 -0.8020041691341423
H -0.9402224867385447 -1.016523233904001 -2.0621091338407926
O 0.8477611625457381 0.23694839685042562 -0.29173703331286527
C 1.4262203675376772 0.1218218906136481 0.9455224391014488
H 1.0799986122669913 -0.7698636486764321 1.4941793190780421
H 1.2276370530986194 1.0098380252101231 1.5683293534430895
H 2.517714260327303 0.04035593541811401 0.8340098599304316
H 0.1364796987082353 -0.8564328134884492 -0.8618643540963565
