12
## STRUCTURE-ID: 6456677a82b45d065b07102b ; CHARGE = 0; SPIN = 1
O -0.039661127138345804 -0.2414120896050177 -0.18205059975828314
C -1.3839329664215578 0.18032379427082848 -0.26740519699379556
H -1.4681301190092624 1.25850456953512 -0.09242776827137154
H -1.9310526262291592 -0.35824711816534854 0.5027171080622588
H -1.8039501485997402 -0.05548365847346434 -1.251067341217507
H 0.6801820670125786 -0.46983576306832264 1.586251361009563
O 1.0299744639833124 -0.6789858065117741 2.4653161341843486
C 0.7918238697742306 0.3842081556867029 -1.1355448554422711
H 1.7938749318084988 -0.010354071157917182 -0.9848779129003884
H 0.7994917938546944 1.4707340770714157 -0.9955852826375934
H 0.45579473378734164 0.1577782896221678 -2.153097698862065
H 1.0755851271774044 -1.637230379204387 2.5077720528271077
