12
## STRUCTURE-ID: 645668b3fa2a735ff8610abe ; CHARGE = 0; SPIN = 1
O -1.1487499479976229 0.5636577418562312 -0.6620594663862241
C -1.9835639141863073 -0.1609889234439459 0.21961931782207275
H -2.927080450560999 0.36296888044908926 0.39070892405713903
H -1.4483464759310443 -0.2419304233002301 1.1638356102893208
H -2.1881131797878886 -1.1651701515519257 -0.16163993585395575
H -1.610431787382332 0.6850368163543508 -1.5007815787243994
O 1.5536774199525685 -0.31383613247708525 -0.8949944786623126
C 2.1518055237358613 0.013316577268908268 0.3366254812259865
H 1.6861489900507607 -0.5318202430357334 1.1647182821196613
H 2.090876380110669 1.0871802371344024 0.5387581736589871
H 3.199851681146609 -0.2761613348654373 0.2693784628428183
H 0.62392576084973 -0.022253044388632154 -0.8641687923890945
