12
## STRUCTURE-ID: 645667335bafa92f254d91eb ; CHARGE = 0; SPIN = 1
O -1.3322059892964584 -2.226293229517993 -0.9107411878077164
C -0.45942933773419964 0.8409910171215899 1.0602941400358497
H 0.2459416905772828 1.379113852220102 1.702463287430682
H -1.1383893331712662 0.2542529124622076 1.674476343340365
H -1.0304329275100057 1.566358086294479 0.4704260784213613
H -0.9864613612293284 -2.991503592414055 -0.44492444254638475
O 0.21972521035234605 -0.0687187557029245 0.2216395632269644
C 1.1486130514189032 0.5632138833459532 -0.6327520302436966
H 1.9141435111613307 1.0903589704292571 -0.05339656343702184
H 0.6479592556032526 1.277144771540256 -1.2959036268102082
H 1.6137856840735798 -0.22113271957183922 -1.2251289249606518
H -0.843249454245443 -1.4637851962070196 -0.5664526366495206
