15
## STRUCTURE-ID: 6456b6c5ac56e510364dd52d ; CHARGE = -1; SPIN = 1
C -1.8582671040409415 0.3863735723938383 1.0559825755807575
O -2.526338308219167 0.3723914696451453 2.039855928693611
I -0.38499580144990314 -1.589252059693487 0.7437454223929711
C -1.0520608168843426 -2.407297317308358 -0.9960360114730875
H -1.513912543985878 -1.737605707580906 -1.7017705745963692
H -0.4755209607488922 -3.245968914453819 -1.3500080886115435
O 0.9756732679863084 0.016322446648773 -1.6691835046926702
H 1.3024065460956715 0.24085843446597383 -2.5670603641913723
Rh 0.8042351005521494 0.6866066262901942 1.1231586373342042
I 0.6296080979912438 1.506652789983969 3.65851445592847
I 3.133706662042625 -0.5942803905941759 1.334805475023856
O 1.8434028019663233 1.9671385153753913 -0.9556908248635325
C 1.2801709019264162 0.910957668168765 -0.7529943923187798
O -1.197832571242366 2.1530225429948815 -0.4111250691997643
C -0.9602752719892824 1.3340803236637313 0.44780633499313083
