18
## STRUCTURE-ID: 6456717fd6ba2d44a52abdd8 ; CHARGE = -1; SPIN = 1
I -4.233772920749147 -1.1697094934074057 0.4458094340049047
C -2.4904775218338426 0.05728706944422899 0.5192368443966702
H -2.5103686629552344 0.6163277241299651 1.4450510953678966
H -2.5136847902589152 0.7237053308669988 -0.33367981950155334
H -1.6230796705550068 -0.5917998853650578 0.4717530147748446
O 0.3570681854615877 -1.5551976014694784 0.18612156851767242
C 1.0663143768412127 0.8806149891704105 2.192810676532658
H 2.1330405871911093 0.9201971892039933 2.3773828201972202
H 0.7591899565636265 -0.12587457356933254 1.9247396583956924
H 0.49831252033124435 1.2643594580795583 3.029685961285747
H 0.9619238365002705 -2.2175893328494296 0.5337747383775756
Rh 1.1518924375791246 -0.44496284859918367 -1.3680688109251238
I 3.5701821567174794 -0.7323059693346612 -0.3753812066288522
I 0.6513870725208025 2.1167984579162935 0.4771784436378671
O -1.458529782270741 -0.6590072175097251 -2.809015570729559
C -0.4709336936509025 -0.5638506603881436 -2.2189302226439604
O 2.3004083520453067 1.0067745999621525 -3.710568825774429
C 1.8511275605220667 0.4742327637189725 -2.7878997992850216
