12
## STRUCTURE-ID: 64566942422bbb34246dc160 ; CHARGE = 0; SPIN = 1
O -0.5691809476304054 -0.18795179552933475 -0.8540120960707748
C -1.396216434096034 -0.05539498472383996 0.3098987496972929
H -2.3067922122347153 -0.6220359245715077 0.1304620049604231
H -1.6287762327845219 0.990292519413782 0.5164481938707937
H -0.8369375620910365 -0.4763865238380947 1.1461939691283407
H -1.514800103267666 0.08215900613516734 -1.873876317451035
O 1.7706436056051358 -0.7716656370354968 1.4943956390489703
C 0.5948313672280373 0.48044863330076176 -0.762339679623249
H 0.5403707562302531 1.531898696003863 -0.48081920495820907
H 1.4250832324100748 -0.33044982016399527 0.6703241626738867
H 1.222669066129766 0.3081588319460111 -1.6293239868702145
H 2.6991054645011117 -0.9490730009373178 1.3326485655937814
