17
## STRUCTURE-ID: 6456b6bf3f2e837692242a38 ; CHARGE = -1; SPIN = 1
C -2.457808545840412 0.3506932497796937 -0.2436999098691368
O -1.34132285300788 -0.16661308273386613 -0.366041838177635
Rh 1.5941629290584645 -1.1280000199663265 -0.8647534943792174
I 3.0872272986537928 -0.010878579406690025 -2.7528430252874734
I 3.414335944730143 -0.9020625003875035 1.041039565596025
O -0.0026331652615134934 -2.8143790834932574 1.0066127608337871
C 0.6213457678331358 -2.1562148201348204 0.2956529725774108
O -0.38412276584994054 -1.6793118012272756 -3.0284577177761003
C 0.38789424446041887 -1.4786305570168392 -2.198793881879083
H -0.12691078875790485 1.537115191001865 -1.7933627833008945
I 0.3713913922069892 1.4586415347033561 -0.15123626151921551
O -2.40856514261335 1.6559977754765343 0.02585919375511207
C 0.14983424220692504 0.8766027539448804 1.9872673188697592
H -0.6973481463514809 1.4099733028818318 2.3987845077394274
H 1.0716646715678135 1.1666602961026007 2.4775347199866244
H 0.0025801172641799312 -0.19529272118673793 2.0542353643320936
H -3.281725200299369 2.0756990616625615 0.11220250849853514
