12
## STRUCTURE-ID: 645669910516a707b56cd4b0 ; CHARGE = 0; SPIN = 1
O -0.7830096617239711 -0.2607353207641299 0.1253087606306339
C -1.7939671095706906 0.22607709735164377 -0.6605965742070936
H -2.5774552934673616 0.7502189762819877 -0.07943143786763579
H -2.2828953037310016 -0.5767722152625153 -1.239771566734954
H -1.3874579082076972 0.9413192636094383 -1.3953464853461885
H -0.10425647159214613 -1.4704395877229461 1.1451795998342633
O 1.765014947398008 0.17205293125352006 -0.7258944916770295
C 1.3354894224690586 0.3619900879477071 0.5131355481426946
H 2.041570262894112 0.1619241660499933 1.316534720424862
H 0.6508666948530499 -0.9914262075575764 1.1631827863766147
H 0.7573243823782241 1.2630859755630721 0.6387420369905972
H 2.378776038300405 -0.577295166750202 -0.8010428965667769
