12
## STRUCTURE-ID: 64566a158a9a55267a610ab8 ; CHARGE = 0; SPIN = 1
O -0.9467019652141673 1.0054807368055367 -0.6511192365740687
C -1.8711623702191786 0.14596447961833334 -0.01420347463294526
H -2.0787997129309983 -0.7363832754299002 -0.6262402056870645
H -2.8080062501229763 0.662860537148332 0.2070472887798286
H -1.4136357959980517 -0.16935517303451475 0.9217826523735994
H -1.3417800307738776 1.3435630767170583 -1.4639933733307666
O 1.7211779153189302 -0.058505207449235666 -0.7657823683218385
C 1.9210767611432265 -0.5405800492149602 0.541746495808219
H 1.1765290449189036 -1.2988678283508186 0.8072141020556848
H 1.8825019495903408 0.26897417714462213 1.2773977949607875
H 2.911150302662788 -0.9945422683939313 0.5651967321575301
H 0.8476501516250492 0.3713907944394626 -0.7990464075889497
