21
## STRUCTURE-ID: 645678309f9c95355d2648c7 ; CHARGE = -1; SPIN = 1
H -2.119808549612358 -1.4498547717350079 0.02274212145061488
I -2.468120817000879 -2.1306482447123978 -1.3422880706980074
O -2.0377211594986147 2.3336935523023143 -1.1942686232485478
C 0.11267262507740737 -3.886626694539282 1.3504712147773859
H -0.5524165557652407 -4.440732546471513 1.998720134919781
H -0.17146072455508699 -4.05203281898622 0.31988120267041487
H 1.130408566410776 -4.219650007523224 1.5055125960827695
H -2.935703942927979 2.6925400446676315 -1.352308072701639
O 2.290725141240177 1.8186336694578218 1.2398023221068433
C 1.3762230127426287 -1.224078503578113 -1.4218190914881852
H 0.04003439513737213 -2.832628344397525 1.5924498863879355
H 2.432897107441563 -1.258724930215302 -1.6040655736745408
H 0.882257156456456 -2.020662732510632 -0.8959922290613935
H 3.081036546773157 2.155088763488348 0.8137847610887176
Rh 0.38976089935770414 2.2873179691753545 0.33846538523438463
I -0.7535907434828044 0.5530472931171647 1.904586316232773
I 0.3966876649459653 0.5291463078698977 -1.686867490664202
O 1.2642563290867104 4.669128397010183 -1.220419984651631
C 0.9885026340312488 3.707025464939167 -0.639918610896054
O -1.9405379946466454 3.846313754943843 0.43881940176042133
C -1.4061015912115786 2.92370437769746 -0.16728759562788906
