13
## STRUCTURE-ID: 64566c2fbdd37505fa6cd4b0 ; CHARGE = -1; SPIN = 1
O -0.6921594652453656 -0.8488749945830203 0.11076979725209285
C -2.4065414455360035 0.43340325758334 0.44829544404544536
H -2.6386965269608007 -0.5243987282670932 0.8780606619890535
H -2.49369012736466 0.5332450057640182 -0.6187596178891016
H -2.7965731648519503 1.2584830051601759 1.0153905410456054
H -1.057441025593329 -1.4755902936600778 -0.5246490580160055
Rh 1.2384642073251586 -0.017702834862123984 -0.30474673625994686
I -0.2039668360142382 2.039374320952641 0.9721750260522989
I 0.45350240527255536 0.6493276704448738 -2.7972476232477628
O 3.978224366634749 0.9579879117143725 -0.9580343902619849
C 2.9224128735227075 0.5700697009671487 -0.6878630186287057
O 1.9218205516048863 -2.2375867921688384 1.5884111695979097
C 1.7746441872062733 -1.3377372290454186 0.878197804321096
