18
## STRUCTURE-ID: 64568b9ea654bd7a12159864 ; CHARGE = -1; SPIN = 1
I 0.29039932786292433 -3.3313715828580657 -1.7981128661383365
C -2.4629017775380677 0.18199928093389509 -0.08965034152805572
H -2.779933455141206 1.1908358605263796 -0.36185490301490003
H -2.6808378419285903 0.01861617513330231 0.9696279724050898
H -3.0551912476467824 -0.5315442303720317 -0.6693300825407293
O -0.0838572095810409 -0.11316037311274234 1.6328634235649346
C 3.162682062954437 0.9601106474797556 0.9766259155567417
H 2.44846423820378 0.9633889188031762 1.7933623968900334
H 3.1844465632573686 1.9211069149819877 0.47467851295005165
H 4.147151397056122 0.6543509608747964 1.3084260894432544
H -0.5035571291132838 0.597061649706069 2.128554910724377
Rh -0.4026863324908745 -0.06827306432310419 -0.3835463007664959
I 2.4485176893364637 -0.5152400968726748 -0.4353332185203111
I 0.038580756880623464 2.5986169846744143 -0.46578944327918126
O -0.9225374763391638 0.07179942178953813 -3.3236214893500358
C -0.6887674759988202 -0.016649972192812834 -2.20495037171679
O -1.3725728262089043 -2.6136090721803282 0.6058040118144692
C -0.7673992635649897 -1.968038422991539 -0.15775421649412336
