33
## STRUCTURE-ID: 6456c42b8f30814978462270 ; CHARGE = -3; SPIN = 1
Rh -3.621413706607231 -1.5383557995713903 0.17563511038434568
I -2.773763601580309 1.0825526713576998 -0.09325890665650258
I -4.983699171895364 -0.9142104882901343 2.3394935386940006
O -4.712336562260566 -1.1571575182098228 -2.3477694355649223
C -5.067912395029148 -1.1238686980939927 -1.1932353516217988
O -1.9043615399221485 -2.7598612147092605 -1.9290508533661077
C -2.5456564078862707 -2.187179034502952 -1.1573411423864193
I -4.574368106652572 -4.000084622370901 0.19463248639992173
C -6.470590359371008 -0.793061196707625 -0.7840899306463543
H -7.065731812632616 -0.6992975157155132 -1.6914464356811576
H -6.8833191106011435 -1.563630746807157 -0.13271747352264165
H -6.478429622840877 0.14810255098135938 -0.23252633680605347
O 5.574467957038641 1.7763012535055787 -0.0954089617670524
C 5.008850649148539 -1.5461877213419177 2.2590403478728702
H 5.01667505739693 -0.9565734778673292 3.168166550534472
H 5.911699464998337 -1.4193091588917617 1.674184345013405
H 4.811231669446443 -2.591320530774139 2.468816606622872
H 5.663622662136039 1.3994930212283585 0.799103724045897
Rh 0.20382279019667854 -0.04461804119492255 0.3730928130610295
I -1.060755637482549 -2.0699182294509795 1.7078422848612127
I 3.2463299087763557 -0.8106599581447451 0.9980267816441665
O 2.191602420494422 0.5997734302719824 -1.6507001430097967
C 1.359082065887939 1.0760237202137228 -0.841923877920362
O -0.2332110922165744 -0.6969412097813744 -2.481596648743277
C -0.06267116740182727 -0.6253746789222531 -1.3206710739237024
O 0.7253274840882185 2.2561213392025237 -1.2602495648720664
H 1.1272083514796196 2.550657358831311 -2.0959815439774587
Rh 2.7907266094824936 1.8220884767982968 0.8047726778765599
I 0.6650674147427834 1.468222343296284 2.5114510647331962
O 4.158505637995631 2.7014560760774393 -1.5017352226511975
C 4.295328786856741 2.1565772071522273 -0.41527976732911837
O 2.854121556446764 4.808616207313295 0.8326340755256173
C 2.8345498077676647 3.6516241851180666 0.9180902631764446
