13
## STRUCTURE-ID: 6456756ebeec2f483d2fdd86 ; CHARGE = -1; SPIN = 1
I -2.6997497187064856 -1.9636463690108013 0.07619736266980397
C -0.9096600835675019 1.0476953533036826 -0.48777532510299904
H -1.679126534460044 1.0840374605666654 0.28327263279108705
H -0.47997148215321933 2.0414710440805943 -0.6319632010560924
H -1.3372950688114476 0.678127497964557 -1.4242900357170176
O 2.134887044854568 1.1611013577516809 -0.36961530327209235
H 2.4386427925004956 1.1676691799280068 -1.2822998460261763
Rh 0.6465962872702573 -0.2398000069427171 -0.007776832929015904
I 1.0965538508951898 -1.3717401364112958 -2.295804106394882
O 0.6599450246753468 0.589114674398508 2.8407844156389968
C 0.6033167804854171 0.3275164826929414 1.7268602861572213
O -0.021524315861585392 -2.736534278079898 1.067730111115548
C -0.4526145771209967 -1.7850122602419145 0.5046798421256342
