12
## STRUCTURE-ID: 6456699ccf13fa7cd95fdac8 ; CHARGE = 0; SPIN = 1
O -1.2241921247146637 -1.486897220502328 0.3325951400708715
C -2.015391330228211 -0.36740098875916516 0.008536683354602649
H -2.021559473449448 0.3670731108723517 0.8202751079758782
H -3.0306713310707356 -0.7299331118738559 -0.1483229427109201
H -1.6661895052730036 0.1183814507928875 -0.9084995002292149
H -0.31397180331259744 -1.1782669271965431 0.4791451041904737
O 1.281573063967913 -0.10118433163262543 0.6575631139073634
C 1.747799635231495 0.6418419041920125 -0.44968949100619254
H 2.838257581096023 0.6105477517170566 -0.5190406099027013
H 1.416510791275989 1.683168417434148 -0.3978093801340311
H 1.3254182406598243 0.17864486689117995 -1.3397687343447717
H 1.6624162558173903 0.26402507806491626 1.4650155088286554
