12
## STRUCTURE-ID: 64566871e76c006aa9242a38 ; CHARGE = 0; SPIN = 1
O -0.8192307064082442 -0.9945750808596174 1.3408444023686692
C -1.7687625142481438 0.005796743035049278 1.0586763268531283
H -1.465050921792589 0.9739364624300731 1.469335241679501
H -2.7036017239429606 -0.29931988226829864 1.527529022906743
H -1.9311478042832186 0.10969598250882374 -0.01937861691841025
H 0.029984371561569585 -0.7244858504001543 0.9446286323691361
O 1.5289294800435718 -0.1025624341467825 -0.0036869783241849263
C 1.2706866419416132 0.3360135995021101 -1.3229020343190554
H 1.0052730600086395 -0.5005085211255288 -1.9753664019214028
H 2.1311577626848455 0.8643989537403981 -1.7403565049638237
H 0.42854919388169355 1.0233337185234965 -1.2663276246473807
H 2.2932131605532162 -0.6917236909395627 -0.01299546508291128
