21
## STRUCTURE-ID: 645675f94df9c773401688f9 ; CHARGE = -1; SPIN = 1
H -0.9664024545335465 -4.705632820202428 1.2586082092079962
I -2.012888571431062 -3.494003046753507 0.836949439868882
O -0.7323772780151944 -2.6471053707358667 2.0937721919269388
C -3.0790215997061603 -1.3649161955228315 0.9029008425963789
H -3.739277182299847 -1.7930016834224043 1.6621757550058047
H -3.705024892584483 -1.1659574379328643 0.04556696549540655
H -2.6548366564237846 -0.48163207383437034 1.3644412666011374
H -0.9934105004676778 -1.7590121206343323 2.3416980528036824
O 2.9599668301449578 3.2037811486495853 -2.5648010129523784
C -1.4577278477558406 -0.9112329089476054 -0.4953206452131558
H -1.8245078682861904 0.09369122265785257 -0.5139926000552693
H -0.6666845523606992 -1.1612073325418186 0.17762999044778152
H -1.6919302321019716 -1.5627840840039695 -1.3155464959030065
H 3.6936481694404177 3.307785683008195 -3.2014469434877784
Rh 1.8895579580903243 1.8586591956108822 -0.2938468715859044
I 0.7096692796909819 0.22533038910840023 -1.9298725305725242
I 0.3512726349445545 1.310980569689249 1.752428724700209
O 3.5418225177254277 4.0572277978129145 0.8491611748551288
C 2.844129891673397 3.18765067280671 0.483801477218234
O 4.30667938574797 1.6043196565753026 -1.783302878346028
C 3.227342968508347 2.1970587386129456 -1.6710041126115187
