19
## STRUCTURE-ID: 64567a5bda76e71b9119eb71 ; CHARGE = 0; SPIN = 1
H -3.070163523690378 1.4307576064455167 -2.104404589738923
I -4.63456822069078 1.6873282962283211 -2.191036734999139
C -5.046096164214455 0.9307689196333653 -0.21085882915076207
H -5.985088454959507 0.3873185431117332 -0.2668324620386014
H -4.181274793118721 0.29921563675624113 -0.0013119006561516612
H -5.097359363886634 1.7925642062542042 0.44655977826896054
O 3.5667194714264183 2.4307425846397432 -0.6998718282893527
C 3.9505872029885087 0.031334977525365855 0.4769458904666479
H 3.9164382465958956 -0.2960570688989138 1.5126002134879084
H 4.6066574317539715 0.8813459708064156 0.3738013140085201
H 4.289382561943174 -0.7785926934925007 -0.16389636486971323
H 3.1437239241298074 3.159857211766612 -1.1534799164393919
Rh 0.5527561954220129 -1.3604368855553444 0.4377502155979354
I -1.0203554981582195 0.35043091359096235 -0.5386129290881069
I 2.0615955687108745 0.6452771948571909 -0.13315082678092016
O 2.936506625798704 -2.8822947130784287 1.4062766376319682
C 1.9952747803191069 -2.3173578391275567 1.0523192382699065
O -1.321373602897545 -3.648208444480453 0.9892287462379038
C -0.6633623874722545 -2.7439944169824253 0.7679743480813703
