18
## STRUCTURE-ID: 64568bd2c1ac4035db1fea64 ; CHARGE = -1; SPIN = 1
I -0.07598495090093621 2.57258520866813 3.035163188261014
C -1.0438945606349765 -1.358240960660527 -0.273940002951198
H -1.9519731528965876 -0.9189195779561312 0.14565321031546588
H -0.9920331231130586 -2.404903803074553 0.0358069616348304
H -1.078751403996477 -1.3094649914332317 -1.3653832189840853
O 1.356503599823491 -2.0871340474141906 1.309677929948674
C -0.5398378154893799 1.8123821878977835 -2.661799049534731
H -1.4118169046820352 1.1892739392717482 -2.825855113199804
H 0.3495060377419103 1.365865112702529 -3.095829905907822
H -0.6984781234552992 2.820104555318033 -3.0297873298265676
H 1.6354290333297932 -2.719392458497164 0.638572336073356
Rh 0.6397186586966674 -0.38103004819044084 0.4395561592808207
I -0.23193681045599399 1.961445608037336 -0.5079977732262124
I 2.179412876964975 -0.802520666381461 -1.6887617863755502
O 2.0936850188847322 0.7005826988683072 2.209872107561807
C 0.9096860601227262 0.6434008198902936 2.4915500073496863
O -1.0079455413884932 -0.7902978924019692 2.898141770454932
C -0.13128889855105033 -0.2937356846445098 2.2453605091253794
