13
## STRUCTURE-ID: 645673c21054af6f072a1570 ; CHARGE = -1; SPIN = 1
I -1.5986653380029805 -1.1382957364624 -1.399558021121794
C -1.9289047737751843 0.7430670513323371 0.36883237764681887
H -2.919755233878887 0.33912750072538655 0.5075030669575641
H -1.9265341688566269 1.6330405969541408 -0.24526373754519998
H -1.4193180777350636 0.8398708949161812 1.324128088100795
O 0.22003842309592653 -3.6107869434833195 0.8420830759106495
Rh 0.5401952809158398 -0.09581713879555871 -0.15752804301049458
I 2.606283168431401 -1.6200416524240369 -1.637318244787972
I 0.32876494160218916 -1.9750323349155716 1.7466494964101442
O 2.646353872900952 1.1398199010344117 1.593814767193661
C 1.7655161526224175 0.7555759572994528 0.9732852052737613
O 0.9385888981081023 1.8342759431855005 -2.4073905811917258
C 0.7474368545719173 1.1551959606335087 -1.5092374498361925
