34
## STRUCTURE-ID: 6456d574afa3df023832bada ; CHARGE = -2; SPIN = 1
I -2.2939860229788414 -2.5702329096368763 -2.321104018639901
C -2.7331728524034946 -1.6569511569149544 -4.297235587557507
H -3.7803089491018205 -1.3642777691794832 -4.295382568124834
H -2.53413965244339 -2.426194320663946 -5.0372735714448735
H -2.0603856807864123 -0.8087082228603184 -4.408574135699202
H -3.756526527591749 1.6906457233699572 -3.3512639972837968
Rh -2.1092701309051534 -0.5473515486696169 -0.600080143055284
I -4.303391935539537 0.8709075063144232 -2.098859613359468
I -0.1602307218956305 0.651310885553111 -2.009805084315104
O -1.8298481803382518 1.869847260893901 1.113714226160534
C -1.9536461191034888 0.8976291477051914 0.516246895360636
O -3.0745910786372552 -2.1985022583710836 1.7056512446104337
C -2.791508005750371 -1.560633412017988 0.7894805153128479
O -0.8799820599794922 -0.03920417581438105 2.8801559370997185
C 1.120585625881774 4.072767401909343 -0.04101291877935528
H 0.5421478537760754 4.766119623182165 0.5566505437824251
H 0.6011658749355279 3.782097090226447 -0.9490330557419018
H 2.1081461775009287 4.455801346406052 -0.272184857892507
H -0.6114942462497758 0.8927921145699917 2.9539877923033404
Rh 2.3148245721079252 0.3167599415254916 -0.3327490774348904
I 3.6925883943102846 2.003680330640733 -1.8428662112402
I 1.4104803452901757 2.196997248754035 1.2545342434256044
O 0.5858969096501828 -1.8970493217046227 0.13128556335491548
C 1.6207927949155516 -1.3952213583619268 0.6291321453703058
O 3.2606819218301886 -2.171738751833041 -1.6314532787213443
C 2.9716984426520723 -1.1464238613639788 -1.1556139368365181
O 2.5145735707740777 -2.4002308548480067 1.1194182686417617
H 2.0759473469599237 -3.263843023579808 1.0505482135299191
Rh 2.0581392227277626 -0.2658270699751622 2.469319133264487
I 4.6752303445767325 0.16241489321860286 2.317948626124324
O -0.045316328194220795 -2.088690073261573 2.838245681078436
C 0.23006918226970074 -0.8979742809444412 2.7116513863563436
O 1.3397255415472358 0.0553697537865979 5.339487600137415
C 1.7951043701928417 0.013914101945197604 4.267034040213266
