18
## STRUCTURE-ID: 64567396c636036b06750efb ; CHARGE = -1; SPIN = 1
I -1.625717498690389 -0.581848243787987 2.458949627463926
C -1.8470846927955888 0.8802234321193055 -1.4520947182852793
H -2.5610049096836 1.6141962698243317 -1.0810194875870582
H -2.3901166485481937 0.04754301918978755 -1.8948736050088615
H -1.282474087752393 0.4907681637149563 -0.585689027496441
O 2.0039965190821487 -2.253196268803604 2.2974308512288295
C -0.9069512757270091 1.531588795064056 -2.4328093202019656
H 1.8556760141614304 0.011226148603376953 0.1682783272738056
H -1.42187096322148 1.8642466705193006 -3.328990722134538
H -0.36701619975296085 2.359611480798526 -1.9791613177309084
H 2.5413136866631874 -2.577268021224605 3.052431792003445
Rh 0.5915089780723796 -0.17721531477633534 0.9935434036038967
I 0.6102223381883468 0.1317035851440692 -3.0975868503326156
I 0.6117929394160284 2.43775721100431 1.3345651254130262
O 0.07662771864901866 -2.7595796611831918 -0.36284974002587894
C 0.32794325535510266 -1.7992599282641097 0.21145196072896844
O 2.0693731109958247 -0.2549833266891689 3.3034779671423746
C 1.71378171558815 -0.9655140112530025 2.3949457339452684
