13
## STRUCTURE-ID: 64567128899fb41ab06cd4ad ; CHARGE = -1; SPIN = 1
O 2.1879364524222797 0.3223775373925392 -0.4840334028990235
C -1.6371188545837838 1.1877044762864513 1.633633263332015
H -1.744500077124392 1.048317890536971 2.7016491016129733
H -2.07415788572986 2.1203931819260142 1.2961312733192514
H -0.5891365611070317 1.1148304020521966 1.3250282423519442
H 3.1178359621220224 0.4372490417624538 -0.7620312777880506
Rh -0.35670538693593723 -0.6157352685780818 -0.7932682574758844
I -0.9322583767725919 1.4620979555916434 -2.223109207758175
I -2.695026896736746 -0.4256953234643507 0.6385863335378369
O 2.0883098178758863 -0.9567526127740993 -2.312968728155781
C 1.4973534113250284 -0.4687982520332504 -1.3566538491109512
O 0.8472429200919386 -3.088875881150529 0.35753280325250664
C 0.2902254751527806 -2.1371131475500316 -0.0204962942175697
