13
## STRUCTURE-ID: 64568b5ba96b762ed75b5c1a ; CHARGE = -1; SPIN = 1
I -3.2864953616149224 -0.9911759702226994 1.164987322490532
O 0.3705802461770492 -0.7247295071708345 -1.9478010176408123
C -1.6806395528779232 0.2991021274349778 0.5707099678765527
H -1.794125084370411 1.2402083045998287 1.1087447391053435
H -1.7858726589419387 0.4839293155340888 -0.49791951056470224
H 0.5848769049576883 -1.3089377152537058 -2.7055183707928685
Rh 1.3189529737463284 0.5059327990478062 0.49807598248148005
I 2.3340910942625492 1.2072980162730553 2.7879519263533252
I 0.6180068768607091 2.599945646014971 -0.8362866843621127
O 2.48913192953452 -1.032116974464797 -1.2433890261616305
C 1.3837479063063984 -0.5240208372112309 -1.1319571271771542
O -0.18077769115345937 -1.4179511014039339 1.3691444806174269
C -0.37147758288659793 -0.3374841031775184 0.8632573177746095
