13
## STRUCTURE-ID: 6456888693274d393d230d6a ; CHARGE = 0; SPIN = 1
I -0.4469466271496802 0.27573769707239487 2.877838631543415
C -1.533296799746056 -0.6183462330133421 -0.7247413109525022
H -1.4050731037618196 0.09448440034055697 -1.5413294521389227
H -2.1090950647292845 -0.13517378481857115 0.06755939003603578
H -2.083229670841883 -1.488489357110443 -1.0884870621022187
H -1.3312609583582564 2.933906276377008 0.8343636398002288
Rh 0.9878768323248504 0.2689730930777423 0.6956970510161095
I -0.12438874540793417 2.6595987839005497 -0.16586549716116625
I 2.968380459130907 -1.0868566323084408 1.8780116931971191
O 0.23665296048794357 -2.1912160758875414 -0.25516845560424345
C -0.22004239197076364 -1.1008156490747745 -0.23118436826072958
O 2.914131303694879 0.16839827744943114 -1.5939894287579472
C 2.146291806327098 0.21979920399543135 -0.7527048306151727
