12
## STRUCTURE-ID: 645664bac22a8f3f2c5b5c2b ; CHARGE = 0; SPIN = 1
O -1.4509766930768961 0.24058964232644098 -1.0520970890233596
C -2.1959614339060725 -0.2791292039296424 0.02815716908458048
H -2.2679565779279747 0.5162761494148751 0.7679166721418123
H -1.6957728754803487 -1.1412473360112836 0.4797931532615847
H -3.2042640953380865 -0.5679675019555716 -0.2821897772918932
H -1.3938495225735552 -0.43068590624299 -1.7425626799658558
O 2.608454335693807 -0.2723483993517467 -0.4391727451129122
C 1.7219655350236758 0.4380473478432974 0.39990365823684765
H 2.1099598364949257 1.4320787900138578 0.642213295471749
H 1.5292516136211536 -0.1091411288430787 1.3281490078071978
H 0.7875650154188535 0.5498228857891219 -0.14809505880147972
H 3.4515848620505256 -0.3762953390532723 0.017984394191726746
