17
## STRUCTURE-ID: 6456b7891647a750971688f5 ; CHARGE = 1; SPIN = 1
C -2.6588270705069856 -0.2919493755785804 0.27643271952816334
O -3.057737661419988 -0.34136128633429724 1.3304540772089377
H -1.3245734965880351 -0.3813326609766027 -3.049352007512301
I -0.5264235003791706 1.7699946923645897 0.1196567464547957
O -1.1162334549259443 -0.1740235752680983 -2.104125173416448
C -0.5249487270125806 1.1252803504401667 -1.9961438279621282
H 0.5238086513324824 1.0597456497754272 -2.3040943813956525
H -1.0834397721969822 1.897247597199845 -2.531853344401599
H -1.9362430278656206 -0.24639455880166772 -1.519315082530895
H 0.48112516662435834 -2.344497241695266 -1.2528940609987926
Rh 1.418740950139423 -0.37752504284802196 1.4189662162295256
I -0.09476926452221307 -2.262988832525563 0.24406357518354252
I 2.9952887238273633 -0.14350820062462646 -0.6620402600033781
O 3.6253856992720697 1.1673420310173583 2.7158076404992006
C 2.7564089950404793 0.5948745517396244 2.2376958833456935
O 0.00868433366529972 -0.5440277127212632 4.053420547084357
C 0.5137534555162021 -0.5068763851631632 3.023320732686906
