12
## STRUCTURE-ID: 64566a446357ee35c3530d74 ; CHARGE = 0; SPIN = 1
O -0.5949202344656777 1.2594550599821714 -0.9434668547947611
C -0.6864832222802839 0.12865921716633066 -0.20495367467750877
H -4.931187335007166 -3.088613456105585 -0.36179712644172385
H -1.0057024012407285 0.2674070368805079 0.8310652926594151
H -1.3386774804307793 -0.5955073048252106 -0.7021731423735561
H -0.4188264581650541 2.049164735908096 -0.4096056737924247
O 0.6365469012580635 -0.5552817992270717 -0.1175456706122503
C 1.6577311584515944 0.19501109126190194 0.5957737648269403
H 1.2825111995846004 0.3964267334087719 1.5975536958651957
H 1.905838018386129 1.1237598878209498 0.08329963235065653
H 2.5357130487820747 -0.44415203566696243 0.6648570036084479
H 0.9574568051272312 -0.7363291666039061 -1.0330072466184221
