13
## STRUCTURE-ID: 64568c7bab9ef4787f493a6a ; CHARGE = -1; SPIN = 1
I -0.05810013578352506 -0.6277748493223115 2.6214315905276457
C -1.3127291844435036 -0.3501356961777675 0.8750453443788473
H -0.3257831573512163 1.117012309177646 -1.1154869683093462
H -2.2570989471499114 0.08122731076510391 1.1950744208367918
H -1.4638037372257684 -1.3184107561089615 0.40109358513056975
O 1.1486614954551306 -1.0355365894029822 -0.47172967714381675
Rh 0.2441445746387159 0.7805684440240935 0.23149086490902207
I 2.631253086440252 1.9875502324591536 -0.022898310087396897
I -0.5639708670925916 -1.7076096417079554 -2.809992801342319
O 1.9660244546170578 -2.7557042254355864 -1.6362557600197982
C 1.232053541985698 -1.8672285284218593 -1.3461949153263533
O -0.8103997837675002 3.350040501650053 1.2334468379670456
C -0.43025134032284057 2.3460014885013507 0.8449757884790763
