16
## STRUCTURE-ID: 64568e115943ce5c9c530d54 ; CHARGE = -1; SPIN = 1
H -3.772166336468002 1.1166072496758535 -1.2792460611516752
I -2.324914601885741 1.1450083942867881 -0.3970572912890167
O -0.5680977825040895 0.8688275419770254 0.9221352137167339
C -2.52091608121291 -0.9638541985243239 -0.30353496420576254
H -2.090347501354402 -1.3713164749475129 -1.2099048785702953
H -3.5706458029868307 -1.2031004769894618 -0.20185155329155288
H -1.9485990422573425 -1.2977303848711403 0.5519887591358511
H -0.6703053041987361 1.3305142518817161 1.7550283672375622
O 0.055737675525378956 -0.14746986902005652 -1.8321738340933307
Rh 1.5051900653499797 -0.0595600445082976 0.049681839303305574
I 1.2099566026719872 -2.478120136710312 0.9191353545687095
I 0.9593751754672296 1.5406798411636995 -1.9711548152625638
O 4.37643255297623 -0.26029719289274084 -0.6185374773533682
C 3.4478766649376262 0.03708114518511694 0.0945447940317285
O 3.028559589199477 1.1564384119173245 2.2919733494988983
C 2.8828641267401265 0.5862919423763198 1.228973197724803
