12
## STRUCTURE-ID: 6456658df66d814d286b0e18 ; CHARGE = 0; SPIN = 1
O -1.7821899834395667 -0.867657826249187 0.1165861874176819
C -1.8634409144549506 -0.03827483357461938 -1.0215224217808996
H -1.531251666296365 0.9806639527785427 -0.7997065417217591
H -2.8801272392498722 -0.0071088316399327035 -1.424397768884401
H -1.2021226427434215 -0.46940745797454775 -1.771052395443325
H -2.3837873428652774 -0.5296964127826782 0.790883099499674
O 2.915769953132865 0.585032804174029 0.8891675117289273
C 1.582675867102 0.1989027879335672 0.632609936740962
H 0.987268385185186 1.1096712594570648 0.6470416964265967
H 1.2038750740128086 -0.484240305496651 1.3982135374577827
H 1.4817732704934918 -0.27468872770448305 -0.34809180180028915
H 3.4715572391230887 -0.20319640892110716 0.8902689603590049
