12
## STRUCTURE-ID: 64566547915f2751917cab88 ; CHARGE = 0; SPIN = 1
O -1.0642455769189259 0.5860411695723374 -0.7775424319984282
C -1.8971658948821357 -0.266089870015696 -0.018855404698823623
H -2.87486968193765 -0.39081244296030504 -0.49141408809516857
H -2.031054793664754 0.11152255249140153 0.9989449247888248
H -1.401102600766243 -1.2340360027518986 0.02361770848885814
H -1.4871446274595777 1.4493628468539694 -0.8579785085868776
O 1.7381961855504047 -0.07817211785882594 -0.8962875651103575
C 1.990861730778755 -0.0774875294759519 0.4894465819701696
H 1.3767698685099299 -0.8199681877108465 1.0094274050017416
H 1.8066572874039706 0.9079731085471708 0.929199920867789
H 3.041535197001254 -0.333250549718663 0.6213937829236592
H 0.8015629063849705 0.14491702302728351 -1.029952325551379
