19
## STRUCTURE-ID: 64567a659bb69471f84b6a5d ; CHARGE = 0; SPIN = 1
H -1.8261381200110365 -0.06695649855982197 -1.5855205306466444
I -1.500741290999153 -1.2328093737473405 -0.5729621199981273
C -3.5291693087980285 -1.0624383023553488 0.23267529805824846
H -3.6332332104297898 -1.7771658916615487 1.0408391273147277
H -3.659785613132409 -0.05370814072597967 0.6093784291357506
H -4.244051235343822 -1.2843061168726555 -0.5511374651946321
O 0.4873258909201078 -0.8814513306611568 -1.8235681380321664
C -0.23350953077666828 0.909747527368875 2.388986712851246
H 0.6529694974852909 0.9554431638619056 3.010011258413255
H -0.468724388105307 -0.11940941540766688 2.139489628667003
H -1.0697874692326068 1.414981282064273 2.856041484996303
H 0.6860692437263207 -1.685021434372931 -2.3140587197327918
Rh 2.216610466208142 0.0683209405100594 -0.933511361271712
I 2.1856408431204044 -1.6949439848741987 1.0059471602771257
I 0.20845509724092207 1.9592564688129246 0.539506987128982
O 2.6909948026019666 1.6480625346752191 -3.4313676726059525
C 2.4641376121313607 1.0460443780604054 -2.477869129385502
O 4.789802519536141 1.1201889280248523 0.13577046870884527
C 3.7831341938581704 0.7361652658601832 -0.2686514186839717
