12
## STRUCTURE-ID: 64566afe9711c316a7112996 ; CHARGE = 0; SPIN = 1
O -1.6653081814687773 -0.36741267447873793 -0.726120100524714
C -1.327951473283014 0.3969473582958458 0.35049887330646323
H -0.1722203385721627 0.19406111488746924 0.4950115255196934
H -1.8555014102003937 0.09302761528544287 1.2571209674525217
H -1.4139681239353386 1.477586582328134 0.17456792779503522
H -0.7280313210349929 -0.4965059315283655 -1.2139139811057647
O 0.6906596986249369 -0.434097454784267 -1.4165593962396015
C 1.228170619880404 -0.28145103215951933 0.5889827677143085
H 1.42163271051269 -1.325544316940267 0.40998673380230466
H 1.0372816180872966 -0.08610729089763604 1.6446482486830785
H 1.9859960531084175 0.3759087605158588 0.19823551004035284
H 0.7992401482809435 0.45358726947603656 -1.7624590764436754
