13
## STRUCTURE-ID: 64568c8b20f9e6097e2cdf7d ; CHARGE = -1; SPIN = 1
I -1.6021823359314042 -0.27433313892501904 2.1925807520042966
C -1.251858161116696 -0.23849473722889158 -1.2644193844059783
H -1.1132578145175374 0.8383428212911948 -1.4152022907113015
H -2.2732686022732396 -0.4499544603745053 -0.9498161437681378
H -1.0176285146897712 -0.7814023748234328 -2.1794390345887606
O 1.475224290008836 0.752674785520667 1.3500484243416255
Rh 0.12272352487939683 -0.6572586930016862 0.26305138834625824
I 2.1046756802114115 -1.0466968133408954 -1.3985988812781356
I 0.5072420988975989 3.131071419174017 -0.07491695599235747
O 2.51847938731457 2.5995301196009266 2.0576230891159284
C 1.769157298645089 1.924306491667298 1.4273723300507246
O -0.7760568370351807 -3.446049846447125 -0.04315386545528331
C -0.46325001439306956 -2.3517355731125376 0.03487057234112169
