18
## STRUCTURE-ID: 64567166b395a164d16f2cab ; CHARGE = -1; SPIN = 1
I -1.3597188528614093 0.4200300426565531 0.16765406051372903
C -2.3619284908674465 -0.7966172674043634 -1.2658770101028762
H -2.8127750085423227 -0.1436897207324749 -2.0021454827191345
H -3.1077127321415428 -1.3897053861105821 -0.7541416231015597
H -1.6080445196954147 -1.4276702717496599 -1.7253755852713297
O 0.5145039219740659 -1.9595038672425913 -1.8721080186405337
C 0.012211293069487518 0.6258085455660811 3.6909400838857405
H 0.8469052007636932 0.12641935118045963 3.215496915359855
H -0.9121472559047311 0.09919142306181765 3.4954456184968152
H 0.18651641986427384 0.7634125270087567 4.749268797695117
H 0.8400556822743547 -2.6969549156214 -1.3463008777711194
Rh 1.355706396405016 -0.14281052024353225 -1.3292857335638615
I 2.494734626045483 -1.2407574331680549 0.7609764929458142
I -0.1783613596288492 2.5690791360004614 2.8019844148406654
O 0.4349730919060441 0.825676919170589 -4.003906081892291
C 0.7894320312281377 0.47269223200257715 -2.9625830640331685
O 2.7035223511415087 2.444468941925396 -0.6943944155990223
C 2.1621272049695834 1.4509302636999677 -0.9256484910429414
