12
## STRUCTURE-ID: 645667b5a99ef842a04d303e ; CHARGE = 0; SPIN = 1
O -1.6358096419496049 -0.7878651701338519 -1.3268474230958154
C -1.281203113264185 0.10498457791811461 -0.567877481764082
H -1.9749319936350145 0.7741495576872729 -0.04810379131765733
H -6.364395017102228 0.6063252542729889 -0.11621080667491045
H -0.18934890566559087 0.2233557689243574 -0.4077144719848343
H -2.599107705609182 -0.9437937415296223 -1.505354383975791
O 1.684469252173131 0.22088280490955614 -0.17249969774986088
C 2.38737450023164 -0.05083142802853499 1.0211744805652152
H 2.8425747413178253 -1.0446802222919782 0.9973811390821801
H 1.6635499523482484 -0.012260098053237314 1.8330933639819018
H 3.163768385843307 0.6957344073728527 1.2057051580249587
H 2.30305954531167 0.21399828895207826 -0.9127460850913302
