12
## STRUCTURE-ID: 6456685e387f5c409f6b0e21 ; CHARGE = 0; SPIN = 1
O -1.5128992549616547 1.2523149919214627 0.7054873490026714
C -1.3833870325712572 0.3777703606337857 1.5178653174929182
H -0.40920971292722 -0.07053518486770617 1.755115381848743
H 2.026019928462006 -1.6883886171377815 2.5843270426565983
H -2.2428954734506976 -0.028048845383125773 2.073551539725384
H -0.49990962908101233 0.8705628578846173 -1.5641796342474943
O 1.6720008700377267 -0.9714358495948398 2.0515339444449174
C -0.10568152827980594 0.35947996858181935 -2.4334343144017967
H -0.8013593279017208 0.4625663029305449 -3.2558102569665093
H 0.02885794584441318 -0.6896815788340506 -2.204908929213557
H 0.8456982638856864 0.7949977778024983 -2.708950224304631
H 2.3827649509435878 -0.669602183937328 1.4794027839623471
