12
## STRUCTURE-ID: 64566ab6bc4b6150ce399e48 ; CHARGE = 0; SPIN = 1
O -2.002292654677323 -0.058157414472256926 -1.2654658255286884
C -0.37264953644798254 0.4432957560988836 0.9536239995408903
H -0.04116868638850039 1.478135525653768 0.9389034782004929
H -1.1304353323562166 0.2776423342177452 0.11384234829985163
H -0.8116506231255194 0.18153401647604472 1.9099973094683897
H -2.9379229724452083 -0.03681554259005172 -1.040719778984481
O 0.7226231106617161 -0.47102695565719815 0.7023633003155056
C 1.2034505141000895 -0.39059806352324244 -0.6563019126151222
H 1.8769504784873747 -1.228050516272075 -0.8206062607931172
H 1.6969479274339634 0.5604517728121582 -0.8504942919392537
H 0.3299435024894619 -0.4774900020831007 -1.3038917532401455
H 1.466204272268144 -0.2789209106606841 1.318749387275658
