12
## STRUCTURE-ID: 64566a5836b45d7d0f2648b8 ; CHARGE = 0; SPIN = 1
O -1.6722937646029712 -1.427215293382237 0.15335777753801075
C -1.4200620962025818 -0.522515121036889 1.2095287074412138
H -0.8483744806226392 -1.070123317944757 1.9571473237324895
H -2.3521286838565905 -0.17072889551172601 1.6628866246233098
H -0.8361248246145425 0.3358433975534141 0.8671968682097143
H -2.1586932872144056 -0.9613502221672092 -0.5368928134393393
O 0.8002737699021671 1.3870587920940134 -0.656051381226398
C 1.645985035395165 0.2841444351898561 -0.9046418337866918
H 1.0727529983257507 -0.611732854102406 -0.671670850517989
H 2.53512923090271 0.31184890288302847 -0.26759761408823185
H 1.9537928925423902 0.24590050567504762 -1.953751285318405
H 1.2797432100455617 2.1988696707498505 -0.8595115231676861
