4
## STRUCTURE-ID: 6456634b7bcdc91f2e068a0f ; CHARGE = 0; SPIN = 1
H -1.8145321196434943 0.002345537460457672 0.5175241314539966
I -3.314874672185839 -0.004069775970407231 0.98140285701227
H 3.1239400812356943 0.008165648409698195 -1.2985404760617811
I 2.005466710593646 -0.006441409899734389 -0.20038651240449173
