13
## STRUCTURE-ID: 64568cb8dbeb4920584085f4 ; CHARGE = -1; SPIN = 1
I -1.7182122848049777 2.221679360124515 5.239467034214188
C -0.1539676073903013 -1.1478375653276314 -1.9571587339544831
H 0.8136782833375226 -0.6542754126691737 -2.0793187706505227
H 0.010420007439143921 -2.226952494901746 -1.9173979614230257
H -0.8052470489032135 -0.9189475284330026 -2.799896786210846
O 2.3953003060746 1.769781893630521 -0.19371184394033653
Rh 0.282825124302619 0.0685775280209991 0.655823667025733
I 1.3518431356898442 -2.0834343978747456 1.5210833692391745
I -0.6714367584328647 0.7899218681509198 2.961316179510648
O 0.12460571089331163 2.1638561303072645 -0.2458561698240437
C 1.2165683781687666 1.6855674510192795 -0.10149551562016071
O -2.0015633980846075 -0.9085689725035164 -0.3979128676812699
C -0.8448138482898332 -0.7593678595436825 -0.6849416006850473
