18
## STRUCTURE-ID: 64568b85c2662412a85c71b3 ; CHARGE = -1; SPIN = 1
I -1.8194930192822887 1.3556197015389773 1.437962626693755
C -1.9362582372607475 -0.46576700710467706 -1.5318279152473329
H -1.6195542741603939 -1.4585332832861113 -1.8637723773854058
H -2.7651709761548102 -0.6128850587054415 -0.8348451186746387
H -2.3234458338250197 0.07031729610519799 -2.4108157657733744
O 0.8901587460306137 -3.1912757017650177 1.945859398757551
C 1.554157252776203 -0.5441056404802641 1.8546922577790195
H 1.0460062316475862 0.14644815587148288 2.5199206142234263
H 2.204344431715734 -0.015611689636981013 1.1628133729901344
H 2.0920592619197036 -1.303972801621514 2.4063941692789603
H 0.4083546768664657 -4.0079193616246895 1.7959120588543234
Rh -0.3546667765656147 0.692077865590769 -0.6899329627342892
I 1.278428208668975 -0.2828940203181228 -2.5701629714410075
I 0.07750108064349298 -1.5770862328326931 0.7218100869545693
O 1.8747242832627162 2.88594532007661 -0.9068980343405721
C 0.9855741203708905 2.155059177609354 -0.6086453214675244
O -1.06551834806613 3.5976579874973513 -1.1969191676262716
C -0.5272008285874366 2.5569252930857735 -1.2315449508413516
