15
## STRUCTURE-ID: 6456b71445f38d16ed6cdb45 ; CHARGE = -1; SPIN = 1
C -2.6871797238759005 0.6535513706937787 -0.0634550134542292
O -3.7182709178653233 0.17635602124610802 -0.19884643065336421
I 2.69339122755802 -0.33742408755254116 -1.869713517263516
C 0.19008361208471938 -2.1713746220069576 1.4397998682714794
H 0.014963394165192465 -1.5621171607261697 2.3174306393704276
H -0.34761316160661493 -3.1097154342011772 1.4880115064889037
H 1.2478051409384483 -2.3402076515728676 1.2739490785862955
O -0.2001723023327092 -2.37784624456575 -1.500480232645584
Rh 0.8641853928006132 1.051154770038403 -0.5660829386474168
I -1.3905036221818814 0.9184283293243847 -2.5888821374160242
I -0.546273148073059 -1.1011917832171925 -0.26650833433015125
O -0.6270727891865753 2.398080617320585 1.6549448241245492
C -0.08703674313409118 1.8856813263846162 0.7847654195267908
O 2.649124531612306 3.3942205641469516 -1.0650635473865029
C 1.9445691090968797 2.5224039846877466 -0.839869184571616
