36
## STRUCTURE-ID: 6456f685c3f7375d1932baf4 ; CHARGE = -3; SPIN = 1
Rh -3.017065094951781 -0.5993987013288344 -1.4691636944238238
I -3.2733296597829953 -2.295795166705894 -3.497948498799352
I -0.8469511234513969 -0.5007056641765093 2.3770072578639114
O -3.948402748024043 0.5573403485515075 0.9168067744385898
C -3.1192924521028056 0.6966683978796647 0.027933673496794372
O -2.9785173245773073 1.6725216844034667 -3.3608065954035826
C -2.9495300500807264 0.7875874629001828 -2.6222504451060478
H -2.6907862461204815 -2.3152666968627456 0.08397640917530919
I -5.848282658351574 -0.8521942251642657 -1.0374828513382688
O -2.3277813212276004 1.8241783273892773 0.0825022650566269
C -7.091657781016746 -1.1774755884024606 -2.8721914397150226
H -8.00724425416298 -1.6628627178280113 -2.552366664823099
H -6.513830330239913 -1.8078641922934775 -3.5424442526922113
H -7.281442228860093 -0.2031525773461824 -3.3077946062944537
H -2.5901586831905674 2.3983308072596707 0.8379910915172218
O 5.3628766881711964 -1.8758444600619406 1.7714582342827991
C 5.369372718523274 3.353293106152858 1.9421657044218386
H 5.819556793140879 3.119126750400057 2.8995653723481842
H 4.319627108746711 3.619168983514791 2.0350964258371644
H 5.934734607289162 4.095023333302397 1.38914694137273
H 5.774733955637741 -1.0696281613780725 2.14298637403816
Rh -0.028618680615127293 0.47190742732537716 0.025968809186784833
I 0.452627881236171 1.6304503497862162 -2.300442431751683
I 5.423519804644767 1.5055019405647465 0.7387901267481423
O 2.5476070444758463 -0.43585035496597585 -0.6847019270181119
C 1.5650146880294964 -0.725271621343541 0.04449111058786536
O -0.4645784002208724 -1.6850439356028675 -1.7870354599711065
C -0.9157408970443991 -0.7862354924792685 -1.1405930378828988
O 1.2337507158080823 -2.0307489660018136 0.29280924907616984
H 2.126185472246569 -2.4995242728239653 0.38021561769375184
Rh 3.1339630958525704 -0.01891116984076106 1.375391061374595
I 1.5658732200832919 2.236584516897197 1.27853425096271
O 3.630875782821225 -2.747134737034905 0.7743571070339466
C 4.108577553973947 -1.7386986902076593 1.3079879913554118
O 2.6269174345008524 -0.6166797271772538 4.265221865154186
C 2.8973953688398977 -0.3233963173008999 3.1848181921965817
