17
## STRUCTURE-ID: 64568a6f7d7db77c27399e40 ; CHARGE = 0; SPIN = 1
C -2.3190095637443866 0.3472317115031667 -0.41707516966325703
H -2.9024882457466568 1.239451214123123 -0.19748946674665033
H -2.2747399524508043 0.247058583957882 -1.5197708059122066
H -2.83464571733101 -0.536012500429341 -0.043315120208270184
O -1.2472750996841948 -0.6234853669581296 1.8779801602848707
C 3.4258303873262466 -1.4364921901174483 -0.6734963345031392
H 3.107004529550027 -1.801349581835279 -1.64385111766004
H 3.0762965163462606 -2.087558922568411 0.12040378780500627
H 4.499778042761741 -1.2917621982753837 -0.6317990642370953
H -1.4093259649151395 -0.5675805611175802 2.8407588754852235
Rh -0.167263067114736 0.4016631986960142 -0.39108474948767075
I -0.14298451562791076 -2.1718452796158214 -0.8195573019882347
I 2.5224593504181025 0.5215382304395683 -0.37231944902151565
O -1.4880627970945526 1.5994446961689355 1.839081815305957
C -1.2780196763489706 0.554045786706489 1.2714898690291803
O -0.32914532612281977 3.3661606500623984 -0.6999149054433876
C -0.23840890022126432 2.239492529260207 -0.5400410230386163
