14
## STRUCTURE-ID: 64567b44dcc2df435b2cdf8b ; CHARGE = 0; SPIN = 1
H -5.1160442895705165 -0.4470421741933737 -1.0248517392255396
I -4.31562936751749 0.3443458563157419 0.07156202714720494
C -0.6279039053317321 -0.07908884400104725 0.018385912773001487
H -0.9134100697496552 0.5650455695753457 0.8553218654533187
H -1.059686132181094 -1.076353856812191 0.1389455090374376
H -0.9231874770073133 0.36866509703570083 -0.9290869739734952
O 1.630742460857316 0.592235463022684 1.946267489223858
Rh 1.4549076253828794 -0.32765865511858594 0.19269893083118161
I 1.6868994660270262 -2.513612567903654 1.5634746274774167
I 1.2023361724903938 2.4451492768771526 2.476139063309436
O 2.0310275114307337 2.3086519158751764 -1.078145327802754
C 1.7452199134427167 1.2940744866421838 -0.6656858386118892
O 1.6655802665222466 -2.083180942795057 -2.226893825604212
C 1.5391478252044921 -1.3912306245200634 -1.3381317200349925
