12
## STRUCTURE-ID: 64566833e9871b763573b9e3 ; CHARGE = 0; SPIN = 1
O -1.8922159799119347 0.05243769957434103 0.49021571645589695
C -2.2324040138427153 -0.3679597167139724 1.7769782160022027
H -1.8869866860099946 -1.3937921897550472 1.9307714437463648
H -2.190013566462722 0.9732769622712273 0.39184841850484575
H -1.8211433631193097 0.2711557369307439 2.5692857124783437
H -0.6940700009372752 0.1276114710183596 0.04172744949780365
O 2.270035199296789 -0.8793721853986538 -1.4504419018013714
C 1.778973894451053 0.35747589862557105 -0.9986303549630245
H 0.7574589850619992 0.2482953058505841 -0.54746617748735
H 1.7307342635627854 1.0980965698599123 -1.801843809986799
H 2.4612367788749503 0.7062241967325542 -0.22506054822491126
H 1.7183944890363771 -1.1934497489956193 -2.1773841642219947
