15
## STRUCTURE-ID: 645688763189a26aa061a6da ; CHARGE = -1; SPIN = 1
Rh -1.465934486518186 -0.16896155102470403 0.2757630599401523
I -0.9705026580528444 1.8119122203079463 -1.614480267536096
I -1.7137830895770838 1.3517907970251375 2.614677663672084
O -4.381447267970939 0.305647767756472 -0.08507833040152672
C -3.2647903522849466 0.06122817562808786 0.04271472594545022
O -1.7338611623477693 -3.131905795710236 -0.20333449955777477
C -1.6086579643573768 -2.0037402601537746 -0.002259551940606119
H 1.1927911599649603 -1.9688476153978791 -0.00613507953514322
I 1.132066867690047 -0.3604221152346696 0.6745120861333196
O 1.535399292424807 1.63522999001389 1.0986760378507319
C 2.399113977293534 0.07104761242255295 -0.981457022471618
H 1.8101142727317823 -0.05129342968020255 -1.8839140039324467
H 3.224870379676348 -0.6290329054298499 -0.9467762189092452
H 2.724766205430245 1.0963967816993672 -0.8695496720749811
H 1.119854825896211 1.980950327777333 1.8866410728170349
