18
## STRUCTURE-ID: 64566fbb7209341e5164e488 ; CHARGE = -1; SPIN = 1
I -2.186426046067115 1.2629920067499032 -2.123541783457582
C -2.0611806127216603 -1.7265934577229207 0.06862157168728253
H -1.7912119815573615 -0.8409933805116916 0.671421964518269
H -2.0893613867270613 -2.5955804922898427 0.7126603529137792
H -3.0315968965908535 -1.5491149608576118 -0.3747039018568361
O 2.3533319987905656 1.9103721162400717 -0.252464726533778
C 0.9928386747666071 0.05575388886971084 -2.4835953907563217
H 1.3843997905486334 0.57775234357717 -3.3664610505999653
H -1.3318845919946718 -1.878664351614684 -0.72090110326556
H 1.845378065498528 -0.43805404576337964 -1.99922855131216
H 2.606104737022402 2.8263572006181037 -0.36255530780052764
Rh 0.12820655059198566 0.5520213639990397 1.2459466754215438
I -1.3866525526177 2.5404859817984122 1.889527903969123
I 0.45568882520490794 1.5312785502829558 -1.1404972980289454
O 2.341427088286714 -1.2577960297743183 0.3999546667880723
C 1.4388962335985054 -0.6288397474192395 0.7349099616757392
O 0.19182916467524833 -0.3258783919022864 4.100814724369747
C 0.1402129392923525 -0.015498594279347537 3.0000912922681664
