12
## STRUCTURE-ID: 645668466f610210374efcbe ; CHARGE = 0; SPIN = 1
O -1.95972874295164 -0.8392191385861666 -0.41901242583600273
C -1.6053471492736513 -0.013366968493586054 0.5501656965064733
H -1.9942614680136102 1.0067821649398787 0.5220052110579307
H -0.34267621966256545 0.2054094374128535 0.4847939028698023
H -1.6636847754776918 -0.49953196787061305 1.525249631491642
H -2.179062020260722 -0.4071315296559296 -1.2628571937897541
O 1.1457088660889738 1.246601742821962 -0.5999474369771317
C 0.8813834072857807 0.5439769884322772 0.4936946981122003
H 3.9877894461204684 -2.713357778540023 -1.9289563565066479
H 1.3748528217552074 -0.4225587421902441 0.6079045345893993
H 0.9089694098599208 1.1754975620310681 1.3832175698175282
H 1.4460564245295326 0.7168982296985258 -1.3562578313354454
