12
## STRUCTURE-ID: 64566736f5071c491b2eaab0 ; CHARGE = 0; SPIN = 1
O -1.232939798569237 -1.3220035414871345 -0.6128021929181942
C -0.9126757072385566 0.13787879791220978 0.98691531538748
H -0.42033902376816984 0.9048570761566301 1.5821024961743781
H -1.2384562342364387 -0.7092933817707148 1.5600070177344916
H -1.655896741547397 0.5352381912605599 0.32186632146479743
H -0.7237339150775232 -2.1094392743289547 -0.4129296049055503
O 0.7467322728473321 -0.20541926882539593 0.25515535661143796
C 0.9716210257310968 0.5549748456860166 -0.9252505481624911
H 1.9448722481043133 0.28854185818148986 -1.337074108471764
H 0.9189624438890165 1.6267813269911149 -0.72752384408129
H 0.18435008947059248 0.25895175146171767 -1.617161450781926
H 1.4175033403949397 0.03893161876230618 0.9266952419487285
