21
## STRUCTURE-ID: 64567932aa37a91d356aac5a ; CHARGE = -1; SPIN = 1
H -4.525205198170388 -0.5134143354185923 -0.3069439979120231
I -3.081655295679233 -0.16443198989894098 0.48838489849432265
O -1.2183305396305641 0.6430255429941443 1.5150127708910635
C -2.9970983768512838 1.534077859316518 -0.7882723282683082
H -2.8322341806009304 1.1714615555985304 -1.7957499570614546
H -2.157887858739683 2.1313523671221053 -0.45935301913055593
H -3.9290019574317876 2.0749779189900406 -0.6838915479165469
H -1.3016147222959615 0.43787981545146976 2.4486585660300966
O 1.5205214248214896 -2.091880692352806 1.1495508392781388
C 1.923070336978253 -1.08834714444455 -2.187063126400343
H 2.4735068120564625 -1.4123597845791926 -1.3108776494117376
H 2.3321990922566647 -0.1600131588388651 -2.567179824555963
H 1.9039947657438911 -1.8547659944817911 -2.9502518810843856
H 1.5237415241912045 -2.8794620260629364 1.727965240484131
Rh 0.9618361105116447 0.7033197623758634 0.8550620639014745
I -0.07835331777986285 -0.7096480688932032 -1.5567120518334885
I 0.6836327046926776 3.149380770843943 -0.1665438776507136
O 3.930676387501298 0.48689286917999147 0.8611392874621547
C 2.765333730792819 0.6299586156876472 0.8040576267561511
O 0.9485616627554212 -1.1190701381793924 3.0659711398257
C 1.1543068948778927 -0.9689337444099986 1.8570368281022762
