12
## STRUCTURE-ID: 645668739a7753434e7b925b ; CHARGE = 0; SPIN = 1
O -0.0336069957949218 0.2732430308416188 -0.14751289835387515
C -1.3532606693548532 -0.14479946302312136 -0.423180369250879
H -1.9842595967123 0.27334287124229406 0.3575094438023563
H -1.4286332925260687 -1.2376560602734237 -0.4111551331766241
H -1.6824572183229556 0.22499303770104395 -1.4001446130003223
H 0.5162981731356259 0.21724199107541725 1.6975223985265127
O 0.7872324506430003 0.29205326818792526 2.624845971774508
C 0.898963253141467 -0.19646925725605244 -1.0971233250156553
H 0.9226115436263763 -1.2915938080954172 -1.1146311678576393
H 1.871845914662335 0.18510286431524658 -0.7964892089902158
H 0.652800820737227 0.1711901696563692 -2.0990570552184558
H 0.8324656167650628 1.233351355628098 2.809415956760288
