21
## STRUCTURE-ID: 6456760ef26f533dcb2726c7 ; CHARGE = -1; SPIN = 1
H -3.556503205165693 0.09441815932792738 4.6217677892700095
I -3.9682187805957887 -1.0628917724688833 3.4821260520297432
O -2.3906645034068927 0.20891001488322467 2.8367184358833093
C -3.6612434485196266 -1.9484780866180755 1.4953862718915296
H -2.6488666871439914 -2.32188158903425 1.4159153596794762
H -3.833550542566317 -1.1926116649760217 0.7411105399030242
H -4.38392239704228 -2.7493140009416113 1.4199927221251765
H -2.0011336853236728 -0.013110949026051668 1.9934164610073881
O 3.1249261943022737 3.467126687206323 -1.2660870223108238
C 1.868841274874814 -2.008336035911088 -3.1774374119352684
H 0.8348809789270382 -1.8164685057897847 -3.440682002943627
H 1.9274525052506093 -2.6562636972674643 -2.3099980549414583
H 2.4299906479779456 -2.40535190890859 -4.014680830361484
H 3.9444330484698926 3.9676393333828974 -1.0806307677635387
Rh 1.5387922724614327 1.128559958978781 -0.7028348458205181
I 2.7868610277625123 -0.08314013865982917 -2.635975470052747
I -0.33508698338797166 -0.6762383899493478 -0.4636753087384656
O 0.425449949420609 3.2816367946264213 1.0322513704342986
C 0.8053069905029429 2.4004382547568652 0.36973301286010235
O 4.01434250257214 2.064336626347613 0.22181501872473947
C 3.077912840630038 2.321020910040893 -0.5382313189409091
