31
## STRUCTURE-ID: 645713ff7a1ad333a1374184 ; CHARGE = -3; SPIN = 1
I -4.7761821502121755 0.6254794294035421 -2.966383115801403
O -1.4696512604870724 3.2160257861333563 0.30489089321402457
H -1.3106877625109317 4.057658088394786 0.7337607004612253
Rh -3.51639366138244 0.8886499316125325 -0.7480343815940427
I -5.569347353013616 4.375270055185017 -2.072909021621428
I -3.2339102312681067 3.4547302354588534 -0.8551605081033588
O -2.8966781705835216 -1.8487154194807442 0.17326830602752827
C -3.3487444362149503 -0.8819343288466804 -0.2786054017646337
O -2.3567984250802443 1.0855086171978643 1.9923718719237506
C -2.8524445451475544 1.113867888592765 0.9465066040741839
O 2.386467824318745 -3.5914825578073954 -0.29746746871590196
C 1.5689606906433182 -1.8495822100845472 2.7773331181177037
H 1.3534080678693996 -2.8661903655980456 3.08375405895436
H 1.682409564322532 -1.1893784667877405 3.6319279950245105
H 2.44187079034741 -1.7997331592645354 2.1339080162411763
H 1.5575036625610417 -3.7358293632480124 0.18344878949060242
Rh 0.5534585807861451 1.2889480301402043 0.7129053002346724
I 1.2261504337452398 2.054742981141173 3.153134207192101
I -0.11684673076077455 -1.1471423568187482 1.6247370114571908
O 3.046781572302957 -0.21058938109593517 0.3681606559175217
C 2.311152404207925 -0.16639027806157905 -0.6431931471070083
O 1.7974234962037083 3.724025924477353 -0.4107782011611311
C 1.2861589633279191 2.7889515325794627 0.05556573797016724
O 2.803285940750554 0.6188254722063404 -1.6849046987820366
H 3.7073235254772814 0.9297631565432307 -1.4877700195574837
Rh 0.7496740472831912 -1.2906231399464079 -1.2215185428014157
I -0.6486113802358674 0.943716492642526 -1.8271738790810332
O 3.2712018633434137 -2.4837783490141443 -1.9772570068320192
C 2.2865877376474697 -2.558033695992961 -1.2497088425994343
O -1.402343199077877 -3.102889027057348 -2.2800868355116948
C -0.5311798591630054 -2.4438715226042973 -1.874722195266383
