34
## STRUCTURE-ID: 64570403cb733c1c1c6cdb40 ; CHARGE = -3; SPIN = 1
I -3.778267638487843 -2.51243667597553 2.892151725518849
C -5.725949413145402 -3.1321552295902664 3.0512164781204407
H -6.489644490148812 -2.4194248137682237 2.797196258264709
H -5.913803403323487 -4.183006389581608 2.9155563669246387
O -5.008197647609996 -1.1708604993270033 0.3631260955664046
H -5.692024507049888 -0.6765471750211907 -0.136847177126104
Rh -2.4367946253284987 -2.3662179095615485 0.5380348450669843
I -0.63353448857086 -2.2027005074896047 -1.9015275685110296
I -3.719678139404346 -4.506785000292522 -0.32699927213042074
O -3.7658069532994216 -0.7899498687430057 -1.4359384148734216
C -3.874408281179692 -1.323570270871154 -0.3411872421239473
O -1.6900170364390434 0.4946691454059589 0.7167467089598715
C -1.879907282861308 -0.6498621075187048 0.8316640465277869
O 2.7088721715278052 4.739212640388579 -0.6518635999147046
C 1.0986375957280332 2.1527588296933855 -2.908760556962402
H 1.0075787413612873 3.231753137617449 -2.872247922719117
H 0.37291519803966094 1.7135542055681392 -3.584151715937617
H 2.1070392558322726 1.8617589808751485 -3.187478021807047
H 2.055409017785407 5.045859466853539 -0.0023484493751593934
Rh 1.5794822042974832 -1.120329007483988 -0.6630723552114365
I -0.37298147356219796 -3.754894746123111 1.7602499100401519
I 0.767330060534776 1.3647038426858253 -0.9448669439652723
O 3.802712941567728 -0.10656311396276925 -2.0915343039142096
C 3.3503370832884367 -0.2517551260594731 -0.9519860708246649
O 3.1522948575556553 -3.6329332905148024 -0.3358977480061021
C 2.5182558861494484 -2.6681480550251653 -0.4691656744047117
O 4.0763422415169455 0.2741936557703392 0.08157678801555555
H 4.8913304191490585 0.7001059838092344 -0.2558780288502464
Rh 2.3810848426044635 2.253448555105535 0.9061086597314398
I 1.3055291474081296 0.13085184990229007 2.199267689673929
O 4.043362802197401 3.055141410417175 -1.1444486104781921
C 3.173441402613106 3.474518864902288 -0.391223178774855
O 3.5071686892390894 3.772060903531996 3.22859865327645
C 3.08189082201445 3.2035483143827617 2.315928630223643
