34
## STRUCTURE-ID: 645739a652344516ee374196 ; CHARGE = -3; SPIN = 3
I -3.1853317737997484 2.0219892673088897 -3.1292976872747675
O -3.0109878378126886 -0.8995014150829992 -1.7114722915862353
C -5.372276267114166 4.851115697925517 -0.7055226820920564
H -6.137879941734566 4.105332591127003 -0.5890838982130365
H -5.510736585382741 5.770542556567986 -1.2408733067046298
H -2.7827321966799627 -1.8517257235515467 -1.7209871409198012
Rh -2.918748948947327 1.680005114160589 -0.5332101023565885
I -5.528980936044807 1.0270992580914908 0.039242100020004694
I -3.412973550121509 4.35076468881645 -0.16919831243367783
O -1.6860559973457163 -0.8909926064326786 0.06386226674630031
C -2.406358689539749 -0.23288208106967134 -0.7104048819560297
O -2.096433412049888 1.1212570703861018 2.2753075356111223
C -2.3924450040164804 1.4421246058310204 1.204229637673657
O 2.637423314971573 -4.571450758360397 -0.6519467842212807
C 1.9986006372538077 -1.1010646112217946 3.3785560772077328
H 1.7230988106197205 -1.9891153654371339 3.9333285547225243
H 2.0416920714679954 -0.23172857672259778 4.023568132342053
H 2.941459637320422 -1.2395127697128785 2.862537585486614
H 1.851777268878903 -4.715933473614122 -0.10221645331228155
Rh 1.9229038385884583 1.2880182999096694 0.20649412241208343
I 0.3599806251974063 3.356075188139258 0.7290278825994286
I 0.48067309766085603 -0.7589450510127957 1.8711842314774496
O 3.340975014377759 -1.227038829538637 0.4664971237328423
C 3.0609048760298054 -0.24697981822314424 -0.2650058734765752
O 4.614759396280152 1.656715013848246 1.3997779421574235
C 3.504486265407345 1.6770065418549702 1.0216825551362927
O 3.854977867543198 -0.07599937882812659 -1.384973936777186
H 4.4276456655412515 -0.8589520949015013 -1.5045029809086208
Rh 1.518312687067384 -1.8046406583687706 -0.8741879593759387
I 0.6401408377049397 0.5860504359159223 -2.0974286912610953
O 3.748427154484792 -3.0615415092399396 -1.805149994857303
C 2.7384112523413675 -3.310637954126678 -1.1587639149839697
O -1.0020533672489556 -3.135464888094564 -1.72641521192245
C 0.037344189101149346 -2.7299887663430695 -1.3946536426919265
