39
## STRUCTURE-ID: 64574e4bab398f3a52071020 ; CHARGE = -3; SPIN = 1
I -4.443307063107197 0.22127803287447587 -0.6879808790952235
C -1.0587902245813758 -0.9171708372305712 -1.7369443550593315
H -0.7648522659347945 -1.9628465901132635 -1.7996390737742187
H -2.071818925877639 -0.7940221044639927 -2.1261965490590566
H -0.3922932945839629 -0.33493532708629714 -2.3829395727004474
O -2.166928815455788 -2.8284855668621325 2.9549729888554888
C -6.092074711463775 0.5103620797464571 2.8982921543816165
H -6.958971094876154 0.11111217282854971 3.4109538074367034
H -6.303069130480037 0.7079571202082832 1.8519529086884963
H -5.7009952930017125 1.392287821563442 3.3919291023345868
H -1.6212791546989147 -3.503602333250271 3.408053593383986
Rh -2.624690893708105 -1.1443904450960996 0.7926628891731938
I -4.514154227645833 -1.0289576475804125 2.9765771682328483
I -3.2302841951709786 -3.4722385669991698 -0.3971261471742951
O -1.346819418978564 0.8439620625635884 -0.15761272186168804
C -0.9735141577156382 -0.35300894591699755 -0.31759756054935745
O -0.4279909993244519 -2.939153269128506 1.6585580636529973
C -1.5846872627412825 -2.3024463184195305 1.8853972555988021
O 4.311915979610606 3.0275080428955023 -2.8779275950711543
C 0.4590053937523098 2.975847832568887 -1.5146368382979059
H 0.6881997056462306 4.033988914381761 -1.5316372862430172
H -0.601519107179656 2.807411577342813 -1.3661362292253152
H 0.7832493096992545 2.493879374891048 -2.433394190147618
H 4.924658127398242 3.545165004776038 -2.329275857208289
Rh 0.8470025113743833 -0.47621638892069973 0.6783807093831385
I -0.453590271462427 0.21363256724793905 2.938953772317262
I 1.508594627716006 2.034783703970101 0.06608055976190634
O 1.5921959605066611 -1.650880458033432 -1.9302075918795294
C 1.926848769751358 -1.1223392105689838 -0.8736832789990121
O 1.4420553481549716 -3.2385320061026666 0.5609230229090578
C 0.646098499303508 -2.3803183354686754 0.9246248350927889
O 3.275850443485847 -1.0894360116744854 -0.6131732144902466
H 3.7661518396558766 -1.608387537096807 -1.2801426350964202
Rh 4.0177616262242175 1.461137074206463 -0.35154017785492
I 3.4843956058093997 0.5439250483959583 2.1514668765087888
O 2.994744261978954 1.2615074864449165 -2.8644591419765386
C 3.796525861733841 1.9461996834589486 -2.2257394547121985
O 7.0100935446010855 1.5026871707956304 -0.35972605951248154
C 5.856283091585141 1.512735128851354 -0.39206329772336285
