34
## STRUCTURE-ID: 645724608e3ff320081dbe94 ; CHARGE = -3; SPIN = 3
I -2.9442602156852655 2.3506682209766216 -3.3474663061207197
O -2.527514084816834 -0.9736198929407276 1.156952797069253
C -2.926255638083203 -0.8537812874089657 -2.0257394324285056
H -3.914014812106986 -0.8038587954236774 -2.503319672971736
H -2.937317845121769 -1.7226164311917687 -1.3497851905247975
H -3.478336447827404 -0.8344033528894331 0.9643112234914639
Rh -2.364157158800094 0.9350841528293153 -1.1348735173434052
I -1.1959832728276647 3.074370945043492 0.17767178861548621
I -1.6217292390939677 -1.4884899882365612 -3.621925016491094
O -0.5313021377137571 -0.25045004288328226 0.6133984823602113
C -1.7321248556669335 -0.19496973773541265 0.34835695111483694
O -4.768581276899719 0.13664628029118775 0.2379036210356451
C -4.1274602450177 0.9541304025525585 -0.34592053834276254
O 1.1340534750785878 -3.069535545802664 2.008440824873024
C 0.14895602379731157 0.7071195190496464 3.2595831851095602
H 0.5335275658528941 0.7145276279628321 4.27227942422088
H -0.4258167201828227 -0.19177123517965794 3.063174179086994
H -0.4681967649948001 1.582300674056899 3.0769127522018205
H 1.8323289369497433 -2.943749532535411 2.674937891137127
Rh 1.6917408059016847 2.3488706568388986 -0.23490465606987174
I 2.549769534315876 4.426646498328274 1.1468479208166353
I 1.788004413343153 0.7678940286311312 1.89717683788549
O -0.00967741546808566 0.7344128092127102 -2.010232739805008
C 1.0519696285908893 0.7899930429289191 -1.382139165499863
O 1.8774615899230838 3.559021816843425 -2.94675533539161
C 1.8550432796168583 3.157536328210825 -1.8702104008459064
O 1.9523944187620528 -0.20574991248514207 -1.6058960703677063
H 1.628457274591672 -0.8613781515873228 -2.256304410903133
Rh 2.9169165168810687 -1.2083496718790154 0.6246771859194173
I 4.500779967017416 0.908523797644649 0.11317892007993666
O 0.6812778093776691 -2.673006389741443 -0.12380582478264292
C 1.4386162999550305 -2.462527605021057 0.8131686107820458
O 4.462021545252966 -3.7041207458754104 0.04484204607961329
C 3.929409045099016 -2.7053684825835727 0.2654636360088752
