39
## STRUCTURE-ID: 645704131eebe269e20b5350 ; CHARGE = -3; SPIN = 1
I -4.899177753196528 1.140631349148013 0.5892821514047842
C -5.451420588041585 1.9801886190730977 -1.3651304942304476
H -5.22766964223024 3.040277413561651 -1.3325594808817487
H -6.506135798388777 1.7837961511499458 -1.5104950349311552
H -4.835930065171926 1.4882026166735796 -2.112651205495454
O -2.5439114981336917 -0.7712949556162255 2.738829731929782
C -2.457313659448873 -2.504533209853579 -2.229996397355573
H -3.268326975109961 -2.660745764312165 -2.9303020037762177
H -2.669567313830486 -2.9295512820765537 -1.255853764811238
H -1.5108829385042937 -2.8824236461135095 -2.6009185607318432
H -2.9311506386661264 -1.6240269248721373 3.0244057729599176
Rh -1.850948274706989 0.7959110364274549 0.41420562807573635
I -1.718348389832912 3.1060321631196524 -0.9441874495069322
I -2.2364398336586695 -0.36668463662801665 -1.941807359637868
O -2.270057874104802 -2.0140067338871144 0.9048357984316382
C -2.07617101739547 -0.8989183375800872 1.4186724044790266
O -1.1705064781333456 2.164857141086238 2.967022941639504
C -1.3398821448116325 1.5698251123913838 1.9716217269388783
O 4.038803459794854 2.5485254171340417 -2.042379086724714
C 4.814673418390089 -2.5042189627764344 0.007564511855087104
H 5.828849235944585 -2.807741551572492 0.2324316512229372
H 4.198142997941451 -3.3309434343231046 -0.3260066407894869
H 4.355344237874393 -2.0064578349746007 0.855431651067394
H 4.092622414649485 1.9169173278714855 -2.7797396458746255
Rh 0.5618009699937282 -0.9843780154203811 1.9668670655619638
I 0.14044533198827902 -3.314332969509737 3.2339970215166125
I 4.893150034727749 -1.0746925777436167 -1.5959814937979944
O 2.944424891942491 0.28576981229183657 1.197287230353812
C 1.69715330353178 0.5296976695709091 1.3206902543093506
O 1.2196068479590305 0.7538052526654385 4.285746640175269
C 0.8545120993629184 0.021640613240740125 3.435594992409909
O 1.361398838347382 1.8636832103553314 1.4948058935270525
H 2.1023685695645704 2.390555349873004 1.0909211693348706
Rh 2.3605415721629126 0.3828007180928713 -0.9571600750115348
I 1.105387993363037 -1.992416654294646 -0.4325188158847867
O 3.2010260771546313 2.9469717661561603 -0.06404742106628056
C 3.2340193522010803 2.154747152803773 -1.0130165678611707
O 0.5864362841746672 1.0132841245418782 -3.2673883568539623
C 1.3731329522971747 0.7892474743253379 -2.4480743819704256
