34
## STRUCTURE-ID: 64575421d4ab1f12ef19eb69 ; CHARGE = -3; SPIN = 1
I -1.957820648668309 0.38240510165922975 -1.7642684978281487
O -5.617630663918439 0.23541255714560894 0.21768077299570227
C -1.4301490328061346 -3.5997851324112586 -2.1137795537801667
H -0.41230290937664305 -3.1773822689323135 -2.137389569083861
H -2.0220262017847532 -3.1023733638378888 -2.8906887915232384
H -6.518846569018712 0.16619012766326244 -0.17482876631795108
Rh -2.9778963398101355 -0.6625118407678411 0.5446204516722016
I -2.285143943777616 -3.1510328103249234 -0.25837734670818846
I -3.9368300510680614 -1.9914998478406818 2.6032674028586196
O -3.133009714846487 1.737652245387767 2.301366028095706
C -3.2167539825325613 0.9510447022233106 1.4705029048803606
O -5.0897431353407665 -1.5300801498259693 -1.0443986473182563
C -4.796990345802331 -0.69823129810698 -0.21993529306212808
O -0.5912216029069737 1.687345285643634 0.9800550461173595
C 4.278332189459408 3.422513318085599 -0.9800188686986752
H 4.50737265972949 4.4831503887531134 -0.9889726130620933
H 4.070068224630748 3.043269082865644 -1.976360363826484
H 5.041137493422595 2.838157438442961 -0.47312562177017087
H -0.015874666121634254 2.41263872793905 0.6919728939510229
Rh 0.6921696227452775 0.36869945558266776 -1.2299646513252251
I 1.4526907346495723 1.6281086487698226 -3.381292609150568
I 2.4292850216999002 3.1983940619413964 0.18554182963291357
O 0.8237213292860904 -2.149024851191822 -0.22663637932230984
C 1.8158006221924328 -1.494186594957149 0.17989896000541225
O 3.303109744086647 -0.8366408529022892 -1.5253608986442095
C 2.3734606277826154 -0.4144767955613025 -0.822864989021238
O 2.7813195879904864 -2.2509788712165872 0.8307885603576517
H 2.4891030137160213 -3.1748702745751642 0.9136647501074996
Rh 2.046094469929131 0.3544677570274078 1.1006649340549914
I 4.628010221362082 0.2883051052796252 1.6101236040175682
O -0.6829972500304492 -0.5284954567727732 1.262561978264126
C 0.05029171265386247 0.3976351058597551 0.841852961412769
O 0.5961592376614782 0.5828801648862915 3.697659090556018
C 1.307110544812078 0.5833011340688581 2.7760412914630255
