39
## STRUCTURE-ID: 645711613703241b5b304576 ; CHARGE = -3; SPIN = 3
I -1.2044737379379802 -2.4700712912239706 -2.020694639667878
C -2.85317830740608 -2.867093100523121 -3.4409327399641345
H -3.4757796918569843 -1.9779402856126433 -3.468546595621926
H -3.406978098011484 -3.7187158223966783 -3.064131490823493
H -2.398018211531593 -3.0720431129836228 -4.402797638124912
O -3.450900101129534 0.6261063180797968 2.2580434182585054
C -1.7412318442099746 2.9734862071557067 0.3968106295128826
H -0.8962174660731972 2.600831068944235 0.9685610256308183
H -1.5979455969204153 2.7731811706236993 -0.6572827021814427
H -2.6567777079877115 2.5131483802994685 0.745570493900016
H -3.4132780314729865 0.933852613352684 3.1872764871917147
Rh -2.2423841836208602 -1.0244064598240001 0.11188495165844399
I -4.1065781921229 0.26040646593210576 -1.3051773454254443
I -1.8931958049036934 5.046482321772787 0.6713469144974404
O -1.3981174400390157 -0.08332485760219162 2.731331580707412
C -2.3083928139032293 -0.02982102018704983 1.885989855112919
O -2.9926922314527413 -2.908935942108161 2.183413863125452
C -3.028394309458492 -2.498050614135936 1.0654947849281067
O -0.33761885382207596 1.328797273418536 -2.1749895495947222
C 0.6658350499602651 -2.442645767361531 1.5365684691578336
H -0.09068627950630281 -2.9861363740500524 0.9738563223343887
H 0.23602455528093436 -1.5412776205931782 1.9680797311985971
H 1.0472378367080484 -3.0708003092431237 2.3365191038493687
H 0.0790518640336133 1.5445366104925764 -3.023030285275559
Rh 3.845346236767896 -0.14577089192214143 1.5041085778613865
I 5.162495238592302 -2.0555886508813748 2.7485259314545702
I 2.250953170553619 -1.8537234575901043 0.30208650515372143
O 1.62216245736029 1.7201426174076622 1.4553533525271027
C 2.676260339949279 1.3568526818245925 0.9021762764392526
O 4.753207188486083 2.236731701995139 3.0233985441736952
C 4.520272298700862 1.2545284163235777 2.4436805682625233
O 3.217852627970872 2.227706156798819 -0.02678381702560676
H 2.7243730102798893 3.069465394244574 -0.07766770731582816
Rh 2.329300913991305 0.0036301320501269455 -1.5548449697641846
I 4.8321471855628335 -0.9064359760034076 -1.316770252299195
O -0.13610002906899735 0.14813253387888192 -0.327945069303213
C 0.44362800950229136 0.5343518763206107 -1.3521157131192922
O 2.6858050047676154 1.5543960357306892 -4.076527469776707
C 2.5369859439682365 0.9460155775958833 -3.109839401652699
