39
## STRUCTURE-ID: 6457229c6915520aff73b9dd ; CHARGE = -3; SPIN = 1
I -3.2228300852137477 -1.7767355012889468 -2.0908280747718613
C -5.376311920844603 -2.368498284500435 -2.1717425504115244
H -5.480098305974463 -2.935478764262501 -3.0918933694320687
H -5.955943287553241 -1.4444901359216105 -2.186749454023455
H -5.579105744964559 -2.9687498522877673 -1.2928979396962594
O -1.4065163607543918 1.1577159438701399 2.2256329507965193
C -0.43739893643167327 2.5963139246846256 -0.3658053173169293
H -0.4723991558991493 3.218744152776743 0.5373715967135677
H 0.01848227353562801 3.174588991615779 -1.1781359243219414
H 0.21678674194043737 1.746824303820829 -0.15264724978989677
H -0.7209568156987907 1.3915661532448271 2.88727687483423
Rh -2.1758608947453353 -0.5843215626547036 -0.017208608101317253
I -5.070544817178009 1.3359865168478884 -1.5451215664289843
I -2.335171664353319 1.927860710867182 -0.8434960850601063
O 0.10180444670672557 -0.393796992273371 1.6346605152726528
C -1.0095074497195733 0.1087438955499937 1.421645346799795
O -2.4230019154684284 -2.5305153598612464 2.2088172549321143
C -2.396751405464192 -1.8904371769726027 1.2385198643844348
O 0.0006710213581032963 0.7159565830334375 -2.8930378541174777
C 1.3699726782780748 -3.1642542498748094 0.3472153784393515
H 1.1850824262183917 -3.6211620844181946 -0.6181145438614225
H 0.4662133195429816 -2.684191005353303 0.7105038787556358
H 1.7233165626548976 -3.8881869534175277 1.0725787409180092
H 0.531365840107686 1.1266965204241026 -3.5876922500969175
Rh 2.0846438554199187 -0.0910519744404811 2.5655562725924934
I 1.7913355649021552 -2.2694942594767915 3.975243748093168
I 2.8956721521934954 -1.667766803035586 0.10560227358523713
O 1.4832445616989969 2.7120639421711883 2.165685357887807
C 2.125926620204049 1.7221521474983505 1.76521375511221
O 4.454818144611101 1.208492267521267 3.776724420556207
C 3.570706079919319 0.5794614659805701 3.345925375108673
O 3.030973370604324 1.9845609766829864 0.7386974494736943
H 3.097146910652763 2.944041522709307 0.5633535305583212
Rh 2.709491165604683 0.30657678194397875 -1.581031250347658
I 5.3184582941829985 0.13148482188079372 -1.282791469684136
O 0.0633992047744578 -0.7532716295443819 -1.2693285992059338
C 0.7636137927663509 0.023861589517387295 -1.924628572725628
O 2.446634480047425 3.014687921030995 -2.758343912193096
C 2.612639252342337 1.904021455917463 -2.434729993229793
