34
## STRUCTURE-ID: 645756a403f55b0309390829 ; CHARGE = -3; SPIN = 1
I -5.3480317589643676 -2.707118694727204 -2.145298972769084
C -7.279230447086319 -1.7645120815251116 -2.574091968974137
H -7.066791942412762 -0.827897071998179 -3.0816357355252406
H -7.766387928470672 -1.5820298657619603 -1.6223210409111084
H -7.8330447737530715 -2.452749749162995 -3.2002697233396837
O -3.051754660217626 0.750808742023098 -4.591404830302082
Rh -3.6718208645785317 -0.19815941450003136 -1.1041891047795351
I -5.877487821845087 0.7331900070119362 -0.142815019513822
I -4.3611827594072174 0.9909706731940631 -3.2797152742245244
O -1.2541534368070877 -0.6039356968940901 -2.804052860298972
C -2.1443622683013928 -0.5329659324838797 -2.06714129289015
O -2.2754428250272545 -1.113421442983462 1.370928990259092
C -2.9402991140995756 -0.8211118665527704 0.46675844622881246
O 5.891514062187234 0.8345291501835898 1.7889552588327227
C 4.458217661146281 3.018755468399329 -0.6115286371556358
H 4.804720664493976 3.9419654534307793 -0.15852933463574492
H 4.089318946768333 3.187089187427046 -1.6172877206573921
H 5.2183370680323256 2.244480807826607 -0.5961814315791787
H 5.6871138071072656 1.7340616636132713 2.1040676226584267
Rh 0.39340773999980805 0.5334365850937232 0.7346502183630446
I -1.3923541104517265 2.328781222681033 -0.16226255991217997
I 2.733664312750088 2.2879425221610385 0.6162973690984551
O 2.6585127769615258 -1.0700397998051727 0.19084593986160045
C 1.774556874235287 -0.8375978244609005 1.0399706317388218
O -0.10886955552489601 -2.0147657979718376 -0.7135673683656549
C 0.01916104068821772 -0.9090213160596627 -0.31536987411439343
O 1.4979843193918692 -1.8584342666298697 1.9466159898741222
H 2.1210015921729184 -2.5913642445167815 1.7958461920254172
Rh 3.104178352720609 0.541982102223209 2.5723620743260946
I 0.5796367881320384 1.4191329890324647 3.267363849975709
O 5.138056741695927 -1.2336299354749445 1.7423691805934987
C 4.881113465161439 -0.06768785957991844 1.9954536885761227
O 3.792647081386943 -1.016192376872448 5.029662748176515
C 3.528070971915377 -0.34449133634005685 4.125514549360257
