39
## STRUCTURE-ID: 6457503fc8e78a2fa6248ae3 ; CHARGE = -3; SPIN = 1
I -1.9248531376172395 -0.2234874002436683 2.9874865249752385
C -4.705939903982596 -1.1948035433521025 0.48112851816695834
H -4.5796797478476385 -1.8275337735203108 -0.39885439465077693
H -4.32308148498997 -1.7443747503750053 1.339354047135125
H -5.75664070400345 -0.9491484965104982 0.6208711455396321
O -2.001018447778025 1.2607317612815951 -2.253573846119199
C -2.7592723213066037 3.9008610581576417 -0.7369065364056403
H -3.7453657241204334 3.4499811226829458 -0.7595901809028052
H -2.3129525917403937 3.941590002982018 -1.7230302088762925
H -2.764051679761696 4.867667549743418 -0.24482788245302445
H -2.1995396643722405 1.2524559474996204 -3.212806869031365
Rh -1.9855556071136091 -0.024657998998725693 0.2762197961270926
I -1.5088759208805946 2.5813122241781237 0.48473625199720316
I -1.3155990173065597 -2.7189592034405456 0.004568545883908847
O -4.460362070018635 1.1398366480376767 0.009086795508233953
C -3.946529502378653 0.07794945795700196 0.24146039884930007
O -2.7973407237100516 -0.812982682947693 -2.326752567773137
C -2.2908460034689564 0.08547628675133331 -1.674735001482286
O 4.180502150989752 -0.31308765366258634 3.3303595174398932
C 3.506731610801068 3.1363717716910244 -0.4475407905580391
H 2.61292727920806 2.793673406082539 -0.959847851239329
H 4.108426132920922 3.785109537557609 -1.0717724096154144
H 3.2579260331260502 3.5961966459492216 0.5009157904588668
H 4.20593242355368 0.6264149238094464 3.0812031773093067
Rh 0.9561097974977467 -2.85853900547894 -1.5929850250882553
I -0.3197543172913742 -3.098498794244392 -3.9472740232252024
I 4.713109320497132 1.3593225940210585 -0.022649250573162565
O 3.3447757665921385 -2.2114292295737137 -0.11889618438665381
C 2.181896356280718 -2.70643148693393 -0.07727957943946771
O 3.0754273960746947 -4.955887709027382 -1.4971179364751923
C 2.196033877515212 -4.191296383392233 -1.7154121445947492
O 1.8696005242171512 -3.49274566640729 1.0167175236856492
H 2.4970786369674287 -3.2338234515841933 1.7477535202845096
Rh 2.5142526904241507 -0.41992943982959025 0.8721445132444238
I 1.2288035185191524 -0.06491399124338468 -1.4943331226933254
O 3.3935901633540047 -2.2893835332408634 2.8284205102590874
C 3.391264409420344 -1.0884341395469437 2.5188570483102013
O 0.9021676156722984 1.713625169550718 2.1749390934004604
C 1.5607028660558362 0.8517722256191697 1.7599630870094454
