34
## STRUCTURE-ID: 6457342bf24a096d5e3288a4 ; CHARGE = -3; SPIN = 1
I -5.671850617947356 -0.34227439342045124 -1.4381794985821157
C -7.410583369956085 0.698691714689767 -1.7428473597025964
H -7.747256686800178 1.3423044424596384 -0.948582009930988
H -7.661319852646826 0.9394826211488492 -2.7617280268135067
O -3.279593552199394 -1.8633000783210534 -2.419593148558848
H -2.900152956778273 -2.6102517527806883 -2.9234939222676593
Rh -3.208858862193914 0.867736667895806 -1.574210325695614
I -4.309658588919741 3.006695990154897 -0.3624862796738759
I -3.8480500794017534 1.6371036889073762 -4.019833467194665
O -1.3803020341617518 -0.86041069836959 -3.0021737919613445
C -2.47133906057081 -0.7572398795772508 -2.445536165948192
O -2.6967338486058536 -0.48150328113034047 1.0363395608415287
C -2.8192611610940284 0.08622124782785417 0.021476957881957952
O 4.863916587047433 -2.639874678577016 2.6486795282305606
C 4.295835995461779 2.6149555254817414 -0.6245336432489208
H 3.8678693024084003 3.062468000962709 0.2687017729841303
H 4.005033467275682 3.1643901796171496 -1.513354262564483
H 5.371482888244253 2.5044986210738465 -0.5454259585910436
H 5.513215250529181 -2.0531050840562197 2.2252518785543485
Rh 0.6082817364603601 0.39335033616081716 -0.03732232519576455
I -0.5269821150532471 2.197656566450151 -1.648827797566734
I 3.443088584903128 0.5697246396223818 -0.8031140727237183
O 2.096683790144718 -1.9155541149284363 0.6379168925563437
C 1.2527172424091912 -1.0862356702857117 1.0498459097498474
O -0.7854965950194299 -2.198411456058277 -0.5154316006294244
C -0.3074866332275228 -1.1129606495084223 -0.5004282369417594
O 0.5307602989348977 -1.4366264499507715 2.1876855554896375
H 0.9875796287659679 -2.204876761253149 2.595753990371546
Rh 3.02364860288613 -0.32526142928692303 2.195377222151611
I 1.3053451798053899 1.9181664772734524 2.09886118423505
O 2.7681286270363303 -2.8004690653519075 3.299506097347832
C 3.6389518067491236 -2.0861194318912695 2.80336171532059
O 5.11166730489752 1.214496594577931 3.6527490834394953
C 4.340719720616749 0.5565315604430523 3.1055945446367788
