34
## STRUCTURE-ID: 645756a503f55b0309390834 ; CHARGE = -3; SPIN = 1
I -5.351792632820975 -2.7257770782188953 -2.1598362700238125
C -7.288334842133386 -1.789679108357427 -2.5802417998657043
H -7.080289258491403 -0.848007540149749 -3.080012679698766
H -7.776656214847097 -1.6170853510227527 -1.627240452447864
H -7.838861677235809 -2.475249168114467 -3.2122009057511804
O -3.0907067425154304 0.7382818203152853 -4.6147983333391664
Rh -3.679314744295446 -0.2181877998917278 -1.12194088050763
I -5.883670433012642 0.7060112944957027 -0.1505081760938049
I -4.386637711414173 0.9746541557233778 -3.289822735626677
O -1.274072617406922 -0.600542045625887 -2.8435370022006383
C -2.157836869385876 -0.5409675104016004 -2.098166748895698
O -2.217747788156278 -1.0796853858514428 1.3334167363652814
C -2.9174548332315973 -0.8206540381503878 0.44461258323565994
O 5.89724524054909 0.8282870134140305 1.8356289172266382
C 4.510134772128039 3.1100942395669473 -0.53482632111534
H 4.807205329773866 4.013282538374488 -0.01277838805557688
H 4.174669621352402 3.327971664944612 -1.5428195934391133
H 5.293105073760114 2.3591064043325702 -0.5327681328003135
H 5.681427502806445 1.7266576836381917 2.14594900934983
Rh 0.3663838506105419 0.5088814536605197 0.7370235438654739
I -1.399404193708524 2.3178413541879257 -0.17071563215011265
I 2.7485656069666695 2.249064790700002 0.5729495884647515
O 2.6492925782548644 -1.0974317919077314 0.21152594250431156
C 1.7562670022837887 -0.8584189232152654 1.050016808507736
O -0.07140000790933947 -1.9960625608479916 -0.7941578501870463
C 0.04891839584228486 -0.897622455963797 -0.37588317715209024
O 1.4585347818638503 -1.8824103417361082 1.9475957381096687
H 2.0740445810931343 -2.6216483199057308 1.7969686749809435
Rh 3.0934723833224096 0.5249878683527801 2.552326451271944
I 0.5664687001931793 1.4168318749259452 3.239696329772427
O 5.149023255819437 -1.2402706709346203 1.753676989953194
C 4.883700544309943 -0.07656354193834028 2.008271300719165
O 3.7568059312047115 -1.0485285580321613 5.006084037092037
C 3.4989154144300754 -0.367161966366395 4.1065124279314835
