34
## STRUCTURE-ID: 64574dbeb9798647312eaaaa ; CHARGE = -3; SPIN = 1
I -4.718993367721705 2.4151633603161127 -1.8548859176455141
O -2.4932544040152522 -1.7230646748596847 -1.30305916582698
C -1.636979799497869 1.932338331114903 0.9762148965437963
H -1.3990664858729818 2.4501150982365365 1.9206970130681613
H -2.4928193539184025 2.48568384107201 0.5455995851176828
H -2.3651753106107956 -2.369486208778615 -2.0217976882412136
Rh -4.656394982369386 0.10443917910501288 -0.2675734584735971
I -2.5962157166552866 0.025423398957348808 1.6688577056031615
I -6.116401793155534 -2.195517959760244 -0.01066361054024132
O -6.392866721656168 1.6571506743083952 1.6030661613260713
C -5.721356121998853 1.0063985501976336 0.8976888361596539
O -3.9631006218233678 -1.0369515672917686 -2.828472344319665
C -3.6252438276021066 -0.8947838373485695 -1.6475053195514773
O 0.34002973505920364 -1.3264981355320724 -1.941940288986248
C 1.9516087122843464 -1.2508009909890594 3.134375041267558
H 1.1055345850736293 -1.4127026646980954 3.795158706985691
H 2.8199063937839273 -0.8729656779045382 3.675255167936155
H 2.184274325371265 -2.1438004106258166 2.562051920302309
H -0.6018753888940852 -1.396428171569095 -1.7150133901608815
Rh 3.4293287728888724 0.7351987830865364 0.06605485643332647
I 4.900592682422007 1.2566828385333573 2.087362872567796
I 1.3296535299607029 0.35160011353281356 1.7164861934262474
O 3.4488239923732853 -2.0038591688214087 0.43987626550428144
C 4.194694120463645 -1.1186587953274436 0.12880316720553617
O 5.457412887390356 1.7444911659930036 -1.8707471587489342
C 4.711403480064865 1.3314985530499 -1.1269999629753593
O 5.439684883854016 -1.205579566940494 -0.21887360862214422
H 5.840470824364334 -2.102443896057527 -0.11508855200889768
Rh -0.23735642398110687 1.0057642433424085 -0.3066089763090202
I 1.7294372543823038 3.0773121002673705 -0.2640197543831073
O 2.13842595699205 -0.1553996648224685 -1.5725083595050338
C 0.9023069652607272 -0.18566890405603312 -1.3666079449710886
O -1.6104979287403984 0.8688302635222446 -2.9553376336138513
C -1.295990853476038 0.9465198007474529 -1.8298452545641328
