34
## STRUCTURE-ID: 64579249438df937066f2ca0 ; CHARGE = -3; SPIN = 1
H -2.8961962977132156 4.0568073709491435 -3.4931482530921407
I -2.415362251285195 3.9390986537310937 -1.9665750793106362
O -1.799396648185858 2.3258148855813463 1.1959449990452706
H -1.5646233570845807 2.3101980213160647 2.1380345251822863
O -4.625465897830806 1.4540482853282721 2.139984547965917
H -5.43000197276264 1.8809951872132202 2.4443437820774223
Rh -2.520282039400957 1.0190829295337462 -1.1407711620833263
I -4.7213074065497045 0.8201602459447114 -2.814902841629836
I -4.7437718879488955 1.2008901483058172 0.13502972922290302
O -1.7914319383034771 0.08634056423596748 1.4617274961175155
C -1.822975695252704 1.0431096736829812 0.6719708174223745
O -1.3644427178873937 -1.1113796681904362 -2.677459991620157
C -1.2608645967763144 -0.1194666488860054 -2.0260016255250317
O 2.1528890193144683 -3.8458050344180728 1.7999986816558369
C -0.3344672981947657 -2.4757558782516127 -0.32160653062227895
H -0.01513387633730815 -3.3396753079538435 0.25417551829449303
H -1.110439282911698 -2.76213521228245 -1.0249818353685676
H -0.7237753368114093 -1.7309997255682836 0.3732695907634906
H 2.833132551478933 -4.362828586121701 1.3320915773552513
Rh 0.4025298407815037 0.9819121139584601 -1.252811518184557
I 0.6556351742931016 1.4675122584753575 -3.8705752685142434
I 1.328361547417754 -1.6413861580584406 -1.2997450638568062
O 0.6895799931091148 1.3592040844896796 1.7019337769263787
C 1.1674593172475467 1.0003250530173387 0.622122748360518
O 1.2477502941201828 3.701713931306695 -0.377990224591206
C 1.0110694103384275 2.6483690344470756 -0.8164162932605784
O 2.521055507445399 0.7139331035975354 0.6322877368208372
H 2.9012389565047094 0.8711570605678769 1.5192148683179665
Rh 3.4299951443053542 -1.8117084140505808 0.13532844533058078
I 4.161171813994711 -1.0297310991109467 -2.2827188660817774
O 1.5472354332212412 -1.7663884461931272 2.2475399675082897
C 2.3058535621372602 -2.4817782639498933 1.5911907004853432
O 5.8398552137827915 -2.2825640205620834 1.8390063988209069
C 4.945125721744391 -2.119070142084887 1.1305086460676401
