34
## STRUCTURE-ID: 645737eaaed3907c6d73b9ee ; CHARGE = -3; SPIN = 3
I -5.096891333372484 1.0205446502261257 0.5694733289446631
O -3.3981330883598178 -0.2597800585229486 -2.0298931364672477
C -3.8288618905922083 2.7002884348134306 3.65412426454558
H -4.606706453201134 1.9555349639217166 3.61171041881134
H -3.926049764172401 3.6503067221654706 4.151132894996405
H -3.4476273415878 -0.8967364484441815 -2.7727593680936073
Rh -2.4175702977375075 0.6873259053473161 0.45576333316581724
I -2.4521850692234946 -1.4021001359144551 2.167065672197275
I -2.066184238262082 2.409111288305981 2.5284060441083755
O -1.7253069081220536 -1.521535467582478 -1.2833712038786256
C -2.4721718751320787 -0.5466606705887972 -1.1251675417563345
O -2.463548440152752 2.9163333447160333 -1.519138698315612
C -2.3758510936520785 2.076243330980241 -0.7522178359784405
O 0.09838774516083282 -3.3045726654024508 -0.06346518567744878
C 1.3984180338416234 -1.149223817515004 2.1825767366073188
H 0.9047913785568426 -2.1146139066539087 2.221567909543658
H 1.4172295438406868 -0.67503785967432 3.1580174895736497
H 2.39611746251641 -1.2539847433853177 1.7748710611673006
H -0.7109338694540656 -2.880836220688993 -0.41808861026601146
Rh 1.9801621102734361 1.7228332872206122 -0.4597903650950791
I 0.6470671268159894 3.8236409087050482 0.33890724486047413
I 0.3426957740180997 0.12595700621436184 0.7731322199454851
O 3.6709025018864216 -0.509650045887886 0.10001236035380554
C 3.0771467946448494 0.10593228694854581 -0.8126703326649495
O 4.8666201401040015 2.427674277894478 -0.6151998460701408
C 3.6995735560381373 2.33644755161666 -0.5775886850011173
O 3.6821198650947204 -0.00769327177920172 -2.087302217746757
H 4.443926023210747 -0.6045957724444302 -2.016765999587954
Rh 0.9813977623777629 -0.9914150072839177 -1.5157797341592674
I 0.4270778186380756 1.2174760706505519 -2.933459283776791
O 2.301367242326294 -3.1018962359614664 -0.10424906793954215
C 1.231934076005387 -2.606953424514564 -0.4566969815849501
O 1.9246197715926978 -3.1334331721363404 -3.3623669237126315
C 1.4964669360790914 -2.2149311053458 -2.7807899610488214
