39
## STRUCTURE-ID: 64571ff6d2a58b22954dd527 ; CHARGE = -3; SPIN = 1
I -3.7413161360194827 -0.2587410980629637 2.3353173576305473
C -3.0352597352343786 -1.6599621116805923 3.8352395637618852
H -1.9592268489914353 -1.5069437735576467 3.8825667132632873
H -3.3075058339635413 -2.64877074659035 3.483523177679324
H -3.5369598816728103 -1.3954857323156273 4.757383348602585
O -5.081926852384783 0.5575478483829656 -2.6967353525608515
C -2.376438275882537 1.3032148414672962 -0.6922348384082742
H -2.0485305710680395 1.4254054288696236 0.3392521919413193
H -1.8587599363411134 2.0323249810983306 -1.3255987387787465
H -3.447819078175932 1.4969600464174548 -0.7467114553922543
H -5.984551492834565 0.8846880614109298 -2.7485724914154983
Rh -2.89974270715416 -1.5873016195629033 -0.20561870356912473
I -4.8200180051704375 -3.440180336680626 0.3204651210091452
I -5.055307687635305 -1.09038018328641 -1.5065357905725059
O -1.4740840351342444 -0.20752664194166476 -2.29263396232341
C -2.0752884001886014 -0.1136942179990885 -1.205040431074561
O -0.16814659019929468 -2.8188936453605096 -0.30466943224856335
C -1.2402597466767868 -2.376555637707506 -0.13547462832904442
O 2.4562943135034248 3.9190281636149087 -0.2023456436865149
C 1.5378142058818134 1.133223588976682 -2.479750214807146
H 1.5350152612454258 2.2204821491599134 -2.50982568874074
H 0.8455254028388189 0.7321475999451027 -3.2160798454994133
H 2.543521553324175 0.7664981754869554 -2.677003855453476
H 1.8164002360052365 4.210986467705262 0.47024183731973684
Rh 1.9200122338178331 -2.003451908268957 -0.5841570073846329
I 1.6523579056987385 -2.530814791057335 -3.398991259542585
I 0.9834793623413777 0.44428405344476896 -0.6067870740649144
O 4.24474245371937 -0.6755015520418493 -1.459033863371562
C 3.567709792251695 -0.9793566705387358 -0.47521223626150266
O 3.8488724308696844 -3.901924392814222 0.6651372273802224
C 2.9498549636470495 -3.2825640568827823 0.2581871048974225
O 3.969335884399868 -0.5109601021556485 0.752265111985512
H 4.8016536647062305 -0.004435427297576042 0.6707776765747794
Rh 2.1170783930256762 1.5222575346619773 1.395563802822303
I 0.1755007778856516 -0.06540033076620373 2.2334478598260428
O 3.9548097121681347 2.343220259992389 -0.6071816808444532
C 3.0281506261650075 2.6913380824468796 0.11834634596696271
O 3.334903611777597 2.9651094149018813 3.715379115463779
C 2.828109029455062 2.410128278586043 2.843100638204619
