39
## STRUCTURE-ID: 64574f798f26a50d4d399e34 ; CHARGE = -3; SPIN = 1
I -2.4525058652197114 2.1434880313881255 -0.3880134406642468
C -2.186147509365427 0.14506940799118861 -3.5260960050403307
H -3.0253218866519624 0.7889425648332341 -3.268416796958142
H -1.6039500602725814 0.579754745512135 -4.338807069230256
H -2.571193319542852 -0.8287789841122675 -3.832683941010361
O -1.468634958438945 -3.2186862946879664 0.21283760715262223
C -4.226846423506922 0.15644806968517305 2.6421436648469823
H -4.951031211934755 -0.418420647741577 2.0727523249545845
H -4.202105405472363 1.1873874442827446 2.30051491756612
H -4.405006591081733 0.09182533902900818 3.7086585642962326
H -1.4709172343427532 -4.1466475306152475 -0.09034625606256416
Rh -1.832809260832402 -0.45349972569040137 -0.5101793588920075
I -2.227807254699003 -0.7158379960402637 2.2713368610154547
I -4.271288232147372 -1.2010687451740962 -1.0151187770886623
O -0.061625664385388385 -0.06439226391521723 -2.457693424927545
C -1.2771131289678257 -0.08851640983451682 -2.342449041807255
O -1.4477414197661473 -2.846807709859727 -1.9918435271947095
C -1.5056877902588095 -2.357933901302337 -0.8697762140441024
O 0.7933863617292596 0.5695861651204769 2.6803072729340074
C 1.9119077355713567 4.1761838518262255 -0.24143647634789192
H 1.4547578441769027 5.0653701777361 0.1756803584993577
H 1.1657598942905416 3.42064468427285 -0.4663700875305568
H 2.514121492860895 4.385879034000828 -1.1189471179720494
H 1.4633022455326228 0.4677751414944372 3.371987105796824
Rh 2.139515403352202 -0.18652222276554858 -1.2912795993737638
I 2.9206038825651177 1.5177102862700365 -3.0084972258950144
I 3.2268983944399587 3.3304773794841807 1.2659823602445506
O 1.13483366437319 -2.5739513214418057 -1.077674405131268
C 1.3217660234274424 -1.6241295169207675 -0.2853457504838593
O 3.486422528634236 -2.31409253502995 0.2401126417923422
C 2.9680291355351844 -1.2210752408073038 0.0766900702875396
O 0.8027014269110515 -1.7980033362287375 0.9932931035167823
H 0.2984451193922082 -2.6347528060914462 1.0019529974243875
Rh 3.2087563135613126 0.49205183143659914 1.0082410540385418
I 5.774081092930139 0.37975896699408135 0.2491587151373867
O 0.4106334874106621 0.9614574706009505 0.5715562301216102
C 1.2833574210229293 0.6454971502070364 1.3809415468550776
O 3.390748829415316 -1.4335545615325727 3.1948149459879995
C 3.5177049197554915 -0.3786359923729777 2.702012173186641
