34
## STRUCTURE-ID: 64570401cb733c1c1c6cdb34 ; CHARGE = -3; SPIN = 1
I -4.993382827851887 -1.5455834455364774 1.6390853481940515
C -6.321424627310266 -2.7370930376786715 2.642979037945873
H -6.880964096585301 -3.448724007106951 2.059477115305392
H -6.12525062913701 -2.9372850399853303 3.682611255741194
O -3.6278199502023414 -0.014581755330308862 -0.4708034400041956
H -3.6147975150823264 0.6949182274792535 -1.143405288593016
Rh -2.5508161828797276 -2.333761625307286 0.7617044006900687
I 0.2906983660527716 -3.2300209038406416 0.01243420687004361
I -3.729477013629477 -3.7268602201247414 -1.1559463062219268
O -1.6673024293834184 -0.5662801154759961 -1.3478361584778145
C -2.559266265756087 -0.8432135353418281 -0.5311983175493141
O -1.0590498597532911 -0.09304514414258819 1.9919069832788197
C -1.6844634415438389 -1.0352056097784386 1.7141814737535999
O 1.3514711454025865 4.398136737734743 -0.3419866919286904
C 0.3386476797016776 1.5447959810475922 -2.295236554483867
H 0.03126488645073221 2.5762918046913614 -2.1668646852006326
H -0.41912139350286737 0.9610505112765769 -2.8038938883654017
H 1.2820168337559998 1.4950506710094034 -2.8307654364750543
H 0.9489451456985636 4.504308747848207 0.5353818067779834
Rh 2.1789278192257875 -1.4430148731896555 -0.4791914091098186
I -2.610270770015164 -4.319960925169421 2.5365882222755
I 0.684945593750017 0.6892291498321723 -0.40564734994298474
O 3.336447761441012 0.18892966730292376 -2.5151220378784918
C 3.360909803158257 -0.09541994044776894 -1.312551319310208
O 4.349387523771685 -3.1751568503470753 -1.5577582477085958
C 3.4676341330708853 -2.5838769105089696 -1.080021159954518
O 4.246751724021408 0.5876923487478404 -0.5225272506222366
H 4.770021874658848 1.2208042599717173 -1.0535442868481544
Rh 2.4090231814570786 1.9978798810941993 0.9929901008423594
I 2.3998327768474135 -0.34544313460219567 2.3191208838643766
O 2.898693827603854 3.2667741697687838 -1.435153422871918
C 2.280439303613488 3.3759059459207585 -0.38099852393679584
O 3.8952843075362855 3.8472436951917115 2.818918969408047
C 3.322063315414765 3.125515274996866 2.1230719705362806
