31
## STRUCTURE-ID: 645702ae956f746d1b15986d ; CHARGE = -3; SPIN = 1
I -3.841541724445099 -2.0290467026133214 -0.25135402378186233
O -4.498892844288234 1.4102074180282398 -1.2865133022906414
H -4.680176284314884 1.750408216359146 -2.1899459567130983
Rh -2.8307022777147672 0.24899324632169964 0.6647100433646748
I -2.0532030973041935 2.789704068196184 1.1834625968860437
I -2.1249411890907313 -0.8042960022346813 3.1133874798047514
O -2.4526410565448815 0.9902037818219542 -2.067536104237253
C -3.2479570290786293 0.9579834861404019 -1.1521161012613248
O -5.477484433994663 0.8336307415156458 1.862282984198724
C -4.463912108104166 0.6179186678126799 1.372982501331923
O -0.9677961708929997 -1.499615950679598 -1.7520273799432236
C 0.9895707061660537 -2.991907755924655 0.9951512276922961
H 0.24316504070546932 -3.4863597044531067 0.38364485815410493
H 0.549665925546357 -2.163935546106485 1.544911071576168
H 1.465654459740549 -3.684098054224526 1.6785132315081377
H -0.5154504474606239 -1.8435253928957234 -2.5414753739380362
Rh 3.9356977030352667 -0.08872024897234818 0.596483386095407
I 6.126660299342986 -1.5435706522998538 0.7573359389642144
I 2.4848532310996263 -2.13563076044763 -0.28308783061402837
O 1.3631024340944007 0.5651449310385428 1.640086349766187
C 2.2327720240490634 0.9050513409896851 0.8235181713427315
O 4.436482400625359 2.071672558453183 2.582467138314848
C 4.370858595920204 1.2006916373762562 1.811378811219741
O 2.1335748509511183 2.1863523930137223 0.290805106206413
H 1.3659702371198228 2.6565192367292894 0.6634619415871187
Rh 1.5697942174281898 -0.07999600943419821 -1.5903465621472772
I 4.0837331263153995 0.32272916119514444 -2.3313544137581443
O -0.8206850402904269 -0.07195913743108091 -0.07295250949803504
C -0.25416184004664183 -0.5516574622545609 -1.0587215718458507
O 0.14484850235696026 2.186649226809545 -2.90036394443139
C 0.7331417890742853 1.2804592681703824 -2.4867877635530915
