39
## STRUCTURE-ID: 645731900e67492cbd23363b ; CHARGE = -3; SPIN = 3
I -1.1819726184597243 -3.6872309159263743 0.37205935219854736
C -1.1275727737575039 -1.1282877535128926 -2.9800164676775935
H -0.20995240897401113 -0.7963016607493576 -2.4942006224475786
H -0.9012385010316076 -1.9557864497746682 -3.6526942897019365
H -1.5381255439032833 -0.29998063093024013 -3.559696589807171
O -1.0956675373802682 0.7019478233962996 2.0036464913301457
C -5.543039179197376 -0.37666730508132684 1.9703393928356467
H -5.540624360885766 0.5410938791380813 1.3914182552383036
H -4.801396442666533 -0.33504487669387156 2.760832896305807
H -6.526411593427557 -0.6068564145856638 2.3597392984406067
H -1.1469787746835485 0.9671609008765605 2.9506345944676853
Rh -2.1541767694294554 -1.2222202930534403 -0.04408783883021
I -3.0155588589042464 1.1824077780747624 -0.8055700889142374
I -4.963404424962135 -1.9951219852636206 0.6445237782094566
O -2.330052935898257 -0.9824252379200429 2.7695713617855056
C -1.8107884839726052 -0.4432300012462411 1.787210886482015
O -3.176066500482293 -2.1932239936081617 -2.380788742352945
C -2.191722665770894 -1.5796381716632624 -1.9954998638058732
O 3.1406793517410163 2.0790793693989906 -3.0111662477801895
C 0.5130490385655594 2.853528882974686 -0.4427765327145225
H 0.8275058414889669 3.6284467449828193 -1.1302497164535215
H -0.2717777902520556 3.2031731571971482 0.21722706930769276
H 0.16504499470947592 1.9830455610684528 -0.992171727003135
H 3.8488879269405043 2.6970376553509863 -2.759072946125523
Rh 1.7644291292082737 0.15241358119878773 2.315423219389712
I 1.4572251786646941 1.6044521552546827 4.498161657343031
I 2.165158689371419 2.195780126000767 0.7115417581304228
O 0.6118797503055123 -0.7686019573370346 -0.1622813977252011
C 1.5962599252795926 -0.7943263233279434 0.5753044895225472
O 0.9050490519157643 -2.5290035700071174 3.285452330942322
C 1.27909163371577 -1.471058710816665 2.9860268545026294
O 2.696720137018238 -1.5042118715361958 0.1589762405739642
H 2.5362766530300656 -1.952247268070262 -0.693579741450647
Rh 4.0452606427215985 0.8739274786068864 -0.4961456528833537
I 4.773272119689028 0.701665822834032 2.084186449138431
O 2.261912418508682 0.11957255089067434 -2.4951790411218004
C 3.0776090149603617 0.9827152582302491 -2.1883913655957348
O 6.358239510313236 -0.12949848491346785 -2.1071560767604556
C 5.502977155890965 0.28351515054247084 -1.451551426992813
