39
## STRUCTURE-ID: 64573ce7bf39f7490773b9e0 ; CHARGE = -3; SPIN = 1
I -0.35620176608462256 0.5591942213065637 -2.309903576330062
C -3.101520113507004 2.9292636301033395 -0.3640431942756545
H -2.9629382519133785 3.9172736928911625 0.07283413588075714
H -3.0721224803130482 2.9954691633759394 -1.4506410728280958
H -4.059897101829619 2.5102734173198384 -0.06997017825577105
O -4.0169732649228 0.6980885407150204 -1.8681987816513852
C -3.1346423163408335 -3.7295968841880933 0.5994001234381147
H -3.469804603390864 -3.4073693911891887 1.578621122778619
H -3.0018927107654254 -4.802650494541621 0.5649947745154029
H -3.829863788976121 -3.398786841738172 -0.1630899661827881
H -4.70190738010381 0.37070757736648874 -2.4872037660212296
Rh -1.8533504125883278 0.10045047014378822 -0.13303232600845497
I -1.2114312819530453 -2.7917432866986895 0.17427967475712094
I -3.558456994141163 -0.09178473337550785 1.8533584180017824
O -0.9826492345260646 2.5302225537272567 0.6371356766083504
C -1.9581573921881092 2.048786718278224 0.08592622806900943
O -3.5201387358212983 -1.4612530623120035 -1.691879701539476
C -3.2910310328269725 -0.3056611674201012 -1.3648896514749467
O 0.858127015453241 1.5629448628003104 2.8812034287302146
C 1.9160315815293048 3.2338440007707674 -0.7610704702646283
H 0.9867731035560304 3.028747302201552 -0.24101032671993305
H 1.7633151100411184 3.152348633468039 -1.831450493276115
H 2.301902231241012 4.2086845207150745 -0.4897478862130793
H 1.6712580166311413 1.9136847683662126 3.2857489383263827
Rh 3.8195916121367217 -0.6148126225745553 -1.3655513695301673
I 5.5298691113506075 0.4793896623071541 -3.0423801600564815
I 3.352311954921861 1.749942305544291 -0.1679180285767729
O 1.2533720454767225 -1.7251356905693234 -0.5397409315359304
C 2.475805809913499 -1.657177964353537 -0.3032047491398978
O 2.975017632792799 -2.9879422831842706 -2.9445825434779986
C 3.4055614336859183 -2.044996764213748 -2.4088991155577033
O 3.0117746008581103 -2.7337793216779502 0.3991314007826062
H 2.3281624966049286 -3.4005786399590194 0.5918754464501029
Rh 2.9519804819701876 -0.04147976026699668 1.665528593236887
I 5.52860040548967 -0.48459457862114985 1.048981339648133
O 0.09636645747770813 0.03562353925457848 1.4834126281772515
C 1.0964207127480208 0.5232125272147404 1.9943292362115348
O 2.167856769803708 -1.7735021978225123 3.961212918823642
C 2.5928802785100022 -1.0953064231639331 3.1204342044807216
