34
## STRUCTURE-ID: 6457046df899492b0932bad4 ; CHARGE = -3; SPIN = 1
I -4.629033518536719 1.2660192415039095 -0.06059468945721641
C -6.222017757301518 0.32196442747215426 -0.9785889693115315
H -6.539092382243312 0.7214779613439237 -1.9269703360324189
H -6.366600862973114 -0.7200847960448932 -0.7499865057656288
O -2.572569216268761 3.604897737880547 -0.23384799733762082
H -2.3402566854560556 4.554860563339246 -0.29648158837776367
Rh -2.0367865513222174 0.8705011458168599 -0.7628291924454519
I -2.046703886919148 -1.8541874993914191 -0.6513501250470677
I -2.656389108116314 1.1065476017415374 -3.29945433832108
O -0.5812345125068604 3.281469826593991 -1.179709198507075
C -1.6302677227158 2.7924944478650597 -0.7733480311059721
O -1.4811846716623225 1.4930104636601038 2.0823570885144997
C -1.6115414679111342 1.1151978950761539 0.9882142933707365
O 3.5921577862010694 -1.2984311588679913 2.7006991885046574
C 0.8439030428203939 -3.8617755189504077 1.3695402505780228
H 1.4800491379331817 -4.626689117363742 1.7996704463399218
H -0.049861444679985184 -4.285614961253329 0.9213699101341687
H 0.5785452191150181 -3.10014830249893 2.095867785272363
H 4.091979110112143 -1.9862040130202443 2.2220783523099494
Rh 0.24645718002263148 -0.6380699934579858 -1.4129789771702843
I 0.35237941543191853 -1.881662651862499 -3.761919708658661
I 1.960800420527575 -2.867364867474606 -0.21338620167703637
O 0.23806640335897436 -0.6223323799155224 1.3390851768472551
C 0.4014709870375476 0.15439586472068387 0.3668398596813872
O 1.9534307660778474 1.6873544459273324 -2.1092369065950316
C 1.3837320378981761 0.7061094048916939 -1.823066596898024
O 0.913486040082585 1.4170237047121224 0.6614223218236882
H 1.4230098413079653 1.2732177025545033 1.5049576650805079
Rh 3.2102633449869233 -0.6008484403487456 -0.077101025764347
I 4.359500058281626 -1.4545059031591574 -2.30805448561628
O 2.4763620398610575 0.5739636511262834 2.5276785517747364
C 2.9940434339462825 -0.3542364558419874 1.8834657766982799
O 4.291874232346198 2.1621334123539104 0.13154851857818028
C 3.9720292912641377 1.04951656087142 0.02410968858012974
