39
## STRUCTURE-ID: 645752d182af8645044ed2a4 ; CHARGE = -3; SPIN = 1
I -2.9250113620169516 -2.5414617627230207 3.132100825206853
C -1.5638561771170343 -2.91548270438786 -0.2826248728998423
H -1.4084322432337373 -3.557528707229447 0.5827074004072497
H -2.230166383461956 -3.4010851859761595 -0.9936588466957429
H -0.5943573278913112 -2.7612619298126564 -0.7691311187847526
O -0.843986470825979 1.9364969362011684 0.777955398624519
C -4.905590248140579 0.7815263937560814 3.543116177921379
H -4.218890618646619 1.0828222458731604 4.329451070067164
H -5.241243246134858 -0.24106874323375882 3.690763391406353
H -5.736719211570077 1.4730686575825078 3.4477183306299852
H -0.2809117234955714 2.4671257524205075 0.16470619865863506
Rh -1.6186615373900528 -0.6425463765915169 1.7477858548907796
I -3.797841285313387 0.8630548694754302 1.6308013426372543
I -0.758154411360355 0.6719411574471277 4.023770687518302
O -2.8064620684925923 -0.9574816091402183 -0.7685282369009662
C -2.1234944183208846 -1.5418030830611948 0.05985973241260634
O -0.16329444254934755 0.23958220508609201 -0.5091961480388316
C -0.7199635695912369 0.6195890501592466 0.5207905722910009
O 1.5555807522159835 2.9737918159322176 -3.1544734851757155
C -0.32874169739698234 -0.14919572188742458 -3.65540831356165
H -0.5549842793528652 -0.8490182263119812 -4.451203840789959
H -0.2736573166248374 0.8708995903079537 -4.01753632360888
H -1.0568235241001114 -0.2186577905486408 -2.853469194540282
H 2.2317317746190386 2.661168347657921 -3.7837532056397656
Rh 2.6435949413414814 -1.6763729812471397 -0.10870269949638807
I 2.6336473039966726 -4.1702676193078805 -0.9480421326274021
I 1.5969690089039925 -0.6754571677450234 -2.816720933325926
O 1.9132454773896967 0.8080069079832112 1.4501752077681582
C 2.7570117597156956 0.08085195827206287 0.895324212843909
O 0.3204342684741029 -1.7985242437816233 1.744021427780163
C 1.2330754028735367 -1.8491695038407117 1.0048759622687633
O 4.052717587904868 0.19610796462773084 1.4225608578484217
H 4.075390319179137 0.8279749041424058 2.165022252633302
Rh 3.067336604610991 1.0860689443520781 -1.5715425557338063
I 4.82920584559252 -0.9782317427478036 -1.5237627779302492
O 0.951731484334786 2.9586020971641527 -1.044132832191726
C 1.7244106232860796 2.485889497470604 -1.8743590468850757
O 4.522747408331251 3.370476659461996 -0.32732685728128746
C 4.042413000257134 2.46956914420005 -0.879933481706242
