34
## STRUCTURE-ID: 64572861c500d03f970b3f5a ; CHARGE = -3; SPIN = 1
I -5.5108300919492414 1.0929715527581991 -0.09721824767862164
O -0.7910954110697883 -1.8425729772405355 -2.1727619349129554
C -3.4220347599669085 -2.894114609239252 0.34498593367380415
H -3.4644533191745266 -3.3780731365371826 -0.6219967651881451
H -3.205094252715287 -3.5439119563192687 1.180134258760267
H -0.5937812601273158 -2.04201715448189 -3.109181804636132
Rh -3.3592333793800386 0.6667709008013122 -1.577437141092682
I -4.4886840568104835 -1.265867115771665 -3.0167132203419196
I -2.3729087548713736 -1.124133983980445 0.36426748507250745
O -2.441472247959686 3.4558211171793647 -1.0007836353703141
C -2.8316552263097314 2.37371605311816 -1.1973752097385983
O -1.2412657842998163 0.690829356456778 -3.677559254821114
C -2.0321975061090773 0.646404688391132 -2.8279581918363155
O 2.9547335686541754 2.845593868886444 -0.39183381140401624
C 3.920851063327989 -2.079912614604947 1.952212923212828
H 3.6493191329682966 -1.6276409090658397 2.90263895722652
H 4.995023461764193 -2.1027789265934107 1.7952108547919032
H 3.471212991216736 -3.0662613813308965 1.8467713605840457
H 3.652444058622585 2.216549931212958 -0.1341478202950357
Rh 0.2605544128267898 -1.0943835109072282 0.38939993871137646
I 0.4746032760705214 -3.7016975079325136 0.5448218355145316
I 3.0827222451271443 -0.8072517297742154 0.326762396841109
O -0.03388520767214716 1.3626333161834283 -1.0932389953563288
C -0.12545541688168488 0.84177118516584 0.0385605246312732
O 1.25250636790009 -0.947609306316122 -2.23077831529548
C 0.2890426610574539 -1.277864980861238 -1.5470108682905015
O -0.9959293428091476 1.5280097153760965 0.9483789292220813
H -1.1615755225078381 2.415675629981038 0.5927427299670242
Rh 1.4772434272170238 1.2972538913362346 1.6488329098052568
I 0.41094103879710525 -0.6442029105075888 3.1233944531608095
O 0.9659010193096922 3.615438638365552 0.19329498142545667
C 1.8179295432839335 2.7487016430459312 0.3819890917571817
O 2.967497907213754 3.2479529642569704 3.3416455073550084
C 2.4290253652571443 2.394200258948843 2.779950144545151
