34
## STRUCTURE-ID: 6457050d3d191c76306cd4ad ; CHARGE = -3; SPIN = 3
I -3.6010319960449713 -1.854930888536198 0.2096193923005029
C -1.4116226037191093 -2.0015869678178415 0.09004033983317276
H -1.1461529632267773 -2.478925354832996 1.0395410988652798
H -1.282151037566808 -2.7134313798817877 -0.7315215495023282
O -2.4211505234194477 0.9381550288158519 1.1822603362214594
H -2.167265343192721 1.553270386365309 1.9017139597195554
Rh -4.170849769111606 0.6366711960556347 -1.1187503587248073
I -5.1966539947025145 -0.24261321347042059 -3.403921354323861
I -6.439328822370986 1.1657364691027587 0.15249077258095944
O -3.172798485247918 2.848381951405201 0.2855867502173377
C -3.170535304718409 1.6247813091084549 0.22123601316108932
O -2.160430186655585 2.0900513536343803 -2.498045272956699
C -2.4584922653624663 1.0274424570583476 -1.9496338747122188
O 1.200780983951714 -2.219531611964364 -1.3208301046998303
C 2.0992346167519003 -2.020259226862546 2.531919424779158
H 1.3952462034722282 -2.837794888168351 2.654234490122011
H 2.6578418384445706 -1.832339566655212 3.444887714092304
H 2.7577196913513013 -2.1582978474195227 1.6794102402132454
H 0.9567838039097316 -2.6752280071875174 -0.4956644621446211
Rh 2.592339229480365 2.0342980383994136 1.0034262589394054
I 2.016623877469392 3.8437412504814104 2.8540218954532306
I 0.9355853818192305 -0.1949709522634068 2.126655791693176
O 3.0325099916443436 -0.46017496000478847 -0.2676104523194312
C 3.1910698768400487 0.7500342867833969 -0.3729863073148832
O 5.423886307108755 1.72924988155038 1.8722157692488357
C 4.31319096515348 1.8454095032120714 1.5929879535394127
O 3.82121466294026 1.2714375461186205 -1.436290953320565
H 4.068178199292203 0.584463246743163 -2.088246824436666
Rh -0.548530872201653 -0.15954520847978784 -0.23712322626534327
I 0.36288297435888833 2.4540559899871877 -0.4873958816959697
O 1.1323080061709572 -0.30477033834168377 -2.4049900776871542
C 0.7580119466678445 -0.9618042787024175 -1.4518167783295488
O -1.714580461244934 -1.0971309500657382 -2.699253415632557
C -1.653833928041146 -0.18384425416666936 -1.878167306913809
