42
## STRUCTURE-ID: 64577c3ff1d0cf5c66530d6b ; CHARGE = -3; SPIN = 1
H -4.766001652611998 -2.538544689547934 0.7984433232937055
I -3.2170778072857034 -2.874764520030085 0.39037342686909293
O -0.7643889581576578 -1.624774875290901 1.7780059718140684
C -4.3098365630383295 -4.9541785229073 0.6358742660465461
H -4.729211045505382 -4.9712740126709996 1.6323162067213326
H -3.5565315252453473 -5.719481973757591 0.5129793329653018
H -5.0646849015430915 -5.015155721361596 -0.1365554967613481
H 0.0940731414477913 -1.5810107070810573 2.2538700431388987
O -0.4290315292208105 0.2595939822239333 -1.6707632780015262
C -6.197275387602127 -1.0556244123969805 -1.4895441309311093
H -6.433921904356539 -0.6261560505273202 -0.5193105270781011
H -6.105381227205319 -2.1367172457086174 -1.4456302806137702
H -6.903685374010025 -0.7392381746275196 -2.249259503714287
H 0.5123219343577218 0.0491417589557806 -1.827278248159059
Rh -2.572013247217912 -0.3333019769172607 -0.020723220287933768
I -4.348596207306977 0.5090652769680636 1.7054590846991822
I -4.196551098704297 -0.2633875889374906 -2.1061020623132585
O -0.4826414348603512 -1.9615358332338249 -1.1946210394773689
C -1.0462843619684505 -0.863338975008396 -1.063239637406307
O -0.2724571320273381 0.5345885352508155 1.4048275644259034
C -1.0635025558670779 -0.4128507976498852 1.1913579256675983
O 3.3648582488385372 4.800258961679073 -1.4373761020934332
C 0.8470794506498077 3.1696163195198372 0.6154024327755542
H 1.0230091171127167 4.18598816718283 0.27773155668189425
H 0.013014018660335122 3.1274310421469944 1.308486675184728
H 0.629625591227449 2.538038437194916 -0.24699057450904494
H 4.047904019538165 5.306780995152053 -0.9626277270741018
Rh 2.5073820287582764 -0.2113171499041094 1.5799444221696968
I 2.1046830702442576 -0.3434784800979144 4.154768145870647
I 2.5707889372124186 2.3845418273589245 1.4946985935026338
O 2.2357603311973238 -0.29525207131602527 -1.3667143143202602
C 2.948238456236343 -0.12511463839097628 -0.3599597671873585
O 2.515157323275229 -3.016947543490316 0.6125391603997126
C 2.5396307203483284 -1.9705238339970292 1.1352590759676082
O 4.297299210927474 0.030201330393776503 -0.6106757292230487
H 4.505832477904568 -0.09551478584735153 -1.5577465826582104
Rh 4.689877146995378 2.6665432171820838 0.07974883117215795
I 5.38936892759392 1.5590476108464635 2.3998938390968316
O 2.7730643392596446 2.7398387326690816 -1.969944363138338
C 3.542986985573618 3.435415250627187 -1.3033314593877983
O 7.100594033584142 3.3366218728972874 -1.55548292303377
C 6.206524402791504 3.0967712624495056 -0.8681029110933733
