31
## STRUCTURE-ID: 645703b7a7ff7b4b995ede09 ; CHARGE = -3; SPIN = 1
I -4.823167715044463 1.7839847207063586 -0.4212418956624541
O -3.6010120058216186 -1.2461157180064997 -0.9221523875682818
H -3.577895013515292 -2.122131998891551 -1.3658231745220424
Rh -3.3523137109774837 0.4368977687792093 1.3104357128027067
I -1.981524970837989 0.2624260370820792 3.5929775633074197
I -5.426017132896003 -0.7955308988414992 2.303656635938521
O -2.548007767747935 -2.1983786774019567 0.8084050481326891
C -3.064424641610243 -1.2387472523050105 0.28264695585583804
O -1.2889285122790233 2.242486168121254 0.15818841537571984
C -1.9843245102536093 1.419231397384896 0.5713662541666877
O -1.4162191535708473 0.48263304031777865 -2.2197410270870814
C 0.7071640662523778 -2.3015307176313935 1.5892771275754412
H -0.16713792693824892 -2.763297410685426 1.1471525452443858
H 0.4155803748405358 -1.366367152235525 2.060166103104668
H 1.1781847307927962 -2.9545612009148474 2.3140037621645257
H -1.1858368019936012 0.7065927850638585 -3.1340841401528814
Rh 3.573080870242382 0.2634491777364887 0.7298270060045964
I 5.513518611384938 -1.204986883228993 1.711624442420997
I 2.0782998813477787 -1.793140257222091 0.0814620919766507
O 1.030582977395282 1.3640305266437485 1.3949050580383628
C 1.9065881767358301 1.3140705791597656 0.5199107294076941
O 4.328343300366014 3.002775328120979 1.5926505254044294
C 4.158829554723145 1.902681892383623 1.2586367183937262
O 1.748209564729844 2.1397250582943945 -0.5793395740671574
H 0.9519709577873194 2.698500416153877 -0.48922519434389955
Rh 1.5089349896834165 -0.28434925963182384 -1.9825694634129598
I 4.134757901792528 -0.6037060905335256 -2.1544071867431764
O -0.7263888424391924 -0.46547092888697594 -0.3690092324183735
C -0.3913316552131483 -0.10995069442529026 -1.5114569740168415
O 1.0576399048666638 0.9604466006714446 -4.652300390736582
C 1.242844498197847 0.4683336442225189 -3.6259420545831977
