39
## STRUCTURE-ID: 645729bd5ce3ad403c12b090 ; CHARGE = -3; SPIN = 1
I -1.1477442541910574 3.3087614825034577 -0.4456487484339772
C -2.4166006654380534 1.4761673395856993 2.336645611672718
H -2.8841421161632494 0.6912101817959595 2.9335906523486015
H -3.1729261311205303 2.190095153154885 2.0133686378018973
H -1.665108833966105 1.9822575246487315 2.9496515815874202
O -3.0085095341051846 -1.3057051754858826 -2.2833274013769955
C -5.543269805444712 0.6210761770957877 -3.5158462978353064
H -5.99112867349095 0.2437647682927757 -2.601010319857155
H -5.21127810798433 -0.18185384286823375 -4.163588427128814
H -6.195869518026177 1.3186117610992392 -4.030314040000416
H -2.774842554468954 -2.1744796636928063 -2.6731112615421315
Rh -2.4919046767743733 0.8961216752334551 -0.6307714685504585
I -4.712493731035372 -0.048630725214067735 0.31520841249660764
I -3.720060032353693 1.7714701772147716 -2.948070136453096
O -1.4070310964453827 -1.6483889979018223 -0.7518133693383412
C -2.25669801497046 -0.929337913357375 -1.271009606037582
O -0.6126401782351562 0.26528556005856396 1.3688316263949911
C -1.6977501839073335 0.8075390828442368 1.1689262504580205
O 3.6565390735923455 -2.943599027820183 2.5516524286302493
C 0.5922310250874205 -2.2373795009052806 1.436526690444695
H 1.0457293678608484 -3.214965825191993 1.555304918053558
H -0.47635027184927453 -2.318017275035471 1.2904848744115918
H 0.8064621460499157 -1.6161591868780243 2.302059020852209
H 4.1051063280491995 -3.5597781653764535 1.9486987096159665
Rh 1.4140287083885945 1.2110079218201462 -1.0225888680863309
I 0.043601888115198335 0.4849633925384897 -3.123873267092489
I 1.481726338369208 -1.3035430310344376 -0.22099414610416576
O 1.859393492524938 2.1340851971461148 1.6643702911523692
C 2.3728274589236302 1.6620160842045808 0.6406298309081124
O 2.6755366064260917 3.8315412938521938 -1.6312043526706803
C 2.129274125478165 2.806422660716453 -1.5352709380484324
O 3.7459639453874476 1.4603260317787272 0.6831568420043621
H 4.103619134994716 1.7373828573155807 1.5480440380559735
Rh 4.018976547009437 -1.2576920880189923 0.16506418943502701
I 3.886899476639602 -0.7315337010497702 -2.413195011131086
O 3.163255794277748 -0.8044231381539678 2.812028858399121
C 3.613309770260653 -1.6478388498960757 2.03224649584819
O 6.877963420891427 -1.5285673898497423 0.9759197015063404
C 5.7939037316440505 -1.4482128251696071 0.5692279976095509
