34
## STRUCTURE-ID: 645761165f088c1f3e4d3030 ; CHARGE = -3; SPIN = 3
I -4.959574958548856 1.0530463809411712 -1.4501585113552533
C -4.928494758095372 1.7505933056818224 -3.5389777885846887
H -4.347601229613028 2.6674155481037047 -3.564705150733382
H -5.95871961034597 1.9111383368958992 -3.832668285359681
H -4.448591321936988 0.9770500136778706 -4.1299054555782275
O -0.6364454886272033 -0.5882856444512983 0.8936202403703598
Rh -2.1403684523520186 1.1147798818981465 -0.690704247182646
I -1.4237129741488923 3.3678054944227958 -1.99855440657873
I -1.517623961537783 -0.5363748742291697 -2.6309942922004295
O -2.821791075651619 -1.1182744776504545 0.8489184407324756
C -1.8288531937244772 -0.4315397221222706 0.5674117542373847
O -2.581093368166749 1.873815220977632 2.16224014463095
C -2.403364343964466 1.7204761884274906 1.0156206099608869
O 1.8805356860894364 -3.6186415395762705 2.601913155916747
C 0.3583692309613341 -2.995946373461698 -0.64354819754279
H 0.8060271639723421 -3.8878307540365227 -0.22119043935288435
H 0.09096042689265631 -3.1440082452470035 -1.6842424376024874
H -0.5172131754599887 -2.718965214055004 -0.06447139708734412
H 2.704152449761298 -3.989381759770777 2.2352698864621647
Rh 1.737314228734973 1.1795380460558842 -1.0276734179684537
I 2.3944873450718944 0.8299682468953775 -3.548481291561456
I 1.783249732456317 -1.4349193018044086 -0.49891618267107307
O 0.22335967397227172 2.299384189580989 1.222568153493906
C 1.1588781445928105 1.5701851730581775 0.8768921707007563
O 2.0160208364740546 4.13506941554439 -1.030946229376585
C 1.8766991540396654 2.9990039596093583 -1.1243525565415273
O 1.9629188865868643 1.1075713709399302 1.8871949771932646
H 1.6566802439112416 1.424603514297869 2.7587088041929184
Rh 3.197938478099002 -1.1882600352347472 1.6579734166102194
I 4.457132497036617 0.40510545538216514 -0.10401298677216592
O 0.9834113418831992 -1.7029958718694704 3.256723397906819
C 1.899407511498467 -2.2490041938307956 2.6593729412700404
O 4.98488941111592 -1.430338042745586 4.0447384841457685
C 4.341015469023028 -1.351783692305209 3.095336696225128
