37
## STRUCTURE-ID: 645781ea88962961d17ffa80 ; CHARGE = -2; SPIN = 1
H -0.40790947726208465 -1.4996950212774447 -3.5844206660434947
I -2.82034581265314 1.771048931256252 -1.5829847703674587
O -0.771905744285683 1.982226422590335 0.894219120022008
C -4.075159872092792 0.4892651503976195 -2.8860730633134297
H -3.7830874643469232 0.6970586618579108 -3.9076782170222457
H -5.111175910111446 0.7522252297347497 -2.703528775941918
H -3.8619602482956665 -0.5399298146571083 -2.611247532531687
H 0.20314387789277688 2.0702032995066135 0.9930437390900728
H -5.912360218465443 -1.1865352283931119 -0.27498253834537245
Rh -3.046095946342073 0.43808411091316685 1.0979012607437928
I -5.680350771901268 0.059624878957393254 0.7131725677386114
I -2.387676739142851 -1.832625192565245 -0.10148881221283483
O -0.38747996534059004 0.23313768217866093 2.2465931537647443
C -1.1942946917966262 0.8166254750741038 1.491460076440894
O -2.7107076830934 2.1595910370306086 3.5134971305523703
C -3.0243178768734023 1.5335755170157357 2.5639899952300658
O 1.7234228481504796 -1.6241178308395756 -3.0178215081723403
C 1.9914607478510689 -3.3312188183650115 -0.20286270015055302
H 2.995511461816722 -3.071426066822166 -0.528688350468023
H 1.346968652906253 -3.5941430354979578 -1.0350795616392767
H 2.0407385125741437 -4.144563991477052 0.5138484113878035
H 2.66706807498989 -1.6079050515891304 -2.7688607750490157
Rh 3.3785132356399434 -0.24833817378935227 2.19928877582867
I 4.545465581735719 -2.5093727091444653 2.931384313183072
I 1.1157315403445185 -1.606773501819053 0.8570964311505888
O 1.9068809816512446 1.8526367857514507 0.7952739001165886
C 2.6979053528536245 1.5221270924484827 1.713550314467964
O 1.9782039250799555 0.6452827466468904 4.669347902594953
C 2.615291209093477 0.20788293450139955 3.780114420719487
O 3.1347135320621824 2.5887270169160415 2.477503136775128
H 2.7979659085406148 3.4395603669429207 2.1311106268057745
Rh 1.3828328585365708 0.3683598543005698 -0.938918197152899
I 4.345101492606949 -0.21122999636165662 -0.32384664616098435
O -0.279005695114812 -0.8210876017395984 -2.8724944400344308
C 0.918967474305796 -0.7817923500080616 -2.4174603677695647
O 0.698729144728457 3.043815787086305 -2.009356516650459
C 0.9692177037581197 1.9396954032399465 -1.8146018375871105
