39
## STRUCTURE-ID: 645704121eebe269e20b534a ; CHARGE = -3; SPIN = 1
I -4.417827137442352 1.599427250715116 0.5071165229859066
C -4.886144716820903 2.295939246765964 -1.5337670412610471
H -4.35720523272636 3.2308830285465198 -1.6818800705554648
H -5.961617811677939 2.4153677124652293 -1.5873369383106488
H -4.522563718820778 1.537749126023687 -2.220848636366643
O -3.3032858511117325 -0.6869883316799357 2.6729120495780663
C -2.346823734641725 -2.9037792174630233 -2.0476944573362337
H -2.922918459645216 -3.1562512464847603 -2.928821299690958
H -2.8095271072395076 -3.2614811639977557 -1.1349299349393864
H -1.3180503769879206 -3.2432053621122803 -2.1148695158560824
H -3.9555363101814525 -1.37145177202019 2.9243843572274537
Rh -1.7470919103317304 0.3930601726007803 0.5954772377837483
I -0.8408865980370366 2.6714203527883806 -0.6798006035570537
I -2.3060139168995866 -0.7392766075114963 -1.9052500314802467
O -3.165135605550396 -2.0412384035814175 0.9077972830887074
C -2.7575411010102204 -1.010673034066509 1.4394789866864757
O -1.1017242488429246 1.5320968778179302 3.220741659144308
C -0.9530967993626027 0.7714597489344661 2.301517581474898
O 3.538027043372994 2.805049273653203 -2.029199830552398
C 4.956008082190875 -2.1264041816908907 -0.23702514059604807
H 6.00574885491586 -2.3454197402398247 -0.09178715953199344
H 4.3836473458385905 -3.0019847528827657 -0.5199927557808499
H 4.524341267238438 -1.6607372912569063 0.6428503320640255
H 3.480835576594277 2.252741569232655 -2.8264586195122563
Rh 0.30602152393290943 -0.7376461495839757 2.0123559283818335
I -0.7059826471344607 -2.9386034696819068 3.280180998746595
I 4.79831424674359 -0.7112164279427587 -1.8466275333641533
O 2.7482224369202557 0.35304836096867714 1.1552103800293216
C 1.5223672679503775 0.660794079334739 1.3520811775157227
O 2.135260779641307 0.4341607959459701 4.029273559560605
C 1.5390139939140162 -0.33502000180365366 3.35566694329715
O 1.2955101632457355 1.9770396463744377 1.7050283135029143
H 2.0142186370527693 2.4880447968047883 1.2217013694077916
Rh 2.123160618295425 0.46701824572991496 -0.860887931156933
I 1.204691251845102 -2.0657283019960473 -0.31816396682199766
O 3.015466653327655 3.004831190500697 0.07702900244448194
C 2.9091422799376634 2.2891271185849993 -0.9330178673408472
O 0.6051769604472944 0.5567411969692524 -3.4211252641080803
C 1.2737983010596805 0.601105665238446 -2.481319084800848
