31
## STRUCTURE-ID: 645700b71c73da784f051b8b ; CHARGE = -3; SPIN = 1
I -3.3199799714308043 2.483767619773581 -0.9344768810819881
O -2.693865844238875 -1.621784851716454 0.8134111612064664
H -0.18889375577276768 -2.8263023088724446 0.6216690258631853
Rh -3.3548283953278286 0.9483526694547076 1.2239549008435475
I -3.6762464358602176 0.3513708102410838 3.8033444605027524
I -5.726603492378478 0.0296897952468316 0.5942114250503299
O -1.3359249013305616 -0.24184363501047268 -0.33516239394563485
C -2.2288566957602276 -0.5678569239596825 0.42988943043440986
O -0.84786479277778 2.1615916212232396 2.2556167959031894
C -1.809574835302314 1.7031464178748534 1.797148770468901
O 0.9726722699021122 2.8847317808704713 -2.414778131955052
C -0.6302784914995284 -0.8737992691393732 -3.0011082101164304
H -0.2802886497615193 -0.9601965418449937 -4.023339400931592
H -1.1108558543810756 0.08227444391265305 -2.824263972160671
H -1.3143374612562713 -1.6765487487216044 -2.748397304310656
H 1.708519623144681 2.7144844083945054 -3.03156097824583
Rh 1.2586441205567567 -2.3477524041134896 0.5981923017815776
I 1.9316951816339254 -4.579753823829967 -0.6839204481714581
I 1.0405202336425954 -1.0108859799069803 -1.698503464159152
O -0.3411881127533021 -0.687600626143355 2.377014397090015
C 0.6246052952997201 -0.712584332924749 1.6234743916886336
O 1.5628248223325787 -3.604368352502679 3.2659717716462846
C 1.4910466279822878 -3.138751148180879 2.2251225560424968
O 1.3881706777571914 0.40111664413775716 1.5142634972101052
H 1.0169384142863607 1.1571105502228112 2.0141962351244076
Rh 2.486886149894775 0.9602308132246471 -0.7907748267191052
I 3.7284811096763852 -1.2680805528691579 0.20678314394609792
O 0.27195366642535723 2.471350778642044 -0.35634812490264334
C 1.1233933595702699 2.2836911064617778 -1.2140990872395205
O 4.504223840986241 3.1722544714220806 -0.6002345065292823
C 3.7490122967404553 2.3129455686330878 -0.7072965343333635
