39
## STRUCTURE-ID: 64575078a24df90214242a33 ; CHARGE = -3; SPIN = 1
I -3.440472613672944 2.8655503109940947 1.4407680311336413
C -4.049117235750452 1.886053600434133 -1.736535596247796
H -4.848632444139317 1.7723391804357138 -1.0114702099491095
H -3.7219856157419717 2.9270396133771652 -1.7373198542150274
H -4.404507384471925 1.6339827686829085 -2.735265394912339
O -1.2299327869660357 -1.9159865227581836 0.8844666770054403
C -3.839272220986688 0.1529765872203966 4.2809993930417845
H -4.5353049146062805 -0.507992632996458 3.773525203623911
H -4.149723558516954 1.1882575038526433 4.176117787309531
H -3.7055562908683335 -0.12314819534116286 5.3195086387794746
H -0.94885336205646 -2.8015563160782873 0.5815867964479031
Rh -2.2502351667847247 0.6346421100809352 0.43321876591527075
I -1.8700412496350634 -0.06183014089006528 3.2943181748330357
I -4.442916692800269 -0.8920792912550471 0.4779176398616695
O -2.2930206823760444 0.5050986012626743 -2.4412405168594855
C -2.8321656739562657 1.006994332974696 -1.4651802854691267
O -1.1732334327550353 -1.5606783886618933 -1.2980100375796306
C -1.3707121277095855 -1.0502701970764172 -0.19373911232658977
O 4.43989280764951 -2.4951466411373064 1.0508441614731012
C 5.677649294779058 -0.3167125209783345 -3.326704338806192
H 4.753207713532751 -0.17400632675805064 -3.879893541958961
H 6.035468267719714 -1.3379707710561404 -3.3872756996497406
H 6.438362835408206 0.40221114912869854 -3.6115581437561666
H 4.792286673518432 -2.7612465634077847 0.18042061404518206
Rh -0.05871009375603981 1.2567159526014515 -1.0480228808265668
I -0.5499425952969681 3.6482396199076317 -2.1936577515283107
I 5.197838798464014 0.08561421564434678 -1.2015000256215072
O 2.116210776964588 1.225212695803582 0.49184082448028005
C 1.048342924338378 0.54687053111456 0.4016558657541587
O -0.15673223991027035 2.360333218055403 1.611416625839204
C -0.5621985593070797 1.695109968369973 0.699860012331227
O 0.7334907091226261 -0.23041640586773302 1.511516087132616
H 1.604728550154339 -0.4595812919065897 1.9395969840353757
Rh 2.6691517716845032 -0.8707518986234124 -0.6256934575117695
I 1.6911327020736626 0.3347479401565598 -2.837421048724607
O 3.064547442384851 -1.1843293025670523 2.1317957802362457
C 3.4341423237633197 -1.5906296608307633 1.024526011072736
O 1.026822686211546 -3.3502977277374213 -0.3557686950666828
C 1.7099906642953286 -2.44335910416956 -0.6196434833422645
