37
## STRUCTURE-ID: 6457a66b45ec091f30662c63 ; CHARGE = -3; SPIN = 1
H -2.196787181142961 2.9603655791518233 0.7173441475033647
I -3.176873803280103 2.4153114582592545 -0.5858148297279466
O -4.398650827665416 2.2096426446364092 -2.2935118983338563
C -2.9280698089145445 4.446230510321251 -1.2920861400794406
H -1.9315995221828082 4.769111564444069 -1.00164600428265
H -3.7052130233377785 5.044239429442233 -0.8263075289274596
H -3.0337473454692816 4.4126085843888925 -2.372513654173457
H -5.194457238628935 2.748118183385719 -2.2743284121400973
O -2.2970901268084196 -1.3790585681300918 0.7915783611210344
Rh -1.78929258253112 0.3139323085005539 -1.471912509751824
I -1.6142175401017542 1.536248170893469 -3.9125288094645154
I -4.141631586222395 -0.9633788372555812 -1.8728670800874163
O -1.3847205568342122 0.6214563238869514 1.209695649558991
C -1.8376153774437585 -0.2825256601092159 0.4842127216401386
O -0.6988837616652575 -2.1793542530894836 -2.650044792497706
C -1.0396271717808299 -1.1958015842085148 -2.1181579174552474
O 2.978441687498465 -2.75242372351925 3.6918463559353283
C 0.1550993315438583 -0.8087407379082431 3.1276544193807387
H 0.7235522254862435 -1.2876066575168874 3.916325057158016
H -0.3619287113239016 -1.5641348781616489 2.5384695159408484
H -0.5587835202678896 -0.09357288232122386 3.515701585509212
H 3.6961137249950125 -2.1621394624534727 3.9857006133227917
Rh 0.9688182928880202 0.5221504981812205 -0.7741096316603342
I 0.6611127983711271 3.1022583447623884 -0.5915209391211593
I 1.4779020660935398 0.1325764718773449 1.8073949325113297
O 0.26875111380272904 -2.1889354367412404 0.011770925186708346
C 1.0448667671314573 -1.4521915533823013 -0.6044920446731088
O 1.4462851397384864 -0.175530630414622 -3.601472723626777
C 1.1614124003203437 0.22164195917786317 -2.5538515314952277
O 2.1523030623766664 -2.036887530821451 -1.1753548139639651
H 2.1675638990074053 -3.000353165547322 -1.0141676132817474
Rh 3.545698137900592 -1.2950024936843114 1.235318313986604
I 3.943299614912498 0.9597340645455139 -0.12417693932462291
O 2.033163665264563 -3.5698341391648447 1.866833670014428
C 2.8080590644842314 -2.7370798452228557 2.3246712418952935
O 5.975246878493169 -2.997697739821199 0.8582928398526115
C 5.081499815293141 -2.2933763163814866 1.0280554635512698
