31
## STRUCTURE-ID: 6457020529b6de743f62318d ; CHARGE = -3; SPIN = 1
I -1.9159554878104788 1.028083949765137 -1.6100775198692467
O -5.995533501960075 -2.540473766568322 0.3752538605490329
H -6.490451760330759 -3.1362111444430854 0.9823064624698141
Rh -3.966051225474222 -0.6643645802125958 -0.23208597103262618
I -5.71473150782883 1.1947254877507438 0.46026451138968066
I -5.30387150999268 -1.1873777433626342 -2.4528017134126388
O -4.753027616444567 -1.971506935699338 2.1332022921406324
C -5.030989881728065 -1.8739559726297383 0.958486075969272
O -2.3300896808544036 0.33539961414616276 2.0540630300280154
C -2.9573547790395436 -0.0990663044126699 1.1959649801706034
O 3.0157030220719085 3.939081718548137 0.06761296978366439
C 4.58946327899033 -1.1019253838585135 1.6837390615758363
H 5.6487471827360345 -1.286656218073168 1.8090417959635026
H 4.251578697535284 -1.338972625105802 0.6809257505524745
H 3.986180758778245 -1.6204264241437163 2.4199145277840857
H 2.875493622258268 3.9321418475932624 1.0283096808990766
Rh -0.04822429620295877 -1.1490466217785604 -1.196504454750404
I -2.2210057759725337 -2.7486536572593523 -0.720123063375184
I 4.256481911295878 1.011604392324972 1.963634961929852
O 2.660993611763311 -0.08198538015398163 -1.0785464925164494
C 1.486355684040813 0.0305865849184674 -1.532837580883037
O 1.8095127348931308 -2.1999217966256817 -3.2814733909552416
C 0.9553078944691701 -1.9824048715625473 -2.5068978818838112
O 1.3185662741029327 0.8036203247099836 -2.6581670009729828
H 2.018910938496063 1.5034040927934897 -2.6429068569421195
Rh 1.7489007757251331 1.3030734218260915 0.3735261267728217
I 0.7933715602144552 -0.9915114767094597 1.5243846737556905
O 2.8195301898912675 2.803681305901464 -1.7896112251960001
C 2.5634559489339592 2.8251631240773136 -0.5861953920124331
O -0.5172694220310476 2.895214579960992 1.4822849215781422
C 0.4460023594740143 2.3686804582825913 1.095312860490323
