34
## STRUCTURE-ID: 64575897e4634f5db74d3036 ; CHARGE = -3; SPIN = 1
I -3.9747391374093892 -2.7231977543223747 0.19469328089935173
C -3.31797399329478 -4.694477016814314 0.9015189502789964
H -3.857331294801926 -5.421080417081708 0.3023652536000428
H -3.572897638604321 -4.7543778949184 1.955638053101072
H -2.2417580610697443 -4.760348186387378 0.7544890041751031
O -2.4654596850523616 1.2529557025530689 -0.6704143418382525
Rh -2.974534741602566 -0.6349469934659174 1.4786870328696606
I -2.401197565688426 -2.124966607956704 3.624681185139577
I -5.282328628908647 0.6635292788003662 1.2407940876007852
O -1.354073100392199 -0.7195787863695402 -0.44768731072934764
C -2.1157246045285216 0.19464194118980913 -0.22043224320840665
O -1.888041500027536 1.647294881638456 3.034397240105922
C -2.2818866589973603 0.7590338105877111 2.4060891061166845
O 2.629003665344934 2.9047208221691 -3.3683518195703024
C 0.011710857942013073 0.45292910142916015 -2.8081807682554536
H 0.42231800324086 0.8611900232681352 -3.724094112307547
H -0.4252259604605531 1.2551310570231682 -2.2152564505155623
H -0.7386333988412241 -0.30170623636722865 -3.0144643771196376
H 3.4318815143989005 2.495983769276683 -3.7374067409123866
Rh 1.1713416322955126 -0.8729466053386146 0.895399121243884
I 0.7629117711396101 -3.41928915086149 0.5500444313144903
I 1.564564446208378 -0.35995378361474833 -1.6428355660098457
O -0.02979258243048711 1.7346986478458268 0.8830123400430073
C 1.0292595910352682 1.0933619579538056 1.0025013314220872
O 0.543333103156465 -0.12686900226158868 3.69442497833571
C 0.797844052682684 -0.5956876404335029 2.6506030635136426
O 2.169320844576653 1.819789155045513 1.280190185460701
H 1.973087427428071 2.772556516322459 1.3551001147445076
Rh 3.491314138385856 1.258932817632473 -1.0964824852193897
I 4.175015336221446 -1.0550902926846253 0.06248425259433138
O 1.533925055704024 3.2144699101144316 -1.4747989649616409
C 2.4805418059432687 2.648807298346177 -2.021678503303462
O 5.78893452247974 3.1570456901873287 -0.854812706019598
C 4.945290783926342 2.377443987494419 -0.9702166225887842
