39
## STRUCTURE-ID: 645729f2ebe0e31280408603 ; CHARGE = -3; SPIN = 1
I -2.100440100980664 3.1553619197893448 -1.6589087910510611
C -2.825086611927656 1.7965769822366944 1.5815461773693344
H -3.0206393148805426 1.2167109578387925 2.4838306487264177
H -3.764012658900207 2.174677747346173 1.1684150943813554
H -2.1730818011794026 2.634688399759646 1.8361464131971423
O -2.5256765866118327 -1.3583984418784572 -2.9279971744080227
C -6.115463804850201 -0.6957187922707297 -3.5235176162496766
H -6.455348267439779 -0.9263815779314096 -2.5181238605358374
H -5.633312136997937 -1.551894794587256 -3.9805589595980453
H -6.912642761682413 -0.29973861001182955 -4.142625458805732
H -2.0420078416193164 -2.139456081160216 -3.2611450128351467
Rh -2.9530559654081006 0.6912010217554831 -1.1209779538194684
I -4.602097784760277 -0.8994214817409978 0.08586149491484553
I -4.585209032070167 0.9027157634371396 -3.3543181025966042
O -1.3114879192037792 -1.5914699701687551 -1.0610110728345779
C -2.1248493694359163 -0.9649178990319983 -1.7206237022950808
O -0.9862441273156428 0.4269291822305768 0.9412580308643423
C -2.0625312844032475 0.9145044702500587 0.6014393823173144
O 1.9294362379762091 -1.3325497618590836 3.944176134413759
C 2.5311385863062643 -2.8026597849074903 0.7805259710702481
H 2.3582101597540737 -3.1873612491767753 1.778758513544294
H 3.547343881144396 -2.434554050769058 0.6951305145759388
H 2.3263161866453927 -3.5537866215106324 0.027691394580839676
H 1.014074935083504 -1.0199808180810133 3.8579932513109583
Rh 2.5246703234713097 0.5541123205902037 -1.198028568285302
I 0.7506563799550968 0.3801572034043768 -3.1465388823701557
I 1.21235066114418 -1.1416712341124624 0.4731015217420312
O 4.673555317151124 -0.5104203840257879 0.371401208244465
C 4.004137936689296 0.5058809634413503 0.1163638855303229
O 5.122643260712777 0.764916706870074 -2.6356201297335318
C 4.032925134028346 0.6854839180705701 -2.2091948649980435
O 4.588567856717852 1.7185379913163334 0.48062067869628083
H 5.444209818864294 1.5501312112171926 0.9154194221696902
Rh 2.1559762035772185 0.8128624950718524 1.9873162573320846
I 1.2693092926589464 2.6749040431024627 0.2815975251461113
O 3.9972265307210026 -0.9342711631711627 3.2889008275742397
C 2.8279765077173007 -0.5931095150028741 3.1735338969182956
O 3.163824468233683 2.4795397857729946 4.246568710021732
C 2.7186376911147683 1.8978691478968026 3.341593195774213
