34
## STRUCTURE-ID: 645755158f6c901de9230d73 ; CHARGE = -3; SPIN = 1
I -1.4732966312049522 0.9245769090329757 1.5472272576459463
O -2.9193759598809255 -0.16989085045286523 -3.303144990466329
C -1.4630735102751624 -2.8469780774099127 -1.8738746629876954
H -0.745498174743878 -3.38115249995957 -1.255855950065754
H -0.9679612651942703 -2.0473223451312426 -2.4257923329728337
H -2.732895908310608 0.009859307650000614 -4.248094645279082
Rh -3.1698821331585965 0.6068816745862035 -0.6187814271022449
I -2.9592687513536373 -2.002490453932229 -0.6859071526254713
I -5.646407335075263 0.21611956392718643 0.3355274774301168
O -3.1601677117219116 3.577084980125588 -0.618526679589985
C -3.2471836900034985 2.4252274618827916 -0.6159864637459741
O -2.0934156879466608 1.8769319888487017 -3.0485317725576673
C -2.5850530695054053 0.8867146364646586 -2.5138984598793153
O 0.6288257060612688 -2.459999126094591 2.4198973666333154
C 1.6756124777209178 0.9065236625971703 3.9311200326203997
H 2.3343785219131448 0.3612363922091272 4.599780822024032
H 0.6763708380129416 0.479212566411524 3.8827948093731797
H 1.6264386997606775 1.960203235776342 4.195039659070072
H 1.367611704622366 -2.6595920188731905 3.0239593608913755
Rh 0.8318732912927312 2.0915006736553874 0.35669479072756627
I 1.0094012610988785 4.199905038821169 1.917409726798321
I 2.547899932813273 0.8089989559933973 1.9268719631076867
O 0.007098905780820219 0.2751961156257636 -1.7998191062981184
C 0.8991839957288978 0.6623645272267646 -1.0410176465305006
O 0.008219981677794043 3.667827006051198 -2.0414608016605538
C 0.3071708280731599 3.088944446453998 -1.078024512159556
O 2.1687317077741213 0.16774590679670376 -1.2988731104084466
H 2.182565054238118 -0.3720378876183643 -2.1151890541858003
Rh 2.8728907835867927 -1.494092829882099 0.768701078516162
I 5.266968309392939 -0.6532345944892568 0.15289108003597557
O 0.1371685040952538 -1.6694675463576414 0.41861270206640866
C 1.0253383739902973 -1.9355076971659264 1.2271163389210304
O 2.7050903518747256 -4.276747096999739 -0.28709970495949855
C 2.8846405988655404 -3.2245420257701105 0.1662340076133342
