39
## STRUCTURE-ID: 645751ee0e87ac30f84975a4 ; CHARGE = -3; SPIN = 1
I -1.7211532241867298 1.6124221046458012 2.8322512334302696
C -3.202005563485921 2.7308657897231363 -0.34005313764139067
H -4.032377835285045 2.6220978403078194 -1.0390157889186087
H -3.5943126955007085 2.844530536385178 0.668249982438102
H -2.629158990336097 3.621981989422995 -0.6182586592948164
O -2.6951039758965845 -2.4317025865250708 -0.8124972815036908
C -1.0185486613502033 -3.0683179629145902 3.3824798509743172
H -1.0746977691962922 -4.146141106890722 3.2746828795311074
H -1.076569350493437 -2.749207240486854 4.417888259271686
H -0.14663047021851547 -2.6507052593122364 2.8859440211793608
H -2.921778997078386 -2.9615860937036 -1.6041624856133754
Rh -2.51100263374763 -0.06808872947311898 0.6482373627764211
I -2.7657431577264546 -2.2313237228967635 2.3476510141015
I -5.143608480974604 0.15499894557777583 0.8060672771972112
O -1.4877295678071856 1.5427156054340787 -1.4545903375323006
C -2.301692900546383 1.5040943783118483 -0.5325897108020528
O -3.2001704742496297 -0.6583720992061929 -2.0651856601229723
C -2.8669254700808904 -1.1126529955937214 -0.979083831557434
O 3.317020553796307 -0.19186999524730022 -4.116987055189636
C 2.9971405187013755 -3.1045581074896167 1.0636262578190696
H 3.747999013101497 -3.8795068968516206 1.1801533135875268
H 1.9925835783894228 -3.500262394693824 0.9575069678146505
H 3.0371141040525638 -2.3701349136557215 1.8620786605425714
H 3.2562941171052184 -1.1550315322692102 -3.992297912897582
Rh 0.6630109974148407 1.9785073888514 1.602456112796512
I 2.0778834715235868 0.9326144871340182 3.526316741586994
I 3.4703915337840257 -2.0569001861711635 -0.8262309254204867
O 2.887978827092356 1.3495607377813312 -0.14356281299694393
C 2.338575650561912 2.1664907092614514 0.6139390074459499
O 0.08434279655559389 3.8600034302282107 -0.6429205252464294
C 0.16617258399431364 3.0996444356663284 0.2612745135374789
O 3.0197566740627915 3.347985581377198 0.8093204826903855
H 3.8711203639926737 3.3449898205207194 0.327515720945888
Rh 1.681089371979841 -0.23511929456939928 -1.6453570532434243
I 0.11181114696168874 -0.707123605254701 0.38425604549236836
O 2.865048339923505 1.7554112879058024 -3.1872519614110932
C 2.7191520032726673 0.5361982156154197 -3.1024927234126745
O -0.31145485530721634 0.24246458973351173 -3.8302939472202935
C 0.39617942720215543 0.0310268493214926 -2.919063895134174
