31
## STRUCTURE-ID: 6457048382ab79157867f9ba ; CHARGE = -3; SPIN = 1
I -1.9000512333969084 -0.5208155021055489 0.8868850003950186
O -5.149193422576423 0.2989663135252963 -2.1748775422524287
H -5.997315580656344 0.738722192540991 -1.9522695082212764
Rh -2.4131799768814712 -0.12666530787293137 -1.7574447833955524
I -2.5355838607290146 0.43320697856995893 -4.339132126998621
I -3.3578418226669053 -2.624418318359227 -2.071435130839254
O -4.280666518410326 1.5837530118821133 -0.5727574716411045
C -4.134179364932678 0.7184143585780532 -1.4212824597197442
O -1.766541219879478 2.7138843743598016 -1.9309772462740549
C -1.608324363643982 1.6286322039501973 -1.4679767926798544
O 1.7239546055536945 -3.1390457221481487 1.921868783733972
C 0.46765465011430085 0.19156413003755302 3.6899643740607435
H 1.0442547281485663 0.06937800602884263 4.59940250204874
H 0.0036740746026774863 -0.7405833629260937 3.380706193232555
H -0.2889355420508911 0.9602303029225523 3.806926132602033
H 2.5044447616202232 -3.1643309939377176 2.502229501230094
Rh -0.15638867593509692 1.3717767292667982 0.02668407934334201
I -1.1908795761755204 3.24623982868247 1.6321525318402568
I 1.8232059937938028 0.8207269065854559 2.1286768178428592
O -0.0104115660482045 -0.6483379340263165 -2.0862578229985966
C 0.6327850435816414 0.025511183197567466 -1.2741776897157353
O 1.4896369965982674 3.329629272024107 -1.488503124349324
C 0.8961750175940194 2.5974709958547915 -0.8316435852815853
O 1.9826429862831985 0.034097151489169274 -1.423104436727737
H 2.2682542077509615 -0.546173547934462 -2.1588324532623417
Rh 3.2515551965257217 -0.8764852706105928 0.7778847567314318
I 4.734887937353272 1.290443019386986 0.5123887574081092
O 0.8624863135530536 -2.1081207974215888 0.17069038978635004
C 1.82353674457444 -2.193301446329452 0.9395995154919105
O 4.9394425069281915 -3.133315945048607 -0.22002527415782444
C 4.340900959407511 -2.231052810161984 0.19463811276795992
