39
## STRUCTURE-ID: 645708e83efd34414f76345c ; CHARGE = -3; SPIN = 1
I -5.491960710471579 -0.7973566097094407 1.8827529672992198
C -3.0786728599521815 1.5863378618165678 2.3924540474511566
H -4.075104100239381 2.031461708303431 2.3332590310922567
H -3.147999160473024 0.7533000072774021 3.092564088491812
H -2.3565267691860865 2.323241051458636 2.746863920047243
O -0.018873191558983288 -0.9714544854598498 -3.4139935858070376
C -1.934023021600304 0.9418593372054543 -2.852174173519604
H -1.0573662284851197 0.9802415209525405 -3.485068982866419
H -1.9337963039402037 1.7812280376473106 -2.161412879322612
H -2.8325583917408266 0.9504651904662824 -3.460410973419635
H 0.6749688019720411 -1.556431257879414 -3.106059593528842
Rh -3.5787220743249466 -0.4580791539892784 0.1699595019144882
I -2.9133812147678624 -2.947296447934243 0.29866046651078004
I -1.8079990041494798 -0.8793843539877588 -1.810360590946374
O -4.787711094997631 1.7432322847929942 -1.4140193051573342
C -4.35285040565029 0.912830048324796 -0.746162770178715
O -1.7952955401078996 1.6678655153339137 0.3756888720602179
C -2.665867210283464 1.1437653751755126 1.0283785778533303
O -1.0433380239340315 -0.6596041509500581 2.151232316471476
C 1.007182788057652 1.4544635531711456 -1.309534676914951
H 0.07229332846150903 1.8167423607940905 -0.9009842068454741
H 0.8613893661193094 0.47964790844064475 -1.7723287183974805
H 1.385740702841064 2.14587820236416 -2.0603145274548527
H -0.9857936255626281 -0.5179264116314076 3.1132254048982815
Rh 4.466535178484484 -0.06647081065453954 -0.7033472351271166
I 5.781358871603737 2.130756048487323 -1.2716913087466533
I 2.3968545162623536 1.1916421466672944 0.20906665606975058
O 2.5313181305446526 -1.9901498160418396 -1.625607827129279
C 3.2051963509865735 -1.5968420087679192 -0.6565545421546987
O 6.085167918543231 -2.203594595120145 -1.9840697754594192
C 5.564141323993165 -1.3069061426999249 -1.4556162943524737
O 3.059819344478494 -2.2733510314585508 0.5301854586206045
H 2.459354895394878 -3.0385271367144293 0.44330826718629096
Rh 1.9764796161955787 -0.39181391637393803 2.223288251620783
I 4.506462007849943 0.4802285565017223 2.385599628442519
O 0.16862212254113443 -1.262885501875136 0.41003872501727967
C 0.19448351287763246 -0.848379666996361 1.5745542743001488
O 1.7042361323543571 -1.6068866038476983 4.937583739194139
C 1.7562340218643453 -1.1418466130889993 3.8910477727874073
