34
## STRUCTURE-ID: 64576402cc73f0479a242a24 ; CHARGE = -3; SPIN = 3
I -5.026100138444541 -0.4993393472457388 -0.03226230187969738
C -5.193162232241809 -1.759407374237205 -1.851843227078183
H -4.259938224264556 -1.645844861343004 -2.3994447114390445
H -6.046298454466305 -1.3783747375850643 -2.4046537230390097
H -5.333240461783727 -2.7851445429762487 -1.52264554363785
O -0.894873787096453 0.6698420845398824 3.671546458229588
Rh -2.646644286630484 -1.0777058148008278 1.0661944202251328
I -1.2127902160578712 -0.8111871047058239 -1.1535134486133871
I -3.030737495872247 -3.679879507498839 0.9379342764931976
O -2.6060951649383393 -0.7795349301123279 3.5417762007466833
C -1.8996776806999363 0.17714364789556625 3.0912976854991285
O -2.66358206289713 1.8725616367766436 1.5084647029171914
C -2.37830396658739 0.7055006664331371 1.7466923124664806
O 1.5091044699823049 3.438030609746769 -0.3548126552775643
C 2.3400710312623456 -0.41447326779282145 -4.121323543295535
H 2.6774646935993958 0.3781391481196356 -4.784339455680969
H 1.2944797488015707 -0.6746093261382875 -4.266613406481966
H 2.9795696588806293 -1.2940249362541554 -4.151251845489785
H 1.8618227236539464 3.13009238335536 -1.2141454366093523
Rh 1.5170595724807363 -1.1085597989110683 -0.20274430527600684
I 1.8659208254627557 -3.219016443231799 -1.71116117663874
I 2.5322590938150458 0.47954191035331806 -2.0126734538891946
O 0.06704359825006465 1.0658619451344622 0.8990405826801702
C 1.1270110665493558 0.45274365790934956 1.1319013962664521
O -0.04948209185285685 -2.079712317210424 2.1260534279007413
C 0.6481150690958731 -1.8149446355498375 1.2251487356657491
O 1.4844258275180304 0.29386567239632677 2.492225429278928
H 0.7588876315519923 0.6617992391804703 3.0378296631102693
Rh 3.0916689110395317 1.147629107046174 0.6849848565534419
I 4.283030348636276 -1.1888283166119809 1.032340883175345
O 1.6792645025476278 3.207092535457219 1.8369503992632907
C 1.987356433544252 2.76252405397785 0.7336842205714483
O 5.082907142514852 3.364408994298067 0.7630069367742862
C 4.453463914647071 2.4038099695853457 0.6563556465084505
