34
## STRUCTURE-ID: 645753e8af58b85e594f7334 ; CHARGE = -3; SPIN = 1
I -1.6551606068303815 -0.29780054602149086 -1.339695279297492
O -2.6366254074897406 -0.8662753008368986 3.2333819565373925
C -0.5398717506291533 2.195906335788527 3.3612928285931263
H 0.39440986147788537 2.7117741174782957 3.1754558793750305
H -0.3983967979716695 1.1681250092141688 3.6786430483286647
H -2.3939999820494187 -1.6477628095760202 3.76813162870164
Rh -3.240414785269492 0.36756145037310173 0.8006581590206179
I -1.7982843420266812 2.312510103459349 1.7368571263621784
I -4.579173525936597 2.2912331992305726 -0.43254984744147673
O -5.251481378806356 -1.8321290181701246 0.8427734207270182
C -4.560556757475387 -0.9038110653670847 0.7684745686893955
O -2.0634381350592794 -2.211844648777339 1.5499246081429927
C -2.466539318305334 -1.1025769142430515 1.8973607340466878
O 0.5956341410477315 2.6034314069004476 -2.001910253409463
C 0.8732797722218602 -0.8080284161011589 -4.220872591064143
H 1.4887472745493313 -0.3669178372297844 -4.997658894477285
H 0.003451941312934738 -0.20333018867852257 -3.9813070818825156
H 0.567587707025939 -1.8168579448815292 -4.480672071565276
H 1.1393143615725798 2.6630370214875527 -2.809280609083184
Rh 0.21351864330266337 -2.0099035129397893 -0.5538132943362746
I -0.503577394084524 -3.899056686379844 -2.239883329802768
I 2.115279800648113 -0.9692503797474341 -2.4314907968190322
O 0.0787128078043791 -0.41387616450394327 1.8837127252395978
C 0.7596691171558855 -0.7700270962302075 0.9176910063732224
O 1.316552880979572 -3.659588282793482 1.653018574387181
C 0.9437234890841371 -3.124546791191114 0.6872525429244388
O 2.1045469509303145 -0.46201064474323406 0.9767584958797677
H 2.325883163392872 -0.011547818252917686 1.8160914687357466
Rh 2.936966557659877 1.0704920434780265 -1.0201870881781012
I 5.133886983816449 -0.34882586052728654 -0.8257066239333947
O 0.5843012195620009 1.8957502341203583 0.09096922261099656
C 1.2039475403916033 1.9626203539606588 -0.9761632725634694
O 3.7730108350742766 3.769774540478808 -0.05893546342778495
C 3.5350951329235003 2.7137521112222553 -0.4683214973939706
