39
## STRUCTURE-ID: 64573ce7bf39f7490773b9e8 ; CHARGE = -3; SPIN = 1
I -0.5086664290153199 0.5989741897107244 -2.374057574804876
C -3.195340219355339 2.922193277523547 -0.30841262471753733
H -3.0614659666508928 3.91193991606264 0.1261666221699282
H -3.2078495875662 2.99258914743291 -1.3956114886322992
H -4.133057985423975 2.481541813597262 0.01976333013554264
O -4.115563545157178 0.671892216498496 -1.7863997182915907
C -3.0269794701319737 -3.740759468450233 0.6315223033144742
H -3.3279789224198493 -3.436858007716498 1.6276031732742873
H -2.868844309031627 -4.809711311742175 0.5800651391097937
H -3.762868109556938 -3.4203547443266613 -0.09620969725479744
H -4.81497728528947 0.3311355012684527 -2.3813102518798517
Rh -1.8837665128532894 0.11970524417241124 -0.12536545296959534
I -1.1484743418130094 -2.750021975757359 0.13446798362696827
I -3.5068727403563664 -0.11043986940616857 1.9266783412409982
O -1.0264669414030012 2.567802727865395 0.5998664208281236
C -2.0158984527322095 2.065865858470214 0.09368970597283964
O -3.5804279696316352 -1.4788654543329656 -1.613950193820861
C -3.3583033764125636 -0.3177684041319798 -1.3019414729360181
O 0.8687535821442608 1.6170826243872085 2.8166407197553416
C 1.9205130146313865 3.167921567484737 -0.8115070549352963
H 0.9960099579649131 2.9517078602472386 -0.2870524176709598
H 1.7686022078845884 3.061730904240525 -1.8798307153406002
H 2.280671452848416 4.157683663471273 -0.5603604023342319
H 1.6773482368268957 1.9556076005790928 3.2402748146192475
Rh 3.909264733381386 -0.6284498048353889 -1.3725112974241118
I 5.679351072202658 0.47045180165388345 -2.9839299629767364
I 3.38632198486488 1.7298189045123302 -0.19269894816678446
O 1.282927241153342 -1.629052182207287 -0.6474281925267185
C 2.497609792569456 -1.6283692963589385 -0.3685853257566494
O 3.107768646969348 -3.000840068193085 -2.975849062367012
C 3.5279972080941215 -2.0606980139595725 -2.428013778714893
O 2.95568913546023 -2.715055888035473 0.3640472627483121
H 2.236004769425422 -3.3463566692565845 0.5461481543333943
Rh 2.964308408194346 -0.030904589424250613 1.6614336526118327
I 5.54140985880291 -0.5000936587358464 1.0818349205967495
O 0.11787409054483644 0.08488880543227759 1.416353140446122
C 1.1112681677448786 0.5613073886553034 1.9501226540165124
O 2.1376570990237274 -1.7415469465799935 3.958450136527615
C 2.5764515040685114 -1.0756946598156676 3.115897158193554
