39
## STRUCTURE-ID: 6457182249f5860e49092914 ; CHARGE = -3; SPIN = 1
I -5.554732804919501 -0.5763026616019196 -0.3263775305769505
C -4.513105909375208 -1.8480615528123157 2.9941249772146694
H -4.410907744410063 -1.3446852944354966 3.949733045293723
H -4.441673693391161 -2.9264451861652163 3.0915430962894446
H -5.4474170724926445 -1.5757810257180225 2.5146465997192156
O -0.8000752052103774 1.0316120210303035 2.1020267416557994
C -1.6210159377762667 -1.7523182078135748 3.415415605581341
H -1.9188881568522411 -2.750988965916793 3.713386886069405
H -1.7665833583736368 -1.0260022831841349 4.206895736364707
H -0.5909179190851886 -1.7379185164228972 3.0799640905918735
H -0.40664522620690735 1.8654504730127368 2.4115365721681044
Rh -3.0993023982361123 -0.5925239500901679 -1.2887646389301761
I -3.0813658947915794 -3.1448044411700664 -1.8380465256832483
I -2.824106262715232 -1.1669657822606285 1.7294102375248022
O -1.5132045816607194 -0.3373311946681668 -3.6902691113420723
C -1.5678847742593591 -0.34832452402695807 -2.4737722394102
O -2.2287409111395706 2.047157105906131 -0.2765175969574585
C -2.7152513144450428 1.0830375230418194 -0.7327579044963343
O -0.3775654789583219 2.0443958425532203 -2.295496540160188
C 2.942209366849789 2.3123645540900846 -3.4483571576384398
H 2.1540928646318926 2.9473723846280344 -3.833870963912023
H 2.6774631390189594 1.2639951968669967 -3.554285655549608
H 3.894439282270603 2.5219217084391974 -3.9197353202386496
H -0.13480612816408685 2.929696025030693 -1.979449212568802
Rh 4.36215196878452 0.6321951409378693 -0.030066761736553347
I 6.54917909561131 2.0260070801777514 0.4803789681927302
I 3.1434060837124225 2.6527356042200942 -1.3346981142823957
O 2.6091096800284337 -0.6752748772177585 -1.8800263892094338
C 2.8394125520700775 -0.4794288685663966 -0.6626507023564786
O 5.309543073252842 -2.1337394618398093 -0.5933513518294268
C 5.083275603214424 -1.0194122842031401 -0.3118785768466367
O 2.3548850564130555 -1.4515831809152298 0.21918697985763166
H 1.8025971306070039 -2.083895485672431 -0.26782995159221024
Rh 1.3114249301112115 1.3147315537116926 0.05684458258455432
I 2.8095930186931004 1.5919945140200866 2.213064613033358
O -0.2485282459834104 -0.12441348392536164 -1.7881548676965828
C 0.1470315196804878 1.0550444557082668 -1.4621785635683926
O -0.5814375420173165 -0.6794492114202494 0.7731783744295957
C -0.14565780448516633 0.45593925667374696 1.0371985700106607
