42
## STRUCTURE-ID: 645784b2da82fd566f46227b ; CHARGE = -3; SPIN = 1
H -1.3799757128266794 -0.8600758813503744 1.865165938877502
I -2.2941697376608445 0.33267699368114184 1.386081718554761
O -0.12918005092765397 -1.8866311875196498 0.21210171671827954
C -2.3796838820923263 0.9453934804511036 3.590958028173329
H -1.3844343060993465 1.254231664728424 3.879837532480605
H -2.711236859401908 0.07932425320076734 4.147673168374906
H -3.086526575018587 1.7629892690719022 3.6629082616582074
H 0.5490154156015071 -2.5722631418452124 0.09324830125444254
O -3.263254374253396 -3.148301707945234 -1.4514463268825355
C -5.124110024692527 2.157864870289588 -0.260099155759904
H -4.771194615960322 2.8802475118622364 -0.9896635229326246
H -4.479266444453528 2.1426296671824243 0.6202615061762053
H -6.171823629624972 2.2918606473974408 -0.012094214845847127
H -3.486824030474874 -4.0306479809676246 -1.0987989968686873
Rh -2.3666580742817196 -0.5598852106608954 -1.0970021625442268
I -1.6229952610316751 1.7463120329601314 -2.157353011307554
I -4.929168239441073 0.16514191892823343 -1.1681110649172073
O -2.7821989248790335 -2.7778650445703508 0.7024992517886665
C -2.839966889771527 -2.3068414715178203 -0.43841336138866777
O -0.2768575529250038 -2.2338236630902615 -1.9970344792776034
C -0.7273926040468545 -1.5853282198897531 -1.0142215033451956
O 0.7671325327145978 0.4504778514811174 2.7248105002597547
C 2.310802302378733 3.489429731097319 -0.3536867407843635
H 2.2167933449555064 4.011210819905964 0.5919391182164891
H 1.3766192747920012 3.0106574865635536 -0.6325954208383388
H 2.6575990281425272 4.144600892624868 -1.1452454515188843
H 1.445275883280451 0.2367241434442656 3.3879774167607373
Rh 4.430612618962793 0.003681609533403156 -1.9691171030326426
I 6.648019100874437 1.2173176599157636 -2.6863894011762333
I 3.770091152476356 1.9084007054050416 -0.11234693147879958
O 1.622869609566843 0.004655078828776714 -2.038947624960926
C 2.604000584208402 -0.6972339236341425 -1.7373670437162183
O 3.3938437775557455 -1.3228652623778794 -4.427690426810403
C 3.9399042832074405 -0.7651218774099078 -3.548737886922137
O 2.379092679804697 -2.0778074444001873 -1.6112815359215915
H 1.4173371487710649 -2.2367033182829825 -1.8122287827793928
Rh 2.9786304704280497 -0.3486473817160003 0.9314026862275954
I 5.50067055127209 -1.1668291599048157 0.4044420738982753
O 0.44832987630481685 0.8863646719643836 0.6026088212848625
C 1.225578028047202 0.4167866108096829 1.4229523639487098
O 2.085148338374071 -3.0233157133422863 1.8888688974788486
C 2.4395517881719964 -1.9387919809094105 1.6441348478447897
