39
## STRUCTURE-ID: 6457506b58c45e22ae6f2ca6 ; CHARGE = -3; SPIN = 1
I -4.006057196117709 1.8216585000586503 -1.596722118342095
C -1.5570814535015913 -0.14079447098341266 -3.1554541421570748
H -2.3505495173298225 -0.8932742588461097 -3.265159996768778
H -1.781106791450427 0.7184308798597394 -3.7894623397992313
H -0.6143959950985887 -0.583469093307043 -3.4813405057243427
O -1.9525675582317186 -2.690309431782399 0.8899618877268749
C -4.02671969351353 1.4921340981225069 2.4902257963671786
H -4.773094956779072 0.7078452144739167 2.578460626642258
H -4.346691139952892 2.255976337813128 1.7870494630663691
H -3.769778158242483 1.9144813799882958 3.4562632696601887
H -1.945648692517054 -3.6709023122543813 0.9435719829939944
Rh -2.8400350719642495 -0.4095525765621441 -0.684707446966641
I -2.1701765520039142 0.5732412278927688 1.7108459669936518
I -5.1430728733103575 -1.5133398123377357 0.14257369548495766
O -0.516040496043005 1.1524208843987283 -1.4094779440455873
C -1.373364490676828 0.3435491871860917 -1.7147116125529431
O -2.3260119485993487 -2.9587255429476795 -1.332186797347606
C -2.18927940792487 -2.2159307143671376 -0.35172036409338925
O 3.6390484946260266 3.0951050629036603 -0.7256674092423019
C 3.6334978488214724 1.0659643542049961 4.0655455671187575
H 4.371177428590737 0.6894151942864515 4.7639755012592975
H 2.7393184308765157 0.4496129554692901 4.049760601133769
H 3.398336673945169 2.108412473945689 4.240999814828348
H 3.6202685777854815 3.3031847126215603 0.22530938050707575
Rh 0.7615323380931363 -2.4421268167427366 -0.3964025639106961
I 0.763404844229979 -4.933419446354701 0.5275330817916244
I 4.5272609329561755 0.9292394086971422 2.0653136078769347
O 3.065138717237575 -0.9866220432267252 -0.8138182120133753
C 1.851471184923417 -0.9781166235687495 -1.204909675315022
O 0.12174469799406233 -3.063729898348432 -3.236292979645982
C 0.36119084937700413 -2.847122845234548 -2.108157560201517
O 1.624206202986887 -0.5110727726475848 -2.4936560315889174
H 2.297377588519942 0.20326000203205605 -2.6452271000894814
Rh 2.230623134701078 0.7189974441947303 0.28444005718994597
I 1.1420233667702975 -1.194443678029762 1.8847225554894653
O 3.1514626222402566 1.6206511420940133 -2.260899737946607
C 3.042749422326706 1.9126393285879542 -1.066030395037835
O 0.2708740434150332 2.884198497939807 0.9164235042647625
C 1.0689645928402816 2.0725340507697125 0.7090285723938331
