39
## STRUCTURE-ID: 64572404e70b01054c4efcb6 ; CHARGE = -3; SPIN = 1
I -0.8005985322120552 -2.391670352386726 -2.0971717462538924
C -2.0852706292851284 -4.234838317149347 -2.509618542688983
H -2.810269390702779 -3.95681316280993 -3.2656008797330234
H -2.5575154327873237 -4.5160032226982585 -1.5736889864837877
H -1.4180243425192975 -5.011461371242426 -2.8629690954959273
O -1.7654738979221323 0.8838757392900224 -1.2327246729814194
C -4.290139910509509 -1.241755517987204 -1.1657903923799526
H -4.300792490945664 -2.309179987406346 -0.9931735500264712
H -3.807559517983177 -0.7312955847242613 -0.3363145053642712
H -3.7908583353010488 -0.9969411462021301 -2.094114602826293
H -2.2870979103072466 1.699415561796751 -1.1129243345409332
Rh -0.7172895134125742 -1.5136489374395432 0.4746347326708342
I -2.368214472464642 -3.250503416494868 1.499356591823309
I -6.287916476943268 -0.5801541216519998 -1.2858815683272509
O -0.35265861353305433 2.0694549946717387 0.013053209473230304
C -0.5186948585536747 1.0067482039785098 -0.614987035064382
O -2.169754583836395 0.6380805312332211 1.8839362086520361
C -1.448380702208976 -0.14961309298326475 1.3979780862793223
O 0.6645348776033797 3.0766986558547567 2.9319050074607347
C 1.8339620198510584 3.8770216473514933 -1.139221140901006
H 0.8187812847305032 3.8668062869919706 -0.7600951908679003
H 1.8406085277544308 3.751557434097446 -2.217243748848336
H 2.3599266396805167 4.775683079748397 -0.8406926644442391
H 1.3240461583350251 3.77082054485914 2.7628672107376584
Rh 1.0228521504009813 -0.13326479760761403 -1.1187026754408245
I 0.8128329513635789 0.9639669400338291 -3.505970311906278
I 2.8897574379036968 2.1782136159249066 -0.27292937142556256
O 1.3801272523409274 -2.6911482680738876 0.40764586272819003
C 1.3879629417468464 -1.4243091884241106 0.45384763919396187
O 3.4714290908381664 -1.8195747011818422 -1.397062754490915
C 2.51937921379585 -1.1546342604032804 -1.43186645314232
O 2.305779432629779 -0.9236899523970604 1.3804406857687839
H 2.745408535046859 -1.6738812902123388 1.8209510268828593
Rh 3.044501174670286 1.469062141567768 2.237651227065483
I 5.4507508669772315 0.6636973525556319 1.552188451884352
O 0.4299166094529766 0.8724816506513985 3.0028433151570284
C 1.1948549078070434 1.8026578203210242 2.747191361807649
O 3.0877454607927732 1.72237388602904 5.209224283161922
C 3.1913520777058824 1.6157646025193784 4.05302932288668
