39
## STRUCTURE-ID: 645724dd964b28407c233636 ; CHARGE = -3; SPIN = 1
I -3.065838455550684 -1.7251083640813043 -3.111978765536759
C -5.029303152625612 -1.1518476819610526 -3.9948128723693346
H -5.230858245508154 -1.854595038579236 -4.794026163226794
H -4.931737165006172 -0.1355905409928513 -4.360700645876768
H -5.774837157473697 -1.2172596794520627 -3.207630390612526
O -2.1020869697327442 2.0204918722775633 0.29637199267220893
C -3.942561677272442 3.0970101367264387 -2.284628316108489
H -4.805061180940253 3.474664294511745 -2.8221614588553803
H -3.1381523983670356 2.7974082005121135 -2.949787068526445
H -3.5759625528713617 3.8003370683646573 -1.547646398479983
H -1.5307820528000795 2.6229067873397707 0.8139038821230876
Rh -3.0661032312361414 -0.6228128393427455 -0.35769050021342924
I -5.374379958104057 -1.9735799455247434 0.15679751008239715
I -4.614918756823575 1.314481783131163 -1.2128196177350163
O -0.8866252055768693 0.49481165304998376 1.3588455198727742
C -1.7794709201486718 0.6812514607640725 0.4956962731330959
O -1.6455041742924885 -2.906298727658778 0.9137338947664009
C -2.111952197421843 -1.9656212140911795 0.383839700722143
O 4.439922038652715 -1.5843335030634618 4.212183385074803
C 6.048061983177085 2.5365949921820437 1.2979570760400276
H 5.167315981100106 2.9475090911527513 0.8112285955490677
H 6.9484631055673045 2.689066764589229 0.7127293396577069
H 6.152424852894715 2.900792352102738 2.3133601231134007
H 4.7899824922236665 -0.6881587949422918 4.368249750868636
Rh 0.7155646751453149 -0.2459863195333881 -0.8789200057914037
I -0.3172602251107774 1.2809672302025856 -2.7089815189459725
I 5.734812287363807 0.34288200516116296 1.419299560139311
O 3.007183516959808 -1.7307858284046391 -0.06971184314351073
C 1.787390156698735 -1.5212950636271174 0.1810507796764683
O -0.084824993387302 -2.9728210317697417 -1.7508015841802145
C 0.12991765549342588 -1.8457971289863115 -1.4590294292519916
O 1.178395888722512 -2.4499906013979533 1.0268271530614754
H 1.8952010366164205 -2.8998090604649653 1.5297343076444199
Rh 3.158717711936464 -0.1684675618280772 1.978324573363421
I 2.258851357986074 1.6026793225375133 0.1757089355827746
O 3.265480948182026 -2.8245584223296554 2.825611688602186
C 3.647087490381921 -1.6819230346076792 3.0973788611632056
O 0.9113178427793672 -0.32886454593495273 3.9510281980826942
C 1.7721296483692723 -0.10835008603036557 3.191465477861837
