34
## STRUCTURE-ID: 64575222674ee87a1a7c7c43 ; CHARGE = -3; SPIN = 1
I -5.672939947490022 0.5080577104243486 -0.18044873998957006
O -2.7334664260821597 -1.3638348751609704 -1.0326326111004251
C -4.2809965625773465 -1.6863775930822587 -3.830535763000142
H -5.261446944981014 -2.070395120727374 -4.038385507428401
H -3.4408054886815185 -2.3114220660214575 -3.6004229374032324
H -2.2930927467668596 -2.1399396804552535 -0.6271864880221016
Rh -3.3157309379051996 1.3747529647116101 -1.1840430218344227
I -4.104627498203912 0.3107365214002945 -3.4396275055784815
I -4.054872900942887 3.69551787580128 -2.3022964514925106
O -2.7017218182604537 2.819765537206862 1.359832045697244
C -2.7830304875631606 2.297184801143875 0.3301241782782921
O -1.6637311284886904 -0.2166743449906976 0.5490725705087958
C -2.4359273430808868 -0.20940193990654252 -0.4241158966052804
O 2.1621608577120774 -0.7383950295610965 3.720329139075293
C 2.3566752908087123 -2.977204254712155 0.48710244691339155
H 2.0917518306445575 -3.7953051386962473 1.144835386978358
H 3.220025192446586 -2.435591244951584 0.8542985277523851
H 2.5293599403869202 -3.321679081637957 -0.5250794467740338
H 1.3611858456534875 -1.2086621251833118 3.4359319051701678
Rh 1.7516273641449926 0.5708672737823273 -1.159207106962497
I -0.026378221204503834 0.1289866132540713 -3.053956977751981
I 0.6928631608426936 -1.5730555495900944 0.45527956840083056
O 3.7200398716274834 -0.13696415288095454 0.7863656794030235
C 3.0466201187055075 0.7949141983518898 0.3059759593691761
O 4.557777625193424 0.5314640572791947 -2.139535726990946
C 3.4009425372215216 0.46270584652842106 -1.964601965345483
O 3.522428409989647 2.0770781865786385 0.5698809395104637
H 4.298531011021832 2.0150599799733335 1.155808636649039
Rh 1.213515706849644 1.1743204673691214 1.6621822222674154
I 0.40949398633422796 2.907420038291674 -0.27464381740039795
O 3.3168745849589274 1.1221650890906174 3.442679121179607
C 2.335052363378726 0.47385465212320815 3.0984822701151944
O -1.0725110072781745 1.5192936686874536 3.5560451937446764
C -0.14564623841416474 1.4007567155597607 2.8624941726665694
