39
## STRUCTURE-ID: 645751041bb3c2132275cc23 ; CHARGE = -3; SPIN = 1
I -1.1553892846935034 -1.7342246745023129 1.9762853010853187
C -3.3337776076423644 -1.3185913403818 -0.7146386480604201
H -2.6661914823814126 -2.1088988194374534 -1.0610736390798816
H -3.6899570749020043 -1.5815415594924227 0.27558908829440476
H -4.166973950552918 -1.2216852040664874 -1.408876279780667
O -2.4376512214128367 3.0632223726889642 -0.20794690538560304
C -4.8313575120406735 0.08129749921503086 3.115273240708465
H -4.33334652632239 0.7030241362790609 3.8505075927830816
H -4.280021664981674 -0.8419329656548267 2.9744361349032844
H -5.864293830181948 -0.10711450297371704 3.3753332567645717
H -2.3284473973167996 3.9303943614671386 -0.6463417273660451
Rh -1.3645550217535223 0.5965025737248478 0.6910421277626576
I -4.810456369590994 1.1675553848082072 1.2329645935183124
I -1.3794113844208213 2.0216415565098558 2.9463189413531166
O -2.5235750992551305 0.6343640653813873 -1.792448857725939
C -2.5406516121264433 -0.02265004565189284 -0.7660379042798198
O -0.24427104417671366 2.914134739851609 -0.5420670919996414
C -1.2765440472245853 2.380691640308013 -0.12047086184666315
O -0.2093358653961414 -2.020093950796195 -1.6026290799816898
C 2.6566813212631275 -3.0916154076534585 1.074018959320459
H 2.275932811941564 -4.008158021113016 0.6383332335311481
H 1.844313310067069 -2.4763664678162733 1.4484779794182
H 3.36933456509171 -3.2965883733530275 1.8650958237051314
H 0.1990592920160243 -2.710268549549361 -2.153571237601098
Rh 4.666478277675328 0.49314803103682897 -0.10763596394782339
I 7.112254398165257 -0.3803384999801502 0.3370535909949482
I 3.684425323799638 -1.9641024642047327 -0.4676115779543623
O 2.0666000528189774 0.8899471512027868 0.953565576779504
C 2.8030830338241928 1.1321991936269047 -0.018563556585800153
O 4.541044464186876 3.158219421338816 1.21254064724291
C 4.743878346370196 2.1186030191819136 0.7130882726859188
O 2.3765229618130923 2.044839545759506 -0.9605487285755027
H 1.4662073041471262 2.3609011780171225 -0.7539087885248271
Rh 2.347976673742907 -0.595836514521696 -2.246413915775904
I 4.772756417206201 0.12447176796006867 -3.0490324605326373
O 0.14613273281869327 -0.004616343383098494 -0.7371896440762263
C 0.5837153219032687 -0.905566443528359 -1.440808429256085
O 0.4885458101682313 0.5141918583078554 -4.292839824462908
C 1.2912655773552844 0.06084065139426179 -3.5892692380507043
