39
## STRUCTURE-ID: 645708e83efd34414f763464 ; CHARGE = -3; SPIN = 1
I -6.504843462104861 0.2488014112185041 0.8876352393570361
C -3.6995925731432013 1.4815079406023588 2.5594261090726818
H -4.645247247391128 2.034659528158467 2.593131498546616
H -3.9050264453763948 0.48636671656080593 2.9685703569763575
H -2.953846225998857 2.0006568900801334 3.163433823252969
O -0.09249906507868817 -1.4538695224555986 -2.5853187015570924
C -1.7569322113628911 0.6352778448171625 -2.7196883104447087
H -0.8281044046755185 0.4537308455466134 -3.246342572467277
H -1.7516787581084121 1.6413006568902968 -2.300805482073423
H -2.586340373804385 0.5149727686614259 -3.41187372282154
H 0.5835066695006331 -1.995166250187024 -2.179300094148479
Rh -4.113258478339654 0.09327077097054921 -0.0679837706934613
I -3.4093466699364803 -2.0322965367891888 1.1910377343301393
I -1.8781454190210083 -0.8061334087375942 -1.1995322545828555
O -4.522973305109812 2.1394950162302853 -2.1969890353952524
C -4.379972005942986 1.375888385089592 -1.3487515971222577
O -2.356439657494008 2.1045883282247084 0.6521188064023394
C -3.2214323424971303 1.448338807576069 1.1608527283324908
O -0.5336255292823111 -0.4771777951539242 1.9423306721077078
C 0.8545951479908188 1.30752099426168 -0.9875261105162593
H -0.0401881813544933 1.5617559091680193 -0.42623134391105444
H 0.735137371677763 0.33828092444247093 -1.4692108271610413
H 1.0490992154637544 2.056688654948445 -1.7536590326142227
H -0.42620097778629973 -0.1582434441430185 2.858470837174996
Rh 4.565079443364834 0.14020439950358038 -0.9155559094884029
I 5.584226795109158 2.503901463369654 -1.3969776756252612
I 2.484263492811516 1.1041717564582123 0.28267192588819373
O 2.8484183807761934 -2.012742922297725 -1.7959511921837394
C 3.5319315383486987 -1.5548585398288244 -0.8623703544001626
O 6.240707155332082 -1.6924883717812702 -2.545398571988534
C 5.6988463211793 -0.9010229489208078 -1.887023871675429
O 3.6015324005343445 -2.2977029618234157 0.28999195998924127
H 3.1299561879129074 -3.149238071350918 0.21196850675426285
Rh 2.39330966040621 -0.6670251905409447 2.1341159113987915
I 4.841050793980682 0.4370100859279065 2.1924050718226775
O 0.48135329368658736 -1.7680424894674256 0.4563126691780119
C 0.6071991477983837 -1.1030328227865909 1.4904782607428415
O 2.144871439492165 -2.353506205084996 4.595060697389019
C 2.2306088784431037 -1.6858426173567864 3.66647762215485
