34
## STRUCTURE-ID: 6457551a22ca171d64462264 ; CHARGE = -3; SPIN = 1
I -2.704017871063987 -1.1641022125515998 -1.2493677899308953
C -1.1463346048103802 2.38124475931977 2.157530886653777
H -0.9375321808383938 3.3759506897654448 1.7829570600814926
H -1.2875645974502365 2.3911786138688362 3.231796121166889
H -0.3291048615867073 1.7162402075710899 1.9155838358456008
O -2.8519278816968 0.044539244124620965 2.219816818968676
Rh -3.0352433722595453 1.4454275132781083 -1.3004310296803712
I -5.653875285447749 0.9118996224483299 0.48713155822103077
I -2.92826968832204 1.625357442156691 1.3145202882006652
O -2.8289327307859486 4.416227071152856 -1.216457557743856
C -3.006040186155897 3.2869144314303727 -1.3275590706891267
O -4.076673032214835 1.0538246158029427 -4.080884703204897
C -3.6447717812193847 1.2467232365356837 -3.050562534364065
O 2.911672572779693 -3.332270040097372 1.7973481268804943
C 0.2384683319972886 -3.4237610595164645 -0.8387363549068535
H 0.8562338434811977 -4.2988762290915 -0.6786660429396502
H -0.5507922172396602 -3.6184909448361444 -1.5559403111774286
H -0.19757622509318037 -3.088569614991673 0.09968828896610456
H 3.46365679241252 -3.7859712193372865 1.136116202471835
Rh -0.013553392917723133 0.37543570683915345 -1.5598302040073664
I -0.28067943605431944 0.5187735122158014 -4.17857363404315
I 1.4588993864039013 -1.8268632536676712 -1.551733873552339
O -0.2280499043833279 -0.665724390783708 1.0636073839736178
C 0.4018829005797253 0.1113264168454074 0.3305688459548167
O -0.06954683309415118 3.1643046738430898 -0.5114299532256102
C -0.14499101959553928 2.121902077571864 -1.0565721307513471
O 1.539022229647763 0.6979210262588462 0.859211225655472
H 1.7820992879018347 0.17574054134261746 1.6709033636212527
Rh 3.455649045646792 -1.1283622137248464 -0.07728219474059635
I 3.926851007217619 0.08788389134341566 -2.37586020926105
O 2.232023144762285 -1.3411454542360248 2.4521065842440337
C 2.80922473374598 -1.9839151557800327 1.5620380796556042
O 5.857030444154226 -0.6498860623774153 1.6301527232217914
C 4.982763381500212 -0.840877442722827 0.8988102004356918
