34
## STRUCTURE-ID: 64572861c500d03f970b3f54 ; CHARGE = -3; SPIN = 1
I -3.783410642032297 -0.3023017639229027 3.0742977570712156
O -2.253669598700484 -1.5432393523316714 -2.776028149789475
C -4.089193079283826 -3.50167883701584 -0.8182363728305029
H -4.256172830942534 -3.1458015522610947 -1.8248890442615247
H -3.964584769093815 -4.566141972557837 -0.6935069353210629
H -2.456127664361317 -1.6169488891203472 -3.731112953570944
Rh -2.884516138938957 0.12190701254325607 0.5520589114577203
I -5.111522457895706 0.26907176501646357 -1.0746102975286043
I -2.6386853632533924 -2.4480640033021714 0.2036124455364239
O -2.8573287642472236 3.0382844220422274 1.1562993071173397
C -2.8070390957643157 1.8980861000657285 0.9334872578970135
O -1.5143666295899296 1.522224418647997 -1.5982092834638661
C -1.5180621460356916 0.5822989680380577 -0.8621323908063101
O 3.3209560448068722 3.9281575446955195 0.8354137142994442
C 4.005981991148092 -1.480232998877177 3.064391631471594
H 3.1101321430311812 -1.6119866240940315 3.6630993706341926
H 4.918725613157752 -1.6375601804637496 3.6291200511596577
H 3.961569113032424 -2.093144164252444 2.1708727264057424
H 3.305742469454137 3.9204273359804924 1.8085948867823172
Rh -0.4597369835622834 -1.0781554555044928 -0.6786503688436569
I 0.776578544038571 -3.4142832845201925 -1.0128389540283147
I 4.028616561099698 0.6132228046655064 2.407099063004741
O 2.2607853105757276 -0.23985625657741355 -0.6880578137329041
C 1.149420198290799 0.011813871224660126 -1.1703317343164015
O -0.2630283806646704 -0.9106050858108989 -3.5388655549254517
C -0.9602419410128178 -1.1532923616709545 -2.569384492548242
O 1.0495324924134353 1.0162829704600482 -2.0713759520468313
H 1.8778108132536686 1.5554936375463688 -2.0398676329658545
Rh 1.8279334022726594 1.416172802566959 1.2195391972690064
I 0.3410282834729268 -0.7183745291987936 1.9436353682952554
O 2.8831404184568776 2.751768451223058 -0.9689987698285256
C 2.774703126132702 2.8224861754673634 0.2552081934208129
O -0.2494141074214421 3.3991739370366716 0.3751691683739679
C 0.47444406816335166 2.5947950942616442 0.8251976506119845
