39
## STRUCTURE-ID: 6457229d6915520aff73b9e8 ; CHARGE = -3; SPIN = 1
I -3.373975921803473 -1.6099970025494221 -1.7705161817301678
C -5.528663358547812 -2.0267165755327765 -2.28136908176377
H -5.476576136879862 -2.7720492099841976 -3.0705733283520265
H -5.962758470091675 -1.0851707175981524 -2.624471303755988
H -6.002364569292716 -2.4052085343903093 -1.3834836292501393
O -2.819771388432253 1.7834640261381658 2.1526428561476156
C -0.7235058601944252 2.906706652224629 -0.1864474423122259
H -0.9121991583891184 3.3138185347793154 0.8225312233715909
H -0.24002493991387136 3.695581014377602 -0.7811589382090639
H -0.0048598525782330895 2.08650243109619 -0.08185334161563355
H -2.5822723485718457 2.1561138383061977 3.0215448603305317
Rh -2.4771173105078903 -0.08640620970033525 0.11231098519073007
I -4.916130266374605 1.6544445689429172 -2.361732606146137
I -2.4705139893229124 2.237981218812604 -1.0346279935006408
O -0.7284906129229402 0.99668270634093 2.2468861927005888
C -1.8022818873012174 0.974687657576169 1.6246096802307546
O -2.293851549943472 -1.8087690360902935 2.516980217228785
C -2.4230630372530686 -1.279774044863012 1.4884161192352001
O -0.30309012104976213 -0.21575678646739682 -1.84799715869095
C 3.120567945532997 -4.031257978034821 -0.12439855365900412
H 3.5502825681354526 -4.4647592585575175 -1.0234492557118038
H 2.037317939679179 -4.104252230237822 -0.10993561489563528
H 3.5423341276797964 -4.458468051902096 0.7825905010640467
H -0.04175915544972503 -0.12420143984888343 -2.779184864463752
Rh 2.4723277234353356 -0.5310120110690592 1.7638950017197375
I 2.0459695275999423 -2.6400745757675685 3.2057255450605955
I 3.678298715129296 -1.8719447366671422 -0.12897302852532436
O 2.4074460930060466 2.361318536988951 0.7990509176512136
C 2.975234346699878 1.2508063950476787 0.9631610280028213
O 1.8716223905856693 1.6776572868464625 3.657697417451296
C 2.0431175608689323 0.7281698656205017 2.9897353264614384
O 4.356904084791904 1.3533146841975507 1.212500875366857
H 4.661759771261298 2.2806452922460196 1.2008914613655723
Rh 2.6217339909317934 0.23411172253194562 -1.2970465829296862
I 5.067812478878616 0.8748261672851011 -2.0463290518494075
O 0.39177477227507657 -0.9944303541426268 0.07752383599936483
C 0.7697248860967667 -0.41749872181162817 -0.9445597792731318
O 1.534054004026877 2.6933654577190094 -2.57790591654251
C 1.9349870082057117 1.6675494181368578 -2.182680391401826
