39
## STRUCTURE-ID: 645741b7f61f6f7ba74d3041 ; CHARGE = -3; SPIN = 1
I -2.779928856122788 1.9072680630291223 -0.36630105908738064
C -3.2483596759725994 0.13914730000628184 -3.7815036261073036
H -4.030556592703624 0.7551591835947211 -3.3304957165532216
H -2.9155241203731914 0.5696166758155294 -4.72609128879697
H -3.6733642897734686 -0.8564271923395337 -3.9369009859987374
O -2.175014561306507 -2.951683513165598 -2.4575001932301066
C -3.8379015845054774 -1.8148751738720608 2.5983673182817704
H -4.1960113086904185 -2.6903651481981044 2.0638693922313376
H -4.514716090228649 -0.9768828965651443 2.452412043291776
H -3.6775515026417875 -2.019734274207779 3.652231448717751
H -1.9076584190620265 -3.889117963302014 -2.625837532767203
Rh -2.0435741650225157 -0.5341958634355424 -0.9662794048206795
I -1.7976521422730716 -1.2348967475127774 1.7695274575758686
I -4.457034808043404 -1.3172687516927988 -0.9305319437027392
O -0.9165856469755298 0.28554323143297133 -3.183384045472956
C -2.069048847239444 0.030046785552072113 -2.8687003934343447
O -0.5231690568211164 -3.033335292053559 -1.0240799066494861
C -1.530238281272639 -2.3125837394603246 -1.532205509593551
O 0.1457462114844138 1.0592897738060165 1.0993634845665
C 4.416831360313683 4.236892829802404 2.61832014653062
H 3.960431240829431 4.9392761317511535 3.315645638206459
H 4.968674224375731 4.73800053566043 1.8252286267925577
H 5.015940360147574 3.47710505749999 3.118603027929781
H 1.9705228019560475 0.2681936123416598 0.3004301448705549
Rh 2.6022478916718064 1.230101124116083 -0.6324111102253412
I 4.26980302892612 2.3226773861092895 -2.2609846814388113
I 2.6469035433738064 3.1469361484868528 1.6053670923631869
O 1.1830783943923493 -0.8841918897267195 -1.674085721214433
C 0.9560121761574194 -0.5422877919515757 -0.4610453607474814
O 3.4852292355275143 -1.4974658010319915 -0.3516344479641156
C 3.192910653464829 -0.38977997332420056 0.04133477279622358
O 0.8423258029153641 -1.4521243954369822 0.48808595511839337
H 0.052488829652866456 -2.5024002197157222 -0.4100659520021564
Rh 2.4318690138144134 0.20095935694759356 1.7712708893265856
I 4.851143252305351 -0.07185225637956667 2.6074755550977837
O 0.3641854243650202 1.7218059491428905 -1.0769666209821898
C 0.572684918097555 0.8596734428061535 -0.12240740105063855
O 0.7954287047335075 -0.743110662362991 4.01571731886385
C 1.569432880523464 -0.17311304216609413 3.376162589278893
