37
## STRUCTURE-ID: 64575fb4267e53051f61a6f1 ; CHARGE = -2; SPIN = 1
H -2.232488806150738 2.9471355995606006 0.37759274387935793
I -2.8882103473207192 1.8977469014346542 -0.6056043379917521
O -1.2826203039844826 1.2107645680646562 2.07327323801144
C -1.9940366969268295 2.762743534446181 -2.3395361267081785
H -2.7548600168709947 3.194651435680311 -2.979699939043802
H -1.435635654647418 2.0085473932745064 -2.8845696198018773
H -1.301503108923025 3.523381829907965 -1.9949060715983862
H -0.4257494567200868 1.4786738565492388 2.4537960261416503
H -6.31936509406367 -1.1865948796658083 -0.1372937546209327
Rh -2.8517129345274554 -0.48793105578919405 0.48967196413112574
I -4.992668986217379 -0.9724181675861405 -1.04540000635012
I -4.581955251627176 1.4112725992826738 1.7994639247119069
O -0.1653878392864518 -0.6773847744734137 1.6303724668873858
C -1.2006220027736874 -0.02802975842334722 1.4932661107484357
O -1.829471769820325 -3.2136498429797546 1.1183230374350708
C -2.352996701426323 -2.218008549470532 0.889343027406132
O -0.6927086141342941 -0.11387240738206947 -1.54630957180695
C 1.2407726398099466 -4.577980648101603 0.11201276318008803
H 1.0123864780048586 -5.131167790686453 -0.7920961955061258
H 0.4306738620060742 -4.614005697168608 0.8319192141205598
H 2.1744224587469994 -4.895469458387759 0.5637979444317203
H -0.3323175770288606 -0.9677948488059793 -1.8458415178181984
Rh 2.5467412287825884 -0.8195741532829433 1.2819470821524745
I 2.950198791954982 -2.7821826063439876 2.9561465292067566
I 1.497954260934695 -2.419929412894279 -0.5170374929224276
O 1.4526074186005131 1.8080354211324836 1.5440579157108987
C 2.297445374923898 1.2051452527389508 0.8387658691494809
O 4.029123245003855 1.0755924542142683 3.009558975186511
C 3.4763474671701577 0.30284305927016925 2.332338386304049
O 3.3607240769482996 2.0742555207999223 0.4364417926654424
H 3.192894749901199 2.958423519537552 0.8013250608099792
Rh 2.1693062657446376 0.3203109142893979 -1.1338309392930161
I 4.720632548980533 -0.40228146399078896 -1.3410543685913239
O -0.2105538079366478 1.788385722591871 -0.5573653671516866
C 0.2706579544394533 0.7291391208228543 -0.9701919265544293
O 1.2664470672999952 1.7784222187177234 -3.5516471487360532
C 1.7555290811336752 1.032804593116942 -2.7910296877752483
