34
## STRUCTURE-ID: 64572037242ed54a6d2b66b0 ; CHARGE = -3; SPIN = 3
I -5.232759206318814 -2.9977853353158213 0.1457028846219265
O -4.285025179119014 1.6272078368874374 2.858393887667061
C -3.2756543920080183 2.498980084227072 -0.3966228102956865
H -4.062284710934697 2.7350028100842927 0.3748223454958383
H -2.334392710182123 2.4653590029191754 0.2313625769279119
H -5.249190342874032 1.3890985322799492 2.559678358343435
Rh -4.169836956667996 -0.9199988373259697 1.421629333343738
I -6.901317890412894 0.4629508975312803 1.6669681295527532
I -3.6665826815871196 0.43630171188535777 -0.8330434916367442
O -2.2410153045634833 0.8304554853457298 2.6558062228753063
C -3.4394799723220637 0.6705696821519379 2.3811569275968654
O -4.14227495658983 -1.4897595017712293 4.336483447666383
C -4.255060715585679 -1.421587317033263 3.1772475169823196
O 5.447326881081343 -0.9375898471048869 -2.3819532287778693
C 4.321469903102947 -2.5756796651828258 0.30399343912679533
H 4.378214291182026 -3.4654016139532517 -0.3170833889407715
H 4.25825157098174 -2.833487552516218 1.3564475980907356
H 5.108507239307511 -1.8538311607361746 0.10704623249274609
H 5.159555434291683 -1.862520925619143 -2.5405794362856255
Rh 0.04414583519717595 -0.006651346712480466 0.159698564189055
I -1.476647761384286 -2.0780682540692905 1.0442116414643603
I 2.283056871781809 -1.59096610605314 -0.24404504476346764
O 0.368271686496779 2.7731194067503386 -0.33239151931052874
C 0.9036533388337038 1.6660661658998035 -0.4324529873012053
O 0.5044406436142355 1.535621200284967 2.667940507835972
C 0.2890887730645593 0.8098694052468216 1.784197065703993
O 2.166719787099119 1.6128815311245952 -0.9393257355612847
H 2.533687994863486 2.4959721322370543 -1.1522565698346503
Rh 2.606775473344747 -0.32815857534079174 -2.5929651005135175
I -0.24676591641908163 -0.5090971273758733 -2.3986398189833418
O 4.7379880268903545 1.1597592467807114 -2.2307215607736
C 4.535696798197359 -0.01459759732021182 -2.404517761635704
O 2.6125383227650296 -0.09579736491025403 -5.583293901018645
C 2.718899824873122 -0.18823700329571824 -4.452894324343866
