31
## STRUCTURE-ID: 64570161dfcb003618242a3b ; CHARGE = -3; SPIN = 1
I -2.545727437159433 -1.7107840217251076 0.8477352268993774
O -5.0875508480656615 -1.1996017180380907 -1.9815009314367675
H -5.992402225227495 -1.577590709321419 -2.0706798328758267
Rh -3.1115254288914653 0.3990214655981858 -0.8129286863393513
I -4.228540930800297 2.270765076781334 -2.301165855538835
I -1.937028197323979 -0.836663377618213 -2.982546740666733
O -5.777632612439496 -0.22014271398176213 -0.0960907632064147
C -4.93450215064688 -0.4370114941262225 -0.9300826509246988
O -3.7022211967410814 1.8917364960888112 1.6879294360123107
C -3.5422242311880225 1.3114287186924987 0.7136657256067631
O 2.5152607385791534 -0.6988439685670051 3.3059407386715343
C 4.569498045698012 1.6095628959663308 0.2020458010032992
H 5.485744140955809 1.6310083078437327 0.7768592430864257
H 4.627213481176265 2.2198652772893745 -0.6915037232894993
H 4.278553021021714 0.5953693448341257 -0.0460842672498958
H 2.8549664615055934 0.20246085208003473 3.1673589775329836
Rh 0.6523810665983846 -0.05044046183155061 -2.2452362423262557
I 2.5055442187786943 1.623399614914406 -3.109579518210119
I 2.9982303937956956 2.428591625510757 1.4503931245012627
O 2.743053565686928 -1.1452627892676106 -0.028007799378097966
C 1.5242449219807228 -0.9148076854011532 0.10787646199251454
O 2.095603903373612 -2.320458906595182 -3.4707529306969747
C 1.5140727122885815 -1.4012412456920416 -3.062267266493116
O 0.6956437448215457 -2.000060787755068 -0.2660026334916318
H 1.2403479232276742 -2.7910289754877056 -0.4351409527140745
Rh 0.6489485361747633 0.44189446052154546 1.3481270964647702
I -0.5291204424434274 1.7448083931904748 -0.6670281266526445
O 0.8825704876209667 -2.0682381522837083 2.772878826904155
C 1.345397592972273 -0.9464939641834937 2.581880517908388
O -1.3282471960100528 0.9797178737252779 3.5105989030641473
C -0.4605520593190547 0.9690405688384676 2.7233088418430427
