39
## STRUCTURE-ID: 645714999b9340069915986d ; CHARGE = -3; SPIN = 1
I -1.8639918298148457 -0.887138450031955 -0.02491600371237231
C -2.608276645356825 -2.913017521407456 -0.5431226036095627
H -3.0798434285875254 -2.8590491216137104 -1.5199394922977756
H -3.321449637637471 -3.2241611428157424 0.21429692854480686
H -1.7491221340051697 -3.581330214055858 -0.5664116555348581
O -2.6477999117300715 3.4797602296376424 0.35558291497011857
C -3.6766223458945277 -0.02922509095230161 2.828793090981192
H -2.587474955007951 -0.01514068639008557 2.923889674374065
H -3.983901679903688 -1.0300462392835252 2.529645564813303
H -4.123293105085479 0.23884590752538684 3.785285337837109
H -2.010287994336481 4.072898078588459 0.7950908419167102
Rh -3.7062968436402195 0.9459617146085058 -0.12304834062605072
I -5.698340664952254 -0.7307202409653248 -0.4680534459365708
I -3.622544972582561 1.8506838006169026 -2.6740160443314864
O -1.2424072565693065 1.8873882989557258 1.0618214574944453
C -2.2997922326299785 2.1594562354364686 0.47159617600879844
O -4.688362955476315 2.0095375645936038 2.0760826331746633
C -4.067766225037328 0.9913864644627975 1.7814555261299105
O 4.600469075269355 2.4183529031772157 -1.475240454657483
C 4.586315300157009 -2.898931091018294 -0.22337085148248811
H 4.189909493707937 -3.0624674903683244 -1.221378124687863
H 4.074083037566025 -3.5303450577667324 0.49816441086028146
H 5.6635429016517085 -3.0101266981871415 -0.17565946203107086
H 5.152231881300065 1.6156298427538016 -1.4640552756171918
Rh 0.9371770256020464 -1.0541805609132753 0.5347734346902939
I 0.7496110116174671 -3.4019434600132783 1.6379755168346684
I 4.144471082457691 -0.796308976474553 0.320841543037074
O 0.3373829195757811 1.217617617297506 -1.2001426958315948
C 1.048888353060392 0.7844336239511024 -0.26929836128817247
O 0.4333982579573371 0.5202966955263182 3.0086841273343206
C 0.694128979354672 -0.13044083413471888 2.080273503377652
O 1.708893476916659 1.7537273604813732 0.5137639341417874
H 1.5516568054146478 2.632672730532603 0.13166405456256744
Rh 2.5320624569339225 0.3877578637976218 -1.9527466596672447
I 1.2443760975553602 -1.9815346125190865 -1.9721664486445651
O 2.5684609964197347 3.1886908817014765 -1.8223191082592685
C 3.28261359533948 2.1898285280553513 -1.7767174160264951
O 4.005813187650279 0.4536261413175151 -4.548073480102479
C 3.472088882739303 0.33755500589288573 -3.5290047467394077
