34
## STRUCTURE-ID: 64574a3b49f53725aa092914 ; CHARGE = -3; SPIN = 1
I -1.4763218187431686 0.7308578518038881 2.2808958008572024
O -2.8021988995359104 -2.8118254908621743 1.3150266169557838
C -6.28853711701493 -1.805099513905021 0.9992733924101359
H -6.253055874939601 -2.7023141367688095 1.603695909538562
H -6.940202339197461 -1.7125659923393108 0.13873068356546814
H -2.4092790360856746 -3.6193516800838115 1.7148763518876178
Rh -2.491839015099778 -0.2844167613775909 -0.04794231713578419
I -4.78230327119774 -0.42188730455103823 1.2727535760194957
I -3.4466429626209525 -1.6795890159306128 -2.018926965404759
O -2.20679577050431 2.235343046200439 -1.6424590005502968
C -2.565480368852985 1.3660795148862004 -0.9663890285811453
O -0.7212449116740163 -2.2403120725504047 0.7807326626393873
C -1.9485288157295542 -1.99384075864396 0.7594359362693915
O 0.02977368547788862 3.8683849547369986 1.2790509485958346
C 0.789371984132853 0.6421100928418031 -2.6310312709619272
H 0.04871515046541435 1.4165813703719916 -2.7968562496716185
H 0.8173697391985641 -0.05915162224691079 -3.458904101858162
H 1.7592846569398304 1.1042576159077853 -2.4927826513975444
H -0.10657915932199077 3.7327967245809455 2.2342083832461346
Rh 2.771678890803099 -1.5792480585951132 -0.248893423110243
I 1.8929581611847754 -4.0391054373419895 -0.4451285667032171
I 0.35976132941950867 -0.4135876599670406 -0.865931673159467
O 3.47744337886447 1.1286455525433792 -1.0681172319387506
C 3.597039818037912 0.197761455946727 -0.24571306606383303
O 5.093875266967594 -1.4460164922160057 -2.1014772269117836
C 4.1837064438683145 -1.679679904156614 -1.3927052299928107
O 4.645868492819716 0.32685023576576366 0.6603701215303804
H 5.144167335626502 1.1520345841557884 0.5099059100846663
Rh 1.0172488155785293 1.1133822950742516 1.5045274037720207
I 2.04125559198289 -1.2421004281438666 2.442187889463675
O 0.45732341721889225 2.830577985429492 -0.6210283671787422
C 0.4386489887034862 2.724340758484562 0.6103826883028819
O 3.347499090616849 2.993234211436715 1.3904513516274606
C 2.5260191226113116 2.1668540795135693 1.5477807438537763
