34
## STRUCTURE-ID: 64574d7985661e2b5a32491d ; CHARGE = -3; SPIN = 1
I -2.540031858151614 -0.23957172198795115 -3.679030493253949
O -5.009148310789763 1.3894441718066017 -1.2202444585728638
C -6.156416582806675 -1.6481314063744124 -1.3931070294629608
H -6.355204273874795 -1.9826079235064762 -2.4000088094989676
H -6.894523840310479 -1.1555441585369755 -0.7800243567310077
H -5.57371942259333 2.1713916687307875 -1.410404241168508
Rh -2.354610411844938 0.2159929563511435 -1.072027828199528
I -4.21815049307315 -1.6954283160408505 -0.7038478829496847
I -2.5577907677305056 0.8252218534680371 1.5528200228825146
O -0.2766914378626865 -2.032618827147934 -1.407075888956874
C -0.860808917663108 -1.0198738995141683 -1.0547549703231103
O -3.2871284953553928 2.7204570098976983 -1.722305053248969
C -3.705743921205909 1.620865580550545 -1.36929181444293
O 3.9120837822319747 -3.212190044955667 1.5604481430349308
C 4.329157032350071 1.7058756497499687 -0.8620248126220946
H 4.877506761174215 1.8473279668262863 -1.7838021131838055
H 4.272442339485434 2.6168298819017086 -0.27755187003243087
H 3.3319225916302107 1.32537649165254 -1.0678647449950358
H 4.77906344229704 -2.798843407291412 1.7226258373561154
Rh -0.2068681733848941 1.7452266563758807 0.5246950847789481
I -0.8797224235795624 4.294182451892182 0.5388289230328632
I 5.355101319688592 0.24886358351715238 0.3079769755888925
O 1.796499323003427 -0.3695763144597902 0.01343421887795211
C 0.5819681565054763 -0.13974932811972673 0.3266928739461024
O 0.3670081084750791 0.906387554490392 -1.8959417681684456
C -0.219087950676106 0.34805965634959274 -0.8966853197578759
O -0.06836261244357227 -1.0432633836954033 1.1889124095534678
H 0.6090354071518884 -1.7666332435797931 1.3998829547151204
Rh 2.93093150397443 -0.42478174081246656 1.9928853437494745
I 2.0400941830592116 2.126049876228636 2.0703602614935974
O 1.7445353184263075 -2.9066384060485424 1.5492671229682342
C 2.8572346501036123 -2.375845669514858 1.7307374655131749
O 3.825641706590984 -0.6857334555033446 4.817695775874751
C 3.553784267198551 -0.6105217626997061 3.698730042203173
