39
## STRUCTURE-ID: 6457314890b42456255a8514 ; CHARGE = -3; SPIN = 3
I -4.680439209775041 -1.3943212940418777 0.46100699204441437
C -1.6218068307729712 -2.5888568049328358 2.5554297430444697
H -1.9350997269764345 -1.8384361929881539 3.276949994866767
H -2.497010184052791 -3.1289127265893666 2.188386768318655
H -0.961131380212955 -3.3093837155030554 3.040493513293333
O -3.058224329462422 2.047923570081012 -0.4994902137567176
C -0.8576427459893005 -3.1315451925299618 -2.8761140664988045
H 0.006487292044639994 -3.2184195308583368 -2.223150064321121
H -0.6717775073615837 -2.357653301149447 -3.613689106483424
H -1.0811777136540877 -4.080542839032301 -3.3449281517124807
H -3.279303476992437 2.7182360889097934 -1.1815283375686512
Rh -2.0929844587805717 -0.5519105932046116 0.2822217147617711
I -1.9242322790792548 1.0137995188007007 2.422866365237417
I -2.4658569924235625 -2.5093455853278126 -1.6581847665355411
O -2.462396761435697 0.7739902669799306 -2.228072975470605
C -2.616625385470873 0.8908087997317666 -1.0102268288695402
O -0.3744274752483172 -2.9183979873980816 0.5790609162662771
C -0.8686082191534568 -2.042681663970538 1.3227456728212559
O 2.3336970923350004 3.0226736276494464 -1.6036541091670635
C 0.427012562933765 3.9501964108481973 1.7596326605258434
H 1.0069194286865761 4.8670764978538 1.7733911927139185
H -0.24873088734399804 3.8828356164845483 2.6086585948397203
H -0.11915781431766229 3.820086319475772 0.8313401298533744
H 2.749874575602446 3.451462145394131 -0.8311760847509675
Rh 0.32812144327204074 -0.3095462271938097 1.5808148084205391
I 1.2853574314259584 -1.1222046884637509 3.922744356118521
I 1.8215376058425417 2.2810155936135397 1.9247796914339927
O -0.15182720812162304 1.5246038662389116 -0.4490633104045033
C -0.2735826038172969 0.27592679468645404 -0.32091673192380465
O 2.0157706641427664 -1.9248645708347147 -0.2151742610031405
C 1.6927202769047012 -0.9549354650448323 0.39213831189506543
O -0.001521602923845161 -0.4891151457557186 -1.4819470642854944
H 0.5283572708423109 0.08882870217093522 -2.0690619873086935
Rh 2.9762806983395236 0.7635664080630755 0.0877847006094906
I 4.730008326651213 0.30231549806092156 2.021389172799011
O 1.746282719259595 1.1400331857240258 -2.5472268868533248
C 2.185123451717415 1.660766982812671 -1.5124376082025375
O 4.445168281229914 -0.5763725584167849 -2.1326428615313477
C 3.9648456721359073 -0.028699810342865395 -1.2331498832162406
