34
## STRUCTURE-ID: 6457393cc2478c0d0f4dd52d ; CHARGE = -3; SPIN = 5
I -4.915896063711286 0.3676106107520893 -1.7572371832676597
C -5.854769651491877 2.2509686122234775 -1.888299926119555
H -5.537380833010527 3.0133803303841353 -1.1984116397611553
H -6.364722572329659 2.470194897987789 -2.8082296814235153
O -3.6219715994530906 -2.2524852917149376 -0.9881735158068589
H -3.9250284140203386 -2.825424586562632 -0.26530156203859007
Rh -2.3662802671492495 0.3127474984425594 -0.937414131849474
I -2.527565045490158 2.6453314906305776 0.25845172459847154
I -1.4683551381078248 1.466294133315815 -3.7170631340944835
O -1.9817501537796074 -2.024659523937817 0.5461879216648976
C -2.3712329096744362 -1.6539096520791317 -0.615894834897148
O -0.580297074244098 0.13064766898025362 1.094800084999169
C -0.6747537960948211 -0.30077242223188216 -0.06591578752225716
O 2.4873983650522526 -1.0495511399770137 3.9201425196779116
C 5.6519568946577765 1.8518273062814838 1.1378064139507718
H 5.674235563339435 2.228854214301258 2.155076505170865
H 5.11230769080541 2.5077990211638412 0.4602989509255723
H 6.6430439458447665 1.6014126199682976 0.7658127469379962
H 3.2066514200476526 -0.38464273774700203 3.977039703958229
Rh -0.1206958046482122 -0.16278209759676357 -1.9962851266348765
I 1.5468929686306092 -1.4630404761845281 -3.647147321827707
I 4.517858069254254 -0.06653041034630765 1.1713674194595838
O 1.4535430578713007 -1.4596896850789873 0.010604810710995357
C 0.288767740278724 -1.4265544814421314 -0.5313340116470444
O -1.9844200368810918 -2.047053077599752 -2.89901456075724
C -1.6590635115410184 -1.3495813789970972 -1.905550185505425
O -0.13054648056281734 -2.772195874986129 -0.8372420022355489
H 0.6176177570484981 -3.3607332146448416 -0.6193798803466556
Rh 1.8130377454905744 0.3134620016820353 1.3646936505434306
I 1.7664368109346322 1.6353621299599348 -1.0464828713641872
O 0.8165005846851379 -1.8498342639029288 2.734291972294108
C 1.6737010591165744 -0.9903048001541349 2.8589562212166895
O 1.2020425301930548 2.815692970997501 2.8385686642209933
C 1.6127371489394768 1.8281596081129041 2.4302780467696894
