34
## STRUCTURE-ID: 645708e71ad7c80e962abdc7 ; CHARGE = -3; SPIN = 1
I -2.6682946987651293 4.165592731751039 -1.1011245482499754
O -1.5659335428665762 2.012355199043461 1.4315441632878951
C -2.65201158947439 -0.711323257846079 1.0139220741051895
H -1.8122415568574866 -0.9749593561532106 1.7145585712065716
H -3.3027286772610913 -0.07141704011928825 1.664961917456766
H -0.8379409394549322 1.6392665402504618 1.9186599991144073
Rh -3.895862458976799 1.8836853824915254 -1.1183265949352081
I -2.392844044947412 -0.7899965386744272 -2.45703372294322
I -1.736518565607668 0.7795617494642735 -0.1432987182644915
O -6.072204072264824 3.170298902750113 -2.701457146242152
C -5.2860478089582985 2.6618892536941887 -2.0598190101786167
O -5.428889469451126 -0.49966019728298117 -0.16921632421226654
C -4.864246878693021 0.3840225391212945 -0.6234584908484597
O 2.9214784040604855 -3.6668147683979244 0.9071395504973341
C -0.0014998715631422545 -2.1287537141885737 -0.07748760960542553
H 0.3230729623738817 -3.1629313622752897 -0.020536733012706553
H -1.0494248006821338 -2.0860696614438607 -0.34701094401486104
H 0.13542594233884658 -1.6798871089931255 0.9098990231722802
H 3.3466225517532466 -4.030337605584099 0.10793495388423263
Rh 0.8297176571092503 1.4462285638503902 -0.851427638486398
I -0.0012193056371893084 2.0412469524889088 -3.235597114510581
I 1.2370285219777832 -1.0687993298874765 -1.3804116301938176
O 0.6603420092400277 0.45264592702865725 1.8194977790399778
C 1.4238728978444173 0.8332562706099327 0.8998249469983683
O 1.070399823250991 3.8206189232077468 0.9031593193745209
C 1.0335810884842969 3.035412292062122 0.038419638623883375
O 2.758100356377362 0.8423975557014384 1.1462376187996393
H 2.9691650456073773 0.39573843388202645 1.991623105978238
Rh 3.653061496273501 -1.312668547950604 -0.5960379013851409
I 3.6284370733251934 -0.21509605660551426 -3.0170609370627255
O 2.6607140500968365 -1.7958890749320016 2.0464170756960027
C 3.0672842200910373 -2.3005186782572404 0.994777350686841
O 6.449009463978786 -1.568647725886988 0.4285314004625675
C 5.400594717277976 -1.5004471929189047 -0.03780342423876502
