39
## STRUCTURE-ID: 64574584628fd935076cdb54 ; CHARGE = -3; SPIN = 1
I -5.326321808173358 2.451728137712305 1.5860981544730637
C -2.126006061310965 2.843930695662801 0.2876485300503001
H -2.713930532946529 3.744068097130141 0.10615784854226483
H -2.026910661705267 2.6876407446000776 1.3691541504696572
H -1.126558165253768 2.9872521028915795 -0.13093955481315087
O -2.015661811392122 -1.8016888924654009 0.19232058446758882
C -4.903448437518799 -2.950518794758654 2.452653877700915
H -4.829600001596293 -3.6258603669870157 3.297736114620127
H -4.273207169497867 -3.2590125830794676 1.6247867542155092
H -5.92706649574495 -2.810029148710148 2.121232041517636
H -1.1499624816872145 -2.266152880200914 0.2382231008897936
Rh -3.586240760067934 0.5511676780267445 0.9117169945037091
I -4.1767265083545 -1.0001646199183252 3.135696804401193
I -5.065631288090467 -0.8514100384224351 -0.730781315557318
O -2.674268998504469 1.5253175665774277 -1.6443368259608475
C -2.779153971502375 1.6735655585716627 -0.4402451129023078
O -1.054391673415037 -0.06882412039309882 1.2765087970978186
C -2.0230913523438034 -0.5860752394564224 0.7196382174784945
O 3.8603491015750953 2.5428632131030238 -1.7000854051351477
C 5.239263087269516 -2.4627741693420173 0.7834592416514711
H 4.661931222855468 -3.1014012297325797 0.12156162802566359
H 4.846364585804367 -2.502899420488594 1.7954800067342362
H 6.302315286488359 -2.6722615179329834 0.7454659452752284
H 4.418610360981355 2.0463631875204578 -1.0785545777334096
Rh 1.5479369887565748 -0.027238419799501916 0.5435711084758824
I 1.9586984140197854 -0.9470266304021329 2.96266390331051
I 4.984828474492066 -0.3798418086614876 0.07928041493501993
O 0.4825022655995997 1.9916853352543684 -1.3157135106913147
C 0.7979994428048276 0.7830273271823482 -1.1960303842765827
O 1.7046601130151455 2.8475819487666554 1.2409856183062922
C 1.6989493948003342 1.700122890623435 1.0102097676688608
O -0.20404106017168042 -0.09916020422615196 -1.7484119206958557
H -0.9209454924863035 0.44383070147536824 -2.1138191664212194
Rh 2.6516964364287645 -0.13388690326744362 -1.8238993611285983
I 1.6558407980429164 -2.356209543910289 -0.7472537670826674
O 2.399493668331059 2.2880790445271337 -3.330544039622315
C 2.960031628774113 1.7220128042521325 -2.3988559099626294
O 3.477524563000079 -0.4502771771633929 -4.671936597190416
C 3.2541688987238433 -0.47752332455996616 -3.5308421556374263
