34
## STRUCTURE-ID: 645709ada653cb0a3a5c0b11 ; CHARGE = -3; SPIN = 1
I -4.98239271663579 1.5269988738838398 3.660497472815551
O -1.8151229357350904 2.0826558375624895 0.46582626485895146
C -3.5897801647933942 0.7045611752206306 -1.5912495527902526
H -3.2896638490375416 1.564762771470759 -2.2380272527242444
H -2.6175000590791653 0.15658563126527905 -1.4410809937352134
H -1.6301488598247589 2.778768227120467 -0.15822309990342445
Rh -4.148213148628432 -0.3257746970500707 2.0493352821973096
I -6.547874805487937 1.1350389604535958 0.04248660781258892
I -3.8058748297866236 1.5798270077708318 0.2906661297335867
O -5.233811477358392 -2.329537464066803 3.981164107148751
C -4.817263936811618 -1.5886724509595282 3.2275120112208473
O -3.4009926825313124 -2.1555977133507733 -0.18995480082249513
C -3.7364607613128524 -1.5323979746101841 0.716371514954979
O 4.830906116422862 -0.21183322949876854 -2.1582773555444246
C 5.012697078849433 -1.890925874101552 1.7046338060240338
H 4.933242296379975 -2.895483890711641 1.3072932768937329
H 4.976618154330517 -1.8864928098489424 2.7879650227578217
H 5.877701463880069 -1.3590912971230598 1.3287159488268392
H 5.003118574019493 -0.9686717802244884 -1.5679212258518385
Rh 0.3027570337221438 0.20986512609803173 0.8862392418025895
I -1.093601477915719 -0.381857390680739 3.088883112841458
I 3.1158867006182267 -0.7303188178694954 1.0294970903627068
O 2.0319179202918694 1.9113316561153417 -0.7608769646180776
C 1.1158093629507868 1.0573891193330915 -0.7732523905638723
O 0.7644594351500069 3.0529629685344983 1.5886336932271008
C 0.615565617002876 1.9068563924292736 1.4267153868011133
O 0.1309914700345149 1.304561068663884 -1.790101346776035
H 0.47482206164775037 2.0168974290382176 -2.3538654487579795
Rh 2.071189186499761 -0.9020399181873013 -1.419579248468663
I -0.06571560840466513 -2.1425632932584846 -0.28136869537479164
O 3.266136865958746 0.9703232238164978 -3.1478976644132532
C 3.505011841564577 0.06630514447143063 -2.355428765438143
O 1.1768870004426542 -1.4093491288243583 -4.223618919406974
C 1.5686991335773735 -1.315082882881952 -3.131712245090473
