31
## STRUCTURE-ID: 645704dfe90fc870ef1fea6d ; CHARGE = -3; SPIN = 1
I -3.7143645966421377 -3.7944094698718995 -1.929543090463051
O -0.9383374459090419 -2.0601616478462654 -2.0786404617915215
H 2.0074141249647184 4.5374412448996875 -2.0821719022003666
Rh -2.9830284915925063 -2.035960722003987 -0.05578836577006927
I -2.971739110237041 0.13904826447653337 1.434623964193792
I -4.0531888186475085 -3.4539960443557054 1.8480944551365237
O -0.7304165429459496 -0.3733890712328136 -0.6269456124511444
C -1.3319667274077815 -1.2858346816204884 -1.1965262843879412
O -3.191764167854657 -0.11504751614215021 -2.3157095837253414
C -2.9753096142226214 -0.8775995283511353 -1.440836770845446
O 3.175007344604651 2.9475229931860705 -1.1826761132732173
C -0.005531586656650298 3.324363546745399 2.2588513669994676
H 0.1481705668645856 4.098545309824791 1.5167234999337265
H 0.5173395976016902 3.5361075454086834 3.1856336203088245
H -1.0602758916987258 3.1283561561435795 2.424482181171199
H 3.69767274970388 2.2246113823613753 -0.784461212246633
Rh 1.6167344964964654 -1.4929133917474742 1.6475854359869144
I 3.513230667083502 -0.8133965577955514 3.320624279904853
I 0.8831904127779585 1.4355777456794097 1.4549926116248417
O -0.7176625740380888 -3.090915564701529 0.6122532429330061
C 0.4619291499457811 -2.6742705664327153 0.504899188380455
O -0.36026167713421675 -2.4588119846059264 3.635701125862821
C 0.47787535248462615 -2.0417115922350018 2.937872090797488
O 1.238637010798514 -3.39929248732762 -0.3970610270545164
H 0.7346665345642717 -4.110076304536789 -0.836216841612535
Rh 0.8843939323363093 1.1395268928511944 -1.2093890856620146
I 3.0047545551310533 -0.7091706452171976 -0.5070945936551614
O 1.3900452705023663 3.7607378418196746 -2.0656656551641457
C 1.9380708701715847 2.720103769503918 -1.532674051737848
O -0.6809304550440288 0.7095137324843935 -3.6898548402662206
C 0.025645063998965066 1.0855013506398241 -2.851081570927104
