34
## STRUCTURE-ID: 645759da5bca1d2e516cd4ad ; CHARGE = -3; SPIN = 1
I -4.906659731276769 1.310806491394007 -1.1195315087460813
C -4.805416665856273 3.417917161230512 -0.43477626345791703
H -3.7564732129424687 3.714267443067928 -0.4263107507331773
H -5.225469112922794 3.45727477277996 0.5663305920508946
H -5.382346306214869 4.001039216833669 -1.145208782273808
O -2.2138369879759336 -0.3946642129076566 -2.133571813282376
Rh -3.153728657771343 -0.23421590366411815 0.3999210109580526
I -3.584790886047196 1.2010782263204973 2.618234577195991
I -1.5133139461308767 1.4677550425537376 -0.694576439392901
O -2.3637183084797484 -2.454063036579694 -1.2527892102592812
C -2.500605242690821 -1.2086863299531707 -1.197311526442453
O -3.5853859918990962 -3.0351984744885776 1.3785315597351833
C -3.6270827224605844 -1.9066596888130054 1.0579894705403763
O 2.7878230259926493 -2.9919147193752718 2.0980038876362395
C -0.03524417300753906 -0.8708766390662596 1.3934692974812652
H 0.1970757995723938 -1.7453777387011344 2.005575027203159
H -0.18081651665708176 -1.2422146581074136 0.36747826656583904
H -0.9596313921986565 -0.4249287342566865 1.7848755818473059
H 3.472533811896726 -2.6591332190312738 2.7097848938992724
Rh 1.0217698578489314 1.686540773999917 -1.203292306330063
I 0.16852717180644755 4.002479790587547 -0.2530472658489462
I 1.5276924660866351 0.46709086313232917 1.3887980290804731
O 0.6000743078457269 -1.012071229847431 -1.9468468477096406
C 1.473857487362302 -0.1467149501528532 -1.7707034408945226
O 3.6507018783646883 2.529551343719187 -2.363213522004217
C 2.6400686760476955 2.237546586954447 -1.933233236680322
O 2.781594584179911 -0.5164500757239139 -1.8477610944941512
H 2.8814714563046593 -1.4728799692995544 -2.0191956991368074
Rh 3.778153714585743 -0.599210311083969 0.8368348746691446
I 4.092093929080977 1.9547454166118925 1.4848975450026918
O 2.113249822841504 -2.8017649886448295 -0.0033960573982593245
C 2.8465077185401784 -2.329229119132322 0.8723058593120755
O 6.358848765355682 -1.988286554941442 0.2570058406167901
C 5.40247538081918 -1.41355257541482 0.5247294512904204
