34
## STRUCTURE-ID: 64573e3004ce8908a63dae4a ; CHARGE = -3; SPIN = 1
I -4.952926845292707 -0.9430421405629485 0.5559999915228605
O -3.026791567249139 1.2943815714517137 1.8275510756657933
C -1.627541172506766 -4.070293756465076 -0.21347563443299244
H -2.2710518309606695 -3.85388990861683 0.6722171064366033
H -0.6538529277385015 -3.5611349885001333 0.04589903540321656
H -3.0503911703077304 2.1552593886308826 2.3031983126312507
Rh -2.518561970786174 -0.2715684422932345 -0.4678029919199662
I -3.629058682262155 1.0156448235715143 -2.5251436931431277
I -2.4888581893393225 -2.7934829167863104 -1.7529384690942134
O -1.9369383126432456 2.435725123585989 0.29117298793904145
C -2.4784128737193005 1.3693816607507627 0.6225271832084346
O -1.7529108985462978 -1.6491040360253395 2.066758190364682
C -1.646979798467486 -1.0933400030480827 1.036812406967259
O -0.4560385334688454 1.5692189204090248 -1.5845280317126103
C 1.0238986061269433 3.6446028120248375 0.2701440199915533
H 0.026190975841743198 4.070800395227197 0.26134228180024
H 1.338335552736196 3.3707876900258253 -0.7316268558846757
H 1.7422419849029906 4.300704883286148 0.7516371876234145
H -1.032748787134194 2.0568654877949664 -0.919731379063586
Rh 2.5630707552882654 -0.31842987251655447 1.0878760336343525
I 4.940637335997676 0.6414113922564529 1.7734200941834997
I 0.948714566816909 1.8222026198278098 1.431541704087132
O 2.5903549322254777 1.2163380641464614 -1.2828190011343201
C 2.8776778335359245 0.12323919743440781 -0.8115194836920214
O 3.1680642653449924 -3.20065119967632 0.7035052618697799
C 2.9120329269577736 -2.080723675934208 0.8106108146221643
O 3.5328619551254605 -0.7853114603097093 -1.557044700808073
H 3.761402624503011 -0.43736039358771145 -2.444758839182867
Rh 0.12484514934537615 -0.4523098901278951 0.2966970542484179
I 1.5335354081420178 -0.7418257945169515 3.5878710537792635
O -0.4561912645789262 -0.44694087940127336 -2.4904052522408393
C -0.8203235579524684 0.25569120032989245 -1.5376757393855813
O 1.077160372004089 -2.650152797600951 -1.4627697556118904
C 0.6385531380597999 -1.9926930747832006 -0.6145419686722446
