39
## STRUCTURE-ID: 645753eb50b69149be0b5356 ; CHARGE = -3; SPIN = 1
I -4.534346007274147 2.576771998452903 0.5281724517059495
C -2.4520852604764536 0.4093770823910533 -1.385438373855167
H -3.4200291221377253 -0.09247753509212611 -1.2255988914980602
H -2.5821014389675345 1.2237850987019365 -2.1027355009309168
H -1.7797739509452182 -0.34223953225038667 -1.806699357294027
O -1.8965030811288086 -1.8938922343099023 2.5188510895252896
C -3.8691313545609867 1.8564703066412522 4.761832394790746
H -4.336308359873871 0.9294560967396363 5.078403762832886
H -4.554904867358617 2.444090335693644 4.158674296194602
H -3.491017134090483 2.426438031057041 5.602775365436161
H -1.622292341614517 -2.837047665443723 2.4540290932365094
Rh -3.1828815655479503 0.33765850858573715 1.2174113341314494
I -2.130254784608826 1.3419863879211016 3.498897106758396
I -5.274939312018735 -0.8386828235475485 2.3939064776973646
O -1.1731263844580475 2.009560882411097 -0.08937159498430831
C -1.8688108432343427 0.9896575978047264 -0.08096418734068273
O -2.5950440473542367 -2.117633129163116 0.38152696820709425
C -2.4398405606113243 -1.4337235762138019 1.3904683845342252
O 4.542086033564951 2.1975595682264717 -1.8382100353978132
C 4.486915928293803 -2.9980540431918925 -0.18028196314994574
H 4.779176790195521 -3.13536729814263 -1.215675883129061
H 3.8068961678406867 -3.782200819453833 0.14265170806197833
H 5.34351786790899 -2.915590417535736 0.48037236453088805
H 5.079210555875505 1.4107345709061496 -1.6340823348579003
Rh 0.4368772547942336 -1.2154422627901256 -0.5371393144258961
I 0.39342944857970036 -3.6372927014060967 0.5620885322813134
I 3.3624618401670716 -1.0590599169595096 -0.05203927494054854
O 1.6299807866320561 1.3480530572383884 -0.4059991115800806
C 0.9227526936801346 0.6035364935222015 -1.1148286279153596
O 0.09626896874966982 0.4288990402392728 1.853672538692743
C -0.17524196355783683 -0.17991912621115652 0.8770950528476397
O 0.28366816934045497 1.1881915790505333 -2.2035814378504717
H 0.5134062422123951 2.1352463656163243 -2.2184699778758206
Rh 2.5902907346261728 0.1370007573620276 -2.6432836288144435
I 0.9730465436696264 -2.0276179462176245 -3.075841209068347
O 2.6185262229689545 2.876514966996114 -2.6835895153051412
C 3.336781576198174 1.9272446844217967 -2.3912824534113235
O 4.43099344818084 -0.21090654523103314 -4.969539545017192
C 3.752345106340395 -0.08108583681973462 -4.046176702822801
