34
## STRUCTURE-ID: 64570a605122375d123dae44 ; CHARGE = -3; SPIN = 1
I -3.698673126164178 3.3716106959436485 -1.474396081392929
O -0.9895781606129441 -0.848780116851523 -2.048827687643859
C -3.7361537794774535 -0.883346806845035 -4.495250980768345
H -3.4125087271374945 -1.43117557962725 -5.362843214725239
H -4.735974509597192 -0.9985503178317542 -4.10799839339725
H -0.36476852632386514 -1.3598929671058686 -2.567722185969649
Rh -3.269409040667646 0.8990880576589163 -0.7576142453326355
I -5.6729343054843735 0.06411637215174648 -1.446075519993914
I -2.3626900324770714 0.1634750248373097 -3.476228804026561
O -1.6800009509504663 1.4845774459898793 1.5892863545246494
C -1.7853172918068252 1.405699070845418 0.3954028279644882
O -2.8522808688007273 -1.6861706183342429 0.6460933000599947
C -2.9880603753792103 -0.7053582779881915 0.029345271293381454
O 3.188971624536112 -2.23061559335115 3.032143008092182
C 0.4905849402508233 0.43463020398794905 3.6157867627084803
H 1.099836363276821 0.045527729318480314 4.422233699411852
H -0.04945933423858042 -0.3769953487809933 3.131282706860663
H -0.21864349729738267 1.1715439392925966 3.9773756353521956
H 3.9137839937960996 -1.7217373886768976 3.435436835650883
Rh 0.23452227918133273 1.8483494004575516 -0.0764583587418841
I 0.11337029300713485 4.439525671687815 0.3860376713843366
I 1.7123247427983581 1.310497250488527 2.1236208548920334
O -0.16290624744008983 -0.8301759590880315 0.7174852431869441
C 0.4617778206050296 -0.1216771666787022 -0.0807753181177526
O 0.006274474547261192 1.7745041260693806 -3.042824747267833
C 0.106341043507235 1.8468926271861037 -1.893812310783219
O 1.5029940418061363 -0.6649240033707108 -0.7644849628668784
H 1.6571989084901222 -1.5807696367156814 -0.41288927216977606
Rh 3.54288977850857 -0.134935567827433 1.0029424872187325
I 3.8491577184716417 2.3248407578976424 0.03162226411935183
O 2.1305415128274667 -2.5443310314566148 1.1208948789496285
C 2.9135763545875615 -1.8275657724441272 1.750126771611946
O 5.9860374748713925 -1.620839218217944 0.12887724663278993
C 5.069175408786374 -1.017037002620767 0.4722082632831783
