39
## STRUCTURE-ID: 64574fdc2f7a232f23333be0 ; CHARGE = -3; SPIN = 1
I -2.606219317545996 2.682612081973923 -0.027093034032936204
C -3.688871546951831 0.6864753973861192 -3.0801758123910497
H -4.237479210537044 1.5265147796306258 -2.659327180874739
H -3.1668702769431225 0.989341285524017 -3.989535553101815
H -4.39696203823258 -0.10823410813258365 -3.31407050942347
O -3.491770412772987 -2.805315589404925 0.17834750254418436
C -5.1136734260111085 -0.6332638649504522 3.32625964770685
H -5.490332181098419 -1.5082973575483627 2.8062573908064046
H -5.699631827234561 0.2443038760076905 3.0726093833315042
H -5.04932342499232 -0.788474202272673 4.397692605376678
H -3.159578384342899 -3.7238398526130996 0.2523187222808964
Rh -2.883166758558359 0.003884848204370153 -0.155445525395517
I -3.0005321114655015 -0.28093836592788196 2.638859087002115
I -5.446678535007758 -0.27491232029743057 -0.32690882470058136
O -1.5696216285849944 -0.23863980035943738 -2.4927602476476545
C -2.6692745741479635 0.13600308222593213 -2.0997867118768947
O -1.421909985308492 -2.246153162257396 -0.4669648777509509
C -2.5693638302687773 -1.9157486675311843 -0.17964448304567615
O 5.238976728103979 2.586255574447953 0.7221333546225698
C 6.0614493464643635 -0.7015639976802628 1.8795840497908776
H 5.870949343299132 -0.4398510235116878 2.9127289805197933
H 6.623734538247039 0.06061860159080573 1.3545820775551392
H 6.530697479617416 -1.67460550634049 1.798848142205478
H 5.187848460626397 2.2408607122000603 1.6320422294064945
Rh 1.3984868751756925 -1.4956120036055287 -0.26462877993931
I 1.3346571276192678 -3.826849300405274 0.9569205010533535
I 4.018609335622289 -0.9040802973845568 0.8275473968048341
O 2.6355728819774344 0.38311833292286024 -2.0990611307362856
C 1.7162361406934874 0.22567491917064056 -1.2622740114642295
O 1.5339326899137713 -2.2068537223488716 -3.134473627742646
C 1.589828337007382 -2.0728159089518545 -1.9712375835079354
O 0.6059412521318989 1.087047905448277 -1.4654765108933117
H 0.7829841092437823 1.629529993585557 -2.250442347196616
Rh 2.6092865954720192 1.3026244230933512 0.6759728493754403
I 0.5161232410449167 -0.05916401777501951 1.7514493603450687
O 4.124840900510913 2.814331783695139 -1.1622319071556155
C 4.114085248878574 2.3437556237911354 -0.032701273259335806
O 1.3475887089015086 4.006831623986573 0.5462755857597147
C 1.8194301294533595 2.9554282244137515 0.7038110656490799
