31
## STRUCTURE-ID: 64579b7eba766a4ba1662c5d ; CHARGE = -3; SPIN = 1
H -2.4452523117376592 -3.7854965694741023 0.4427735113346385
I -1.9109834707378448 -2.7292001307315403 1.5677373482184
O -1.4889444823583606 -0.338784920892413 4.220987631425177
Rh -3.77610373912718 -0.2514482200834806 1.7082426864345255
I -6.097887657999075 -1.3426013082510075 1.777600622796472
I -3.3612967154940963 -0.6576752696905287 4.269514314667184
O -1.7054471595816845 1.849423928941833 2.0492437269513095
C -2.12793943899603 0.7347358007787795 1.8981840805532328
O -3.4767307404890917 1.396048452251464 -0.7224870182668826
C -3.771934071371419 0.6455885805845281 0.12143731420383072
O 2.4095977945255034 1.5380839697124906 -3.5278535718717308
C 0.10163684703814004 2.339419923109316 -0.4825758170883512
H 0.32332443050971643 2.8341460220054686 -1.4234001337968165
H 0.9739149266281559 2.402419305436887 0.1676951795891777
H -0.7469114439646589 2.829656608595529 -0.004820558690016771
H 1.7493674680344053 1.358764024576395 -4.220899767355663
Rh -0.20761407530620096 0.19851334017537323 1.8512274158034754
I 1.3384820974956446 1.3504414290748141 3.844762073963244
I -0.35966609067384475 0.3065824948162428 -0.8259798190858598
O 2.593543965210936 0.8540235171995972 0.8816420642152747
C 2.27948665266392 -0.33297624743663745 0.8262488253211603
O 1.4228878053646519 -2.1059602092642407 2.2216400880358056
C 1.2750157121853778 -0.9920716648065405 1.7432186323471526
O 2.70975961606223 -1.1184433710223194 -0.14013190199328693
H 3.2207593415002584 -0.5126167267225062 -0.821461436774065
Rh 1.188325383570084 -0.9068391683558304 -2.4868941768918793
I -0.9489975006069648 -2.407920284054315 -2.1431273120153445
O 3.4770303781353666 0.6128433345536614 -1.843966461657426
C 2.520708651487729 0.5199862558764295 -2.63131794987369
O 2.722315098149891 -2.445827642978605 -4.539323195950952
C 2.119552729882863 -1.842815253924968 -3.777916394547196
