34
## STRUCTURE-ID: 645734335794127d1532bada ; CHARGE = -3; SPIN = 1
I -1.9311524614906002 -0.7090585464292946 -2.7383750935117597
C -3.488391596816038 -0.29783015121147166 -4.017396351500671
H -4.202946079457611 -1.0845164965052883 -4.206555893567466
H -3.639826548944346 0.7277278520914207 -4.320143579168755
O -3.20614264951514 -2.745904851818 -0.530905366916857
H -3.233203729316588 -3.7111791499951443 -0.3495002347117267
Rh -2.2339591867266164 -0.11571928837574694 -0.17447464308188243
I -1.6324949098597927 2.581237011278814 -0.47106112488471025
I -1.963515193946816 0.5952354222724968 2.843479252671458
O -1.7342680721980244 -2.510761262584633 1.1495274292790936
C -2.3962663284781085 -2.0540947993788827 0.23397016340576426
O -5.214034516810265 0.22278914605856742 -0.24301771936588584
C -4.095818786095865 0.05516578160720305 -0.24541216641764876
O 1.9717019544478787 3.4041048294036313 0.07360153828684829
C 1.099304557905682 0.4743369277222708 -1.6405945289085695
H 0.48458044077170664 1.2603554399857586 -2.0791404996377736
H 1.1655279203211606 -0.38658040165241314 -2.3053947667807657
H 2.1038052489939645 0.8453600476035834 -1.4393339344324747
H 1.0964794359170926 3.658165528997395 -0.28265429587822183
Rh 1.9275720953050626 -2.1644730487904402 0.5394592404939711
I 0.4443747960298161 -3.4591326835078666 -1.2499903772349756
I 0.3720191957040567 -0.17143721773136938 0.2829090325953332
O 3.497075437271207 0.19997419752997586 0.2888905028330501
C 2.8771947072359083 -0.5560528521824584 1.0637933439831264
O 4.8332978929294095 -2.6441999440833506 0.0972259281568813
C 3.6533936497135238 -2.615602321305194 0.14806453003182227
O 2.8064157599550756 -0.15974977898898624 2.3900905655273954
H 3.1270252862653596 0.7771706896125841 2.4374614155229466
Rh 0.14072348870669726 1.8850217860756902 1.799765238635936
I 1.208328715579449 -3.3803101495101417 2.996734722227166
O 2.9639245690759988 2.4374414891369924 1.791180792856768
C 1.8810100264004965 2.5947584254599065 1.1995133299049066
O 0.8708393394600168 3.901395458513413 3.867221217823275
C 0.4474255416661623 3.146362910700978 3.091062331764432
