31
## STRUCTURE-ID: 6457042de01b0858df112998 ; CHARGE = -3; SPIN = 1
I -5.508389103466514 -2.868215193619396 0.5903237137967924
O -5.97420669354165 0.31485086948842916 -0.8675657945874812
H -6.536356224900567 1.0725884546876225 -0.5904230055223172
Rh -3.71083393437154 -1.3807350051079847 -0.6235299218044403
I -1.8271796220355625 0.33490630955840417 -1.6933787663359496
I -4.815447904389625 -1.7728665624775293 -2.990720359631414
O -4.584728787353988 0.9127533173874774 0.7626069905946843
C -4.8845116063745975 0.16870416649435357 -0.15018576687386576
O -2.3171706365650993 -0.9808161506482178 1.9825713751704186
C -2.859300234105299 -1.1533929146695434 0.986488914391637
O 2.1883931537961803 3.8349105282048486 0.7626789532288156
C 4.6662708492239595 -0.9417116351912004 2.092213996376543
H 5.72787853078508 -0.9180315699788799 2.303520380953298
H 4.4651999635007655 -1.1576007096111725 1.0487955663356598
H 4.126964064735187 -1.630089071959264 2.7329066641108546
H 2.0023515590721814 3.693074300524762 1.704941901474354
Rh 0.3056416949183459 -1.5611900773366527 -1.2014728170552453
I -1.6589333603384688 -3.4826903651269445 -1.0559539289852289
I 3.8797192023297473 1.0329173546189476 2.4751335690928666
O 2.7671874913873875 -0.044364501712570246 -0.7685836052218236
C 1.6309035653999984 -0.11898403707062288 -1.3153203091964738
O 2.4882229270991467 -2.1560129720834476 -3.1431324541513517
C 1.5339773976944542 -2.140969279182055 -2.4607798650331847
O 1.398552979923066 0.7117070759947282 -2.3914716476235878
H 1.9513216850149866 1.5218177077659785 -2.269976085883335
Rh 1.480462646446578 0.9822008822492782 0.7162341968049044
I 0.9447627957553989 -1.5527016904262587 1.5793677690039492
O 2.349028841482035 2.8903315461914034 -1.202656387628633
C 2.0233201882930367 2.72846695321302 -0.027924867267194408
O -1.1717099316793378 1.975553708254388 1.655637790050562
C -0.08139149773512594 1.6855885615675221 1.3596538014163198
