34
## STRUCTURE-ID: 645726e56e258632002a1567 ; CHARGE = -3; SPIN = 5
I -2.529585376536547 2.2012256264201717 0.5002777673331128
O -2.5508243535374207 -0.4147718631129442 -3.4960286664703233
C -1.1665852848797786 4.575005314032118 -2.567755126769796
H -1.9353522606979898 5.320590531941824 -2.439123808681727
H -0.14077320721110806 4.710620463791641 -2.2532410337451503
H -2.3734672190098505 -1.3532122405335683 -3.4374189139464346
Rh -2.549117488178762 0.5761839670836614 -1.624657007384331
I -5.204711542894418 0.747158704524749 -1.9360697406388427
I -1.748455534661648 2.6814621323322996 -3.2565446563653846
O -3.1317826716054293 -1.2371430827244536 0.6770156197458169
C -2.263363038275964 -0.7848602307666257 -0.10957849626344449
O -2.1436364981691867 -2.5934584278463686 -1.6727675070093437
C -1.7453992270579963 -1.4464394449473885 -1.2813242702048415
O 4.327004778800219 -1.0349432857960705 3.4550170500564064
C -1.1814626306062181 -1.3425120740562602 2.8730613868643498
H -1.095451785132322 -1.820588033622135 3.844552890360843
H -1.1099423981903491 -2.1085134789262754 2.100540018507777
H -2.153352146475924 -0.8540699647336826 2.7926675202703346
H 4.599890003405932 -0.10199212160843886 3.673437321155565
Rh -0.6335090856314287 0.3787064366982043 0.06032520404659589
I 1.392068283821451 1.9550999711059538 -0.5568182972380199
I 0.3391716314546517 0.05969725649837078 2.599430153924893
O -0.008553455089915566 -2.3160402642563946 0.25848975844337174
C 0.36209191648899725 -1.307808709214304 -0.43434780321541333
O 0.1527521780019172 -0.836910063499509 -2.7254421042488945
C -0.4814952516767096 -0.8407971333118075 -1.6089528535764632
O 1.7126698004646952 -1.3556097276658075 -0.8494087329637098
H 1.6808039976952678 -1.0645477491248483 -1.791411570368479
Rh 2.754220865633568 0.09586916191990388 1.2534367788200116
I 2.520470982255693 2.010561806733437 3.1428991333851086
O 3.0912421994372288 -2.368293644841744 2.1781305684541667
C 3.5325957051122723 -1.2785959182736026 2.474910019715746
O 5.274448725354406 0.7369930038260686 -0.24544563699462627
C 4.407389387592628 0.4119330819538804 0.4021450350011689
