39
## STRUCTURE-ID: 645751f10e87ac30f84975b6 ; CHARGE = -3; SPIN = 1
I -1.0859917044361969 0.571765118497805 3.6446165767266168
C -3.165241838283533 2.336454453266491 -1.1599280102374834
H -4.187510181442555 2.0161374809713255 -0.9961788381362909
H -2.9640756883777253 3.2626560863822607 -0.6196641114835917
H -3.00580436626889 2.5275513004791867 -2.2253056326979714
O -2.089949514627766 -1.1308079539089402 -1.3840351328661213
C -1.7227433507601053 -3.2998933477430863 3.220015565607221
H -1.9943127119759236 -4.347343888418239 3.270800704586001
H -1.7933049714906324 -2.801375392288023 4.180860010122686
H -0.7440785995862372 -3.1460914442774897 2.774364932216678
H -2.7057290689516456 -1.7950694133976142 -1.7437472595514367
Rh -2.0870162357211735 0.33649204672423455 1.0777364370659483
I -3.173557179842474 -2.326003936057096 1.8875885571792814
I -4.286489318318361 1.655136473223803 1.88742255022433
O -1.0025693655622214 1.4047743306112828 -1.2956435258745485
C -2.1493602647443746 1.264640740449957 -0.7656252087541328
O -4.076944641237453 -0.22487174759926248 -0.9246511134341141
C -2.8436253826545177 -0.15297565415773687 -0.7448195505772697
O 3.292895868779828 -0.40801336357160606 -4.175921076019902
C 3.698698030404764 -2.9021836314349985 1.1039100607727899
H 4.3351109659875 -3.778386362916597 1.0403202587318046
H 2.647654409494107 -3.146640036807195 1.2234433514356695
H 4.021754823116975 -2.2098626420034893 1.8756501374048336
H 3.3416894245252626 -1.3624726375441842 -3.989198509960624
Rh 0.7877224215737784 1.5813297517080174 1.9901721333590137
I 2.8591511931008 0.765991657944108 3.314494913250232
I 3.872390094934882 -1.8640473226511738 -0.8336157308144855
O 2.5678990112148505 1.5059743134837973 -0.2883512510321023
C 2.016996763356139 2.1896155439394183 0.5789680960184538
O -0.8781399848312388 3.6572175959965447 0.6408914899087135
C -0.35956147913621966 2.7354773892651387 1.1581218066615937
O 2.342444123063509 3.5259299889672158 0.6060473978748229
H 3.0139385108794086 3.7369231213977896 -0.07354688501977173
Rh 1.7748344348948448 -0.45085875500898753 -1.648713980209313
I 0.3415493355469945 -0.9713328214450193 0.5201334883926527
O 2.698656248152126 1.5425849260194466 -3.3433490058328372
C 2.6783634212225405 0.3260921742462152 -3.1914273606572148
O -0.37709232050121555 -0.2499110668696574 -3.7271807927234777
C 0.40134908850199985 -0.3746030754739985 -2.864655491656733
