34
## STRUCTURE-ID: 64575273940da97fe65c71a7 ; CHARGE = -3; SPIN = 1
I -3.919424780579133 1.2290054672768687 1.9354730080992726
O -3.00088684916282 -2.0653537352559046 1.3978784953634829
C -3.4559772262050683 -2.330388373676639 -2.2547922461375816
H -4.34060233964032 -2.851485284578937 -1.885700602358129
H -2.784276771557169 -2.766064690816376 -3.0032171197062216
H -3.1904722098901024 -2.797529362173652 2.024759429203389
Rh -1.6254866189798456 0.4017811525071818 0.8475703170805284
I -2.906353756888684 -0.5364189145514996 -1.355148900784033
I -1.3139021250848313 2.498289620336772 -0.7390635938330273
O -0.7845541189687779 0.7819212781493706 3.577454965583285
C -0.7198684000914857 -0.005145852173005627 2.590471856500963
O -1.4377793007257174 -1.3453734179647958 2.8732892261812975
C -2.0562906195514454 -1.2098451033233162 1.7026037404713112
O 1.7719642492671162 3.738820750827947 -0.6896625523024141
C -0.2369841984854443 -1.6458632944024358 -3.887670110181695
H 0.37665308330679315 -1.638059500263462 -4.790046160857757
H -1.2190862780515852 -1.185276461655482 -4.030768880651373
H -0.26642249476222507 -2.6225609210989975 -3.3992020953588287
H 1.528755907909738 3.3541155708943964 -1.5541911177948209
Rh 0.6532304138062925 -0.475236938947404 0.1662055449984776
I -0.25372794994696846 -2.899502687326239 -0.1359382770593698
I 0.9492269471845585 -0.22785529900576873 -2.446369923401341
O 0.45823757173098517 2.1027855766176318 1.8230799817860528
C 1.1590877310526966 1.091282860778423 1.48938855966395
O 1.2386131029736869 -1.1756632057099798 2.7915780934994596
C 0.5602419073339471 -0.4352913712197858 2.0148490068195
O 2.3372549759331407 1.0194973873140485 2.5761197639657305
H 2.4077951962148822 1.9295570004063864 2.8747294012626954
Rh 2.727420424423195 0.9721182681938514 0.04643315550601687
I 3.4072382699411725 -1.5388958003531237 0.24278677360998216
O 2.741608851723669 3.418425570620114 1.2553595382288265
C 2.332371656981798 2.8556413188133942 0.2256509203196808
O 4.753701134009518 2.6045234277752694 -1.376334878006824
C 4.108694614778751 1.754044963985075 -0.9075753197106684
