34
## STRUCTURE-ID: 645755148f6c901de9230d6d ; CHARGE = -3; SPIN = 1
I -1.6072968652321935 1.0505253956550256 1.769734288577846
O -4.106058003471178 -0.002096086151519293 -3.1049930809706714
C -1.1853503729202293 -2.892774661811464 -1.974244227537829
H -0.23940123355404935 -2.8292303276524753 -1.4051545552233753
H -1.0788933998800487 -2.185664963331666 -2.8204417465550606
H -4.256497780444419 -0.047912275554095975 -4.075750244091046
Rh -2.552099779307396 0.6180162656177244 -0.7964098412091044
I -2.6786490100233715 -2.0417791713336806 -0.7278995778408539
I -5.079503196284748 0.6742956280993538 -0.14553145822042712
O -2.362332339793251 3.6021039930621677 -0.9336716093303017
C -2.4222029938253837 2.4541485433291244 -0.9090560955175528
O -2.127820127733515 0.9170705471597013 -3.557902075258958
C -2.9524219135148466 0.5298989311047819 -2.7501923481882877
O 0.8533704612771204 -2.628966356426198 2.4861628016130415
C 1.5882850164158089 0.8017874232158967 4.110128617932863
H 2.2846717960221214 0.3266028858747277 4.792322199323214
H 0.6529942731449042 0.2538291060193896 4.027863996196145
H 1.3956512771658036 1.833416620076964 4.393259098727511
H 1.6599032937974407 -2.884670886913411 2.9669253858925417
Rh 0.7850383578116581 2.1679559051870383 0.5668281714297302
I 0.9487106818437782 4.266031977900439 2.1424279327238858
I 2.5246536859578206 0.8531802240312726 2.1342278332038633
O -0.3316368507154459 0.29116485772539047 -1.4203894383409494
C 0.652334399502653 0.7095748571721442 -0.7710916846820564
O 0.4904536618418893 3.296194655959009 -2.1770011184192017
C 0.6191999139146009 3.0220407926781476 -1.0422847810662161
O 1.8608032895694713 0.2316496459851056 -1.2347545244183646
H 1.7445653511892247 -0.33023473068156245 -2.026679613068321
Rh 2.887205775050844 -1.3305574094631125 0.7892366976371163
I 5.155111453284658 -0.2602021342088765 0.015586970548980953
O 0.11417594655525634 -1.5317847686353405 0.7244201948524315
C 1.1097676280029707 -1.8930604074327886 1.3555141182319697
O 2.7298524881777126 -4.032925200291182 -0.46061345917883123
C 2.9234151161743513 -3.007628875966057 0.059423172226266176
