34
## STRUCTURE-ID: 6457230b5f84807c9f324923 ; CHARGE = -3; SPIN = 3
I -4.975186578944692 2.780207958259617 2.252782752532982
O -3.243052043020449 -2.3594352253013704 1.71171913715319
C -1.621008274789382 0.8782084042706032 -2.115114204080418
H -1.8144335383553023 -0.16756378995115273 -1.8949079443444459
H -2.116844219888729 1.1742907566265568 -3.036609405737935
H -3.8648746799926994 -2.2459401361590547 2.451218946337445
Rh -3.809764729332534 0.5116255761536873 1.527996532632053
I -1.930618931311155 0.5114695843919862 3.539081729652771
I -2.370267726352161 2.034425885530337 -0.537286352578837
O -2.0501459170073955 -1.271860504108536 0.2136575354030694
C -2.9271752347895723 -1.1852576461772661 1.0674465365397499
O -5.857673173994702 -0.8390501775997742 -0.16608744426038405
C -5.161947860665472 -0.24788651297522496 0.5549422765984279
O 2.1528991206940717 -0.49661415691483973 -3.8365903595360726
C 4.789190839920709 -1.6223608792721678 0.9265482904457344
H 5.866165841271344 -1.729615671714882 0.8924790328807499
H 4.321758944722514 -2.3039456282739215 1.6281331388554536
H 4.49065502182327 -0.6012360029045674 1.1344871693407763
H 2.2638507047296104 -1.454184475782477 -3.717166755919362
Rh 0.30462120208670507 0.9353493189600132 1.8882723413562472
I 2.3511282563048823 1.457793003538399 3.634934708339355
I 4.027997113917366 -2.1126259009593875 -1.0396169819860246
O 2.5083582910582565 0.885234174200079 -0.04136371393327752
C 1.3279774746254582 1.2662308009491297 0.1708859375654634
O -0.3323315863399979 3.8427571978037482 1.9212061177021929
C -0.11066964213800877 2.7101381472359187 1.8624080665794978
O 0.8577783737641591 2.3273904069076776 -0.5548931442864175
H 1.3165967561907 2.317365850714886 -1.4378767530786793
Rh 1.4405268792093922 -0.7061089917000098 -0.9893813862765239
I 1.004386487957927 -1.6247128489369598 1.5640705438871585
O 1.795608676665878 1.4164128701644143 -2.845418473228682
C 1.791728710864479 0.19548669350420544 -2.7199554495915823
O -0.6161108735084185 -2.4878385747124154 -2.229738677981003
C 0.19087631462384919 -1.7881495057674222 -1.780263746982547
