34
## STRUCTURE-ID: 645750d0ef343c76212a1567 ; CHARGE = -3; SPIN = 1
I -5.048660318086209 0.890954710103441 -0.1318842658056503
O -3.2479499009337762 -0.299828629966633 2.02065294058963
C -3.1142161469354726 -0.07211829432209671 -2.7735301317552086
H -2.929023098482318 0.7531827137196753 -3.462919833107804
H -3.802117011589331 -0.8856236234673837 -3.0138928985274798
H -3.302819272025775 -0.8526175029016025 2.82250545867004
Rh -2.673737090467669 1.971836474697306 0.5180135190003539
I -2.269356824373509 -0.1385407578829568 -0.8702147473069649
I -2.764211608255436 3.3060328600299163 -1.7243456896846356
O -2.213277236082007 4.163920771929821 2.4876514513601005
C -2.443394625785768 3.3643797505265534 1.695015140013867
O -1.6257707794952259 0.8223162208113064 3.0485409964054773
C -2.416241765731571 0.7594608383248805 2.0967990344258056
O 2.186634415539353 -3.9520770121195223 0.033995748312500636
C 1.371093459222923 -1.2984571161296803 1.9824185535607306
H 1.5198202510525571 -2.382708576486146 1.9647939638469583
H 1.0312341664135163 -0.9892493021805852 2.980790409257741
H 2.314625733442294 -0.7944970760094804 1.7708969454002068
H 1.6017978144708511 -4.311837788773393 -0.6525184904474731
Rh 0.010498090274015633 1.7684641001724282 -0.04049083596200965
I 1.3626380815513368 2.568245953908657 2.388805698686018
I -0.007166020852540243 -0.7643649127067204 0.6099934415318233
O 3.1673616064483765 0.6183815752832814 0.2127565372928368
C 3.088053870358265 -0.11863820818782986 -0.7948427702047031
O 0.44414445851771645 4.618586898885211 -0.6835022999325097
C 0.13548795977158995 3.5227353694734678 -0.4943817778582083
O 4.2174291040715755 -0.1512037494332751 -1.5905365195796117
H 4.943768299408986 0.39391618731590916 -1.2311689728113024
Rh 1.7306031379235964 -1.3802830801492902 -1.5464673756510683
I 0.6972768441416305 0.7157276882866391 -2.7410745947006747
O 3.7293254352842014 -2.394072242008377 0.3315314803499362
C 2.724918744322596 -2.6614139283357794 -0.35042595780475805
O 0.6732947336242965 -3.95210872327672 -2.556861052454213
C 0.9079354932569592 -2.838501589130934 -2.306103105109724
