34
## STRUCTURE-ID: 6457393ec2478c0d0f4dd533 ; CHARGE = -3; SPIN = 1
I -5.181618982010215 0.8231814955268771 -1.1515493893753965
C -5.950227937439347 2.6652777709973514 -1.6619988723037722
H -6.2696700777520435 3.3155990138248144 -0.8653463326677706
H -5.718566147554138 3.0442048370548687 -2.642559637841065
O -3.014277404766333 -1.3141685400316399 -2.4845941970478886
H -3.273469670170412 -2.2024176065786567 -2.796240658035529
Rh -2.625130764752433 0.5187622187560543 -0.2971622376905899
I -2.783735302389358 2.8937506364766223 0.9014843193147272
I -1.4730113873758803 1.5004259612313646 -2.4592223868041354
O -2.8791157465193904 -2.3694657623954165 -0.5286467003580109
C -2.756816128059496 -1.2941197748462538 -1.1270642477134967
O -2.8966469453202626 -0.9291038315342977 2.290084529266962
C -2.8816559329170492 -0.32912101685050354 1.297550627703166
O 2.6693923572770224 -0.2774498271701426 3.8733302222296384
C 5.922245505533506 1.755602294433537 0.5063847064364533
H 5.8229623545352265 2.4887937072868027 1.2987129159505213
H 5.373496276841652 2.0479346016712476 -0.38541493551443373
H 6.9588879180288234 1.5164700017424733 0.2930207210170183
H 3.211141019497847 0.5243109674963465 3.7397746736834594
Rh 0.4256822048661408 -0.6300209801908987 -1.9768516874126505
I 0.9490764286492953 -1.068176490362517 -4.608573620593277
I 4.985182716539783 -0.12041549934282332 1.230971265379476
O 1.9819944020419478 -2.0760279385270968 -0.07419296526693066
C 0.9061161765207089 -1.4116776333015693 -0.1793568889801339
O -0.4116376326131527 -3.45036701869729 -1.598545887018395
C -0.2046912689643663 -2.3051843715371554 -1.78224620056348
O -0.09949062996901069 -1.7365011712955414 0.750832897137839
H 0.37483853165550907 -2.0964393468256985 1.532686683196491
Rh 2.2809997635299055 0.06893615490253036 1.0010270059922066
I 2.4653790131264954 1.062250656055876 -1.4977076600803796
O 1.4907795079610875 -1.847330287780995 2.8956104243785448
C 2.1042687583113797 -0.7882479434053912 2.748604178021175
O -0.28910680724460597 1.0631010319703522 2.0988697495906714
C 0.786425830901148 0.957633691246738 1.65832958596905
