39
## STRUCTURE-ID: 6457369de650d56fca4efcb0 ; CHARGE = -3; SPIN = 3
I -4.431470264441334 2.747048805285732 0.8050924838261511
C -2.8984858555573694 0.27625970529094185 3.3043515131481076
H -2.2826232078108633 1.1701762730869487 3.191857680453503
H -3.623234555167509 0.4287779363049582 4.102529364580398
H -2.2518112655053772 -0.564514212108874 3.5675090004752645
O -1.3507065357844246 2.666915002752108 -0.8606741273096226
C -5.425202454705654 -2.712525250744711 -0.46661966579776043
H -5.657162120478902 -2.562767610049529 0.5811012429367445
H -4.461612291962993 -3.199776072032814 -0.5737632155687706
H -6.2128191660522845 -3.235225054131064 -0.9939514379097433
H -1.0456823101120778 3.1471997102942857 -1.6548690366964256
Rh -3.072739554425895 0.5257423785590838 0.2404960514205931
I -1.5013503668744768 -1.6750262280592658 0.07022749032247312
I -5.245705822903645 -0.7324279897206254 -1.3579681617418895
O -2.215572335570491 1.315073985119669 -2.410294171592307
C -2.1040222376847404 1.5604219112594373 -1.2004714642332914
O -4.611260696700806 -0.8159598376349099 2.043516750453937
C -3.632940511907416 -0.08991216052687188 2.0279236713371835
O 4.864297759765181 1.6801641593829764 -2.751334720013765
C 5.790950053435942 -0.7475427976271625 1.6008179525952648
H 5.308915727968847 -1.7229053243669 1.6057917990698367
H 5.969844133389144 -0.39212932252763516 2.610890458332359
H 6.695079922241714 -0.7513101194531634 1.0020116385643056
H 5.557476576924403 1.1633325936494836 -2.298923805446506
Rh 1.1171170845779808 -0.6248896836071846 0.9030590281146202
I 1.3508383294279678 -1.400095247323144 3.4318140269796684
I 4.361909604603733 0.6920732136765255 0.6566450586641039
O 1.6663024039741425 1.787557708517463 -0.603206107753875
C 1.3170255389843963 0.5872732814001215 -0.7317282989177132
O -0.3947806385869259 1.816791811700197 1.6576423677200944
C 0.21994846832729373 0.8624345636356482 1.401146548061873
O 0.45318320679503316 0.301780286551902 -1.7960988919208567
H 0.3862612647130842 1.079873874735883 -2.3711483103412876
Rh 3.2303382478370133 -0.41344860880238754 -1.4972113410220402
I 2.607890605814396 -2.617405824944904 -0.06030414196668847
O 2.717359816997742 1.7715072436720378 -3.221606506841665
C 3.5979431667921262 1.1710711542591887 -2.6152187719087983
O 2.407967391133525 -1.3872009670074081 -4.1955784569631644
C 2.798532888529437 -1.106413288466302 -3.143453493110227
