34
## STRUCTURE-ID: 645755fde519da77ea7ffa74 ; CHARGE = -3; SPIN = 1
I -4.91748477493973 2.2899374317685535 -1.3152972610371183
O -3.927359526260112 -1.2615851466382424 -0.7251851447659274
C -3.8991124571266917 -2.3697483402376704 -4.266886402228337
H -4.080258446383401 -3.0095968215758804 -3.4090572639220564
H -2.9036425147493157 -2.5207216924489804 -4.674078308646633
H -4.1291228364405015 -1.7861494566256102 0.07701813450782398
Rh -2.638424917100735 0.9612280281469876 -1.9363436332226258
I -4.182948696666186 -0.3644081849323411 -3.739137077266013
I -1.851879684713429 2.780157005974712 -3.8980001649713767
O -1.8573329740134197 2.7829751487865266 0.2625011022015018
C -1.6422328517255984 1.9637822796353586 -0.5640366721090606
O -2.7565811602937336 -0.031957045165171734 0.7092001244890078
C -3.135894424151703 -0.20906379661290903 -0.4485865950621243
O 3.1374486600428 -2.0897201561123477 3.2918519127726134
C 1.0876101503685784 -2.57993862627144 0.600302908722176
H 1.4681814387994467 -3.2366700119475516 1.3747134347644299
H 1.8906120094148222 -2.164080971520621 -0.0005848958032157236
H 0.356661561598772 -3.069939862229705 -0.03351503673216679
H 2.4161036828541143 -2.0018488271675317 3.939462530428977
Rh 0.24865870004494758 1.9466314157496876 0.3596977703087867
I -0.604158141097124 -0.8155398750938684 -2.3487835427820745
I 0.13173539920859 -0.8900657659692991 1.5602564549815074
O 2.532362097531355 0.3519697252982916 -0.18723081519297347
C 2.1466825523744193 1.3693133894503764 0.394882332066671
O 1.5162022266776232 2.631200286322901 -2.26479641037441
C 0.9172987164077375 2.370230106667189 -1.3095848847986489
O 3.046272589330507 2.387465546975402 0.6089654722293429
H 3.936895731791278 2.100168002405922 0.33003511458277496
Rh 2.084263535196347 0.5359418340109754 2.667873422884321
I 0.22581492361381972 2.5783803301023296 2.9743608094376786
O 4.288001130064757 -0.9984357709719195 1.7649403947783706
C 3.345867722031591 -0.9765627726263617 2.530137614684254
O 4.309827539284602 1.9512731585064775 4.0801828347573394
C 3.4399330390255916 1.3753794343457562 3.594721740317165
