37
## STRUCTURE-ID: 6457637ffaa4b321527c7c3a ; CHARGE = -2; SPIN = 1
H -2.0808263677289616 2.373920604012572 0.575462291737093
I -2.5516033756905694 1.5694286615138646 -0.8606443333113255
O -4.165211802329991 2.7383544898158045 -0.4862424584719728
C -4.10574556772303 0.770010006875899 -2.192325659663213
H -4.937684673579269 0.4221313051105872 -1.5894626930829163
H -3.6566208981964614 -0.05331212629371877 -2.7442703907940835
H -4.4372201986826365 1.54861218489427 -2.8667787089625287
H -4.004107558403775 3.384859304103201 0.20617598266811776
H -0.6614150851272278 -0.42990627069238874 3.428538771869313
Rh -2.2147801713002786 -0.840970544614458 0.05313168544429329
I -0.17200043369376794 0.31631842388280756 2.0507560966743674
I -4.172744761240837 -0.2316433489336563 1.6253009789595843
O -2.5181370742558724 -3.7239182512943674 0.8250778727153394
C -2.3939188443691872 -2.6316233592552094 0.5291201463524439
O -0.19564858208825073 -1.1959876839138122 -2.1214432833141035
C -0.9790434527235178 -1.1209965681366818 -1.274265712430875
O 0.1739624713900666 1.4827408928592116 -2.558516961697195
C 0.5245935137302166 -3.598404228576278 3.086080899123775
H -0.47525745555954196 -3.1892773550965328 3.1883256384940273
H 1.2349649114230046 -3.085820771122741 3.728524473166209
H 0.5379974563916267 -4.66915138586826 3.254918839383669
H 0.7174139545323978 1.261358726789646 -3.3335197296484833
Rh 2.3389373182665962 -0.7284322269526773 0.8235254316174141
I 3.529161444314871 -1.0607399521924172 3.1534903182203653
I 1.174730724239907 -3.2648914219751437 1.0096003881444817
O 2.4030955172754838 2.043909900226048 1.3842603148280377
C 3.0509651490020424 1.1128264569878399 0.8914556239035046
O 2.443661309794331 -2.05794442462718 -1.7662266076192992
C 2.4756544572787678 -1.115405581077036 -1.03383209457594
O 4.424875390422111 1.2661705743853957 0.8210203882289377
H 4.690488556721957 2.120134389135934 1.207998368271443
Rh 2.724046122027373 0.864599787079287 -1.4577443177757812
I 5.079819508063103 0.2552994378311359 -2.5365719945527636
O 0.1130719793433558 1.60470612822938 -0.37850637757894745
C 0.8341464473808237 1.3212815630016956 -1.3341894703974375
O 2.5179484833667503 3.8389565274880635 -1.5977465555033727
C 2.7324315877283163 2.702806136399847 -1.7104771604221543
