39
## STRUCTURE-ID: 645714989b93400699159864 ; CHARGE = -3; SPIN = 3
I -2.229769886400541 -1.6973425265344004 -0.3313527914008902
C -3.4666867543264703 -1.9450572768517664 -2.0867528170094647
H -3.1899897593179882 -1.1723622622019776 -2.79735419608188
H -4.5053788070093015 -1.8268527776081387 -1.7970375140015904
H -3.2837964527650607 -2.932879086334219 -2.491303390213182
O -5.284605026088284 2.3811976823406145 1.9144962577022637
C -1.9188333576041094 0.18531074585013785 3.306092885016053
H -1.6318556541039768 1.2397988987139628 3.2591365320049133
H -1.1782562150053897 -0.3964096596368101 2.758364390016626
H -1.9300248513353284 -0.13971780536954134 4.346285706457851
H -5.36910878623245 3.266002324273347 2.3241101767116565
Rh -3.5857558987234692 0.3713692312250164 0.7896337439707217
I -6.032501712495261 -0.967302678977441 0.6389993397073462
I -3.808640131461107 1.72556805937433 -1.5845921205489288
O -3.121835274432987 2.9188803004411668 1.9299364560116883
C -3.986711040623493 2.0759273757889996 1.6481824379368442
O -4.244551362942394 -0.15422980019817026 3.520635714061984
C -3.334371969146762 0.04415506777240355 2.714763115504736
O 5.745410659550857 1.8963889347012708 -1.6169493511843605
C 4.371052403849379 -2.426659587356496 0.8066622522415046
H 4.452508632386576 -2.7358969703400184 -0.23114196898111827
H 3.612694627068107 -3.003920181924974 1.3299627259489089
H 5.323938420024727 -2.4273222861663313 1.324626114866678
H 6.138637049644509 1.1596806257778534 -1.1109819553235274
Rh 0.6209265184071738 -0.6003937549873335 -0.04331985853010495
I 0.3169575899878124 -2.6340367399568367 1.662956110330676
I 3.666137286901121 -0.3413142636586707 0.7967108172746492
O -0.3893938205589776 1.0904548898811364 -2.0714328543545175
C 0.5973646744081885 0.8066385770709673 -1.398782010807667
O -0.1392382278648716 1.9916165879245578 1.2037821112557165
C 0.11785689247921997 0.8945554486521906 0.8927406034832118
O 1.7435010344556126 1.5440707188077358 -1.5848226923825965
H 1.6262413568400276 2.2619729544847536 -2.240289995560806
Rh 3.5755846268197415 -0.03857184239976386 -2.072194481967195
I 1.628430940550396 -2.039046203398993 -2.0253070462995035
O 4.001345667731426 2.5004622031416917 -2.830487467111246
C 4.588665619194853 1.63387153450593 -2.2086794161964147
O 5.614688768708722 -1.5703200456612025 -3.6301981492440056
C 4.8893622194326305 -0.9382864111627632 -3.015097413305241
