34
## STRUCTURE-ID: 64572462486db8626d5a8514 ; CHARGE = -3; SPIN = 1
I -3.306136818573566 1.6220627455321832 0.2467505783822765
O -2.2109718089567174 -3.5959840602137545 1.0416195521245522
C -5.882862151932094 -0.5483916932920362 2.551277314542974
H -5.687264922280077 -0.01955246637304202 3.46958556481797
H -6.691766376286359 -0.25568606987097964 1.9026252119418312
H -1.8164120091501854 -4.489937783337441 0.9936684727487931
Rh -2.3254923652567103 -0.8377546949026508 0.33516140467307903
I -0.8294399854449619 -0.4277943894981241 2.4975446767682805
I -4.38857979237361 -1.729413316385523 1.7949397650860897
O -3.0647301814075836 -1.7485565911941612 -2.386654884605832
C -2.9393684888155 -1.344558487789263 -1.3070619402622161
O -0.5721390592417079 -3.0092783480259393 -0.35203146061003143
C -1.5519293796233837 -2.6645756375668066 0.3105222815763156
O 1.2941257481934736 3.282770240930012 -2.4290059127810477
C 0.7125936463991388 2.879424743766792 1.2742299505820922
H 0.9888247380894682 3.9142321023804763 1.1150970818656663
H 0.35538395741439976 2.720989518885448 2.287288777975084
H -0.050068565714239836 2.5806029567319397 0.5586000173201261
H 1.9207854380128133 3.9101474229775923 -2.0292986085832307
Rh 1.7748083038638032 -0.9045855008588937 1.4082056224627097
I 2.979896141974432 -1.0176725465309788 3.7613777826800123
I 2.4434280232715158 1.624505469230085 0.9341895742650785
O -0.02778988421556007 -0.08592292689712824 -0.7029804625900496
C 1.0364004667116786 -0.660111575692432 -0.40834197656739196
O 2.228654636176865 -3.676206979401339 0.3740942283168075
C 2.0855498096741316 -2.6235663584783167 0.8659035462246713
O 1.8695036673320773 -0.9673444438983753 -1.4710152034273702
H 1.4838349733166079 -0.5708881553237388 -2.2866760464557614
Rh 3.3825579570932347 1.43630728581934 -1.4700886004003861
I 5.425846663724947 0.4871457789414749 -0.09338176818070155
O 1.0485963209800435 1.1725234256772137 -3.022843579769847
C 1.7546173584523537 1.9813830333143916 -2.4106122138251442
O 4.442178910603525 1.8667829432065355 -4.226732970212055
C 4.117365027987929 1.698904358137359 -3.125955776083395
