39
## STRUCTURE-ID: 6457520acf185821f15c0b03 ; CHARGE = -3; SPIN = 1
I -2.3055626420032658 -1.4423692849845746 2.81706713488464
C -2.1397855748878087 -2.834993510309855 -0.37340953636265256
H -2.1093728659591107 -3.3997365069273036 -1.3050227999630746
H -1.2414368878371875 -3.0331546496749637 0.20926883732957222
H -3.007300953213385 -3.1409732718535897 0.20962630478741298
O -2.3519558926514095 1.6147361569100875 -1.6328480350717136
C -6.170210897844692 -0.4326506252937437 2.0866841282146895
H -5.991396872535156 0.6189248361012456 2.279791283110974
H -5.613255106927951 -1.0436615792509363 2.7876026563977687
H -7.224854772864189 -0.671593058033951 2.0922278574295246
H -2.0722671169012066 2.2096094721278767 -2.357480946396206
Rh -1.8020475763943993 -0.007208571417123784 0.6201955967627544
I -5.404535538329562 -0.8629816978015066 0.09403923542791424
I -3.1251215808683863 2.1060045256240434 1.5136109412000598
O -2.6486898409705404 -1.0460467348943043 -1.8454692040533853
C -2.266536146777577 -1.3577872881351027 -0.7354357859116629
O -0.20650620740969117 1.6998578593470834 -1.1136591446695574
C -1.3136298204804011 1.2092787950431927 -0.8654995321058078
O 0.6430428297253252 1.0877613106455153 1.5079893708093766
C 4.78081145030055 3.66576465355168 -1.2235645211570116
H 5.228804901892597 4.528010303029763 -0.743119796911977
H 4.477141255755833 3.8711798684690883 -2.2457404805657672
H 5.429338955793577 2.79591729480216 -1.1856432526916127
H 1.3876285210007675 1.6169878234491901 1.8186070424862988
Rh 2.1365278271467276 0.69522336339646 -0.9845948699362432
I 2.5224884624036927 1.4419113836290067 -3.519567023946867
I 2.9625278946847233 3.166167678254594 -0.09355899443071913
O 0.521561504477593 -1.1699255933510724 -2.2887406848318967
C 1.5143859825349846 -1.0284119824796305 -1.5856862519436394
O 4.942024747930187 0.12571190152774728 -1.0173664198634291
C 3.9197268554322493 -0.07857507652806558 -0.4511674252042537
O 2.1970299444395565 -2.161068080511561 -1.1978045615226212
H 1.7792463780480232 -2.9708431159338433 -1.5500866435133742
Rh 2.966583915614314 -0.7661224418961999 1.0824966636526132
I 5.052335848966112 -2.1200540474402363 1.8067564327960108
O 0.17723391683036388 -0.8761152556823992 0.5201232230102028
C 1.0957521340761076 -0.039536369198708794 0.7090228460258581
O 1.2878272205973873 -0.9430350579653877 3.54774252035769
C 1.972445747206002 -1.026203426344365 2.6126138363697624
