39
## STRUCTURE-ID: 64573fdaf52187783141e580 ; CHARGE = -3; SPIN = 1
I -0.8907880470056218 -2.3719371861445575 1.5441782032618632
C -2.0247727663890105 1.8763493090499062 1.920782810425489
H -2.26793037128896 1.3142619956204284 2.823505902086954
H -1.3252654101462409 2.6781529943261413 2.167161089479032
H -2.9471847397112074 2.2766989088436485 1.502849852816627
O -3.419404075591985 1.7534523801969673 -1.3351885463441155
C -3.947054291704477 -3.855083639823705 -0.8665133716577647
H -4.904565596956101 -3.3760112899480412 -0.6856870467346584
H -3.416790290996797 -4.04384005267892 0.0629779834262703
H -4.0300084549208295 -4.7440986448874725 -1.4810560047277386
H -3.418435149041718 2.409432384253142 -2.0642301922715474
Rh -2.090416735073291 -0.5106986405345377 -0.1006432634054483
I -2.7205805089479216 -2.4286098992047305 -1.9865156254837726
I -4.4862189297991755 -0.4678593977634825 0.8400355089408517
O -0.22672157139831783 0.9854221995488774 0.5509053256262565
C -1.3815410426243717 0.9457703922953109 0.9421886698911676
O -1.4966863667159713 0.9935843179754016 -2.196778156843886
C -2.4070916259092217 0.9080951835692895 -1.3841764030024895
O 1.0847226553328033 2.8274027248242906 -1.5383036791561564
C 1.0212170550389452 -1.1669505218716272 -2.8331362023430016
H 1.7341291126785494 -0.9245963829439228 -3.610782415627685
H 0.1868403780128621 -0.47165968195522623 -2.8408607371274726
H 0.6843822673319807 -2.195235882678206 -2.92324618507941
H 1.3463797565829372 2.31733454691988 -2.3206958044422286
Rh 1.7666544082968214 -2.000749992924656 1.6947994107615876
I 2.2395083816377945 -4.510036138745472 1.0143568008598798
I 2.100894804247593 -0.9782326526592212 -0.8674325388566114
O 0.7314572442487532 0.24413078010532396 3.1823554252089803
C 1.5662099481430383 -0.15081215910343992 2.3556042641972503
O 3.899961012213559 -1.5349204468668272 3.7134621039443036
C 3.153186238971558 -1.8296159441663393 2.8601514910867656
O 2.5364453880253692 0.7971854367380559 2.0038303094565646
H 2.3189366135610165 1.6556455559492729 2.414319689344698
Rh 3.3771089828208387 1.3047956454373995 -0.3984162288059
I 5.572226509089743 -0.08769629016578949 0.17139120462253107
O 1.570529837847353 3.1526572409531695 0.5937509082837472
C 1.8591064942890805 2.5243068075862443 -0.42707614076888223
O 4.4942590779754505 3.860158627797554 -1.460256281814313
C 4.157299807874751 2.823807413075398 -1.0376121292275762
