34
## STRUCTURE-ID: 64570f3e74423d125b4609f4 ; CHARGE = -3; SPIN = 1
I -4.232060644244774 1.3345396709453887 3.4512842713673297
O -1.837458351689312 1.207506000726262 -1.4812126710341948
C -3.385463835628807 -1.2183491730819325 -0.8910271628733274
H -4.27567309268782 -1.5308586851078623 -1.4399300171797216
H -2.4828391715821514 -1.270075798742738 -1.5109546667270228
H -2.081705442747634 1.9085964901375991 -2.1000501890712964
Rh -3.9425496507814097 -0.6605030574320431 1.8308142024674654
I -6.16644984853455 0.2986148271754581 0.3557745583543441
I -3.5345278506989284 0.8501696293323595 -0.3135857633924635
O -3.995065454004966 -2.9349018532941513 3.7535234018143324
C -4.089890609729887 -2.0458183697720416 3.038357878930845
O -2.393087937771157 -2.807464666950269 0.5878836297634586
C -3.212519884285355 -1.8844554125622641 0.4641400226109996
O -0.2572590427518899 -1.2132424886905926 -0.22533305543314916
C 6.615983831021276 1.0268128539873287 -1.4302126826675094
H 7.3544197259463315 0.29538026465239653 -1.7690730714241902
H 6.801339047220074 1.3809296173463852 -0.41578818785015764
H 6.473331744256046 1.8403942003511784 -2.1408006406618205
H 1.1382070288770814 -0.00992907994754288 -0.28666680956748336
Rh 2.5196414075812523 0.6220390727297519 -0.11672229614859049
I 3.9898000871727803 1.791704010775271 1.6658634932923104
I 4.66439482102347 -0.1310777738308531 -1.3808968272257667
O 1.4881143224312312 -1.0625699238215705 1.4191892555234857
C 1.2362039271582836 0.19969212599314776 1.355212799616664
O 0.11774968595728301 2.217214809291427 0.554892327581439
C 0.5631910746240468 1.0309167562690276 0.2632849698947466
O 0.9622904356397943 0.8305404571270651 2.571182025602981
H 1.2779804397182286 0.3098835352040478 3.335613165109729
Rh 0.5008383128057139 0.23590015440846504 -1.6275534597598045
I 1.8928383396036714 2.2244439780321064 -2.490324632906842
O -1.452537502569983 0.18614993436927166 1.0859611652130152
C -0.45530183151671405 -0.09908172302704833 0.37520567897802354
O -0.11595149073278833 -1.9764456293164456 -3.4096028364491904
C 0.3140174109214652 -0.9466547532767702 -3.0784478757487888
