34
## STRUCTURE-ID: 64573aef99e7eb7fac2fdd74 ; CHARGE = -3; SPIN = 3
I -3.4905777110138136 1.8292134283771293 -0.5816236716652352
O -2.063818440555154 -2.388103111994863 -3.49445940365919
C -2.249093114025751 0.0034174703636510925 4.399214798976375
H -2.7143226000825216 -0.9640624183879763 4.625239392608957
H -1.8049728763324127 0.6918890954409774 5.129679738031803
H -1.6170346394716273 -3.2142385073281274 -3.7602158110222916
Rh -2.3538387107801833 -0.2296864219068133 -1.6769287479441726
I -3.551263953289753 -1.899118661424927 -0.09929255610069906
I -1.63601434065156 0.31709114780588626 2.3231575592893408
O -0.39621172218821166 -2.328932180791916 -2.012161009873405
C -1.4626414683862479 -1.8004825752869136 -2.398129166850929
O -1.0652119004574365 0.5086092502118316 -4.267028822629078
C -1.6677146205973803 0.4045906300219228 -3.2421254223267075
O -1.151238230687493 3.957730199014896 0.7240049915585175
C 0.8241473485536139 0.485338838808989 -1.7778287023282742
H 0.34036490965437816 1.3429843931419145 -2.262864180460632
H 0.8350929507672851 -0.36345948704850917 -2.480407601873535
H 1.8629991186751558 0.7884229042086414 -1.5823579067711382
H -1.5437169866292706 3.830098514144086 1.6205713085695064
Rh 1.2761195498207756 -1.9834873748912432 0.7862440523625839
I -0.4632199338215609 -3.129644196155969 2.3033021536817624
I -0.16329571886854763 -0.013717589047483898 -0.06947101106051581
O 2.735396271495186 -1.6537419802727942 -1.7293719989614116
C 2.5301858362214293 -1.2741896464247084 -0.5577555508059974
O 3.174049346866873 -4.114033023567119 -0.036045434485019394
C 2.395767812640659 -3.4076316029395257 0.4726896256355706
O 3.4249635536905187 -0.3165682310263008 -0.07066996218569965
H 4.185502811544876 -0.17060347864640193 -0.661199046092489
Rh 0.6589708879137514 1.8219564468239786 1.6053408510657836
I 1.969704770604126 -0.1964797872045882 2.865245424021453
O 0.33739148137960784 3.232599322426627 -0.7427836927237689
C -0.14144418756106222 3.16561374792006 0.4022849538346775
O 1.7288387283404534 3.9077185503928735 3.4786706400243865
C 1.2561357772309338 3.1609063352431903 2.7670742101596395
