34
## STRUCTURE-ID: 6457205b78950e7b5464e474 ; CHARGE = -3; SPIN = 3
I -5.483917935736867 0.3947298225273352 -2.787924799836632
O -1.7707360440391944 -1.7481769170059844 0.365403998495284
C -4.140736097191661 4.051054496139921 -0.2880029615974936
H -3.142538057068091 4.436636894764109 -0.42905842085388285
H -4.802837751957374 4.110913390161955 -1.1364477477788448
H -0.8817615075562214 -2.0187076588388977 0.7197136156177866
Rh -3.3805069736893145 0.028556442166524757 -1.202881695464849
I -1.7790486611044676 1.531660377484822 -2.7243510396625426
I -4.165234158502672 2.160718653818888 0.621474977892736
O -0.801449522564589 0.2403680808725458 0.2128714647293184
C -1.7755083163858394 -0.4745137604339307 -0.12511211149066234
O -4.746171537202509 -2.3614928135415223 -0.057461755421433613
C -4.2212343189275146 -1.4124931315111156 -0.4757012455850141
O 1.6234506907569055 -2.3571426465451095 2.8425512896537097
C 1.0322298127863514 1.2108250102257272 2.5601440943922293
H 1.438586927359642 1.0150591436348744 3.5451668688358855
H 0.2105458533941052 0.5308480752619498 2.351686869909636
H 0.6891402263557713 2.2365025173097415 2.4843464397223536
H 2.4613149699265313 -2.2651445551532317 3.329360546674766
Rh 0.7261998525524975 1.26450672810314 -1.1603027905392294
I 0.36246430454979206 3.7056094748779094 -0.198796150414074
I 2.5598903038725234 0.8804285372547823 1.1034111863298026
O 0.043684552903462716 -1.3077148676684176 -2.257824888686037
C 0.9613174168329339 -0.6257772550871651 -1.8075535056817178
O 2.718914366306265 1.9895922802174775 -3.2390624468040508
C 1.9722833660080992 1.749676594460007 -2.397520093020168
O 2.201837695157189 -1.1934617040524427 -1.7440998618098913
H 2.2040893317032606 -2.088863630204927 -2.1420904658540736
Rh 3.406367406086001 -1.5088032579617372 0.6693563782439079
I 5.292284934206106 0.0009566377920716154 -0.38095096413319024
O 0.7853851617073618 -2.450170546699862 0.8010699353644197
C 1.7905918557326863 -2.231705495726137 1.4838457316143965
O 4.481949860304654 -4.296718777550477 0.7526334485374488
C 4.1291519934241645 -3.1977561390924754 0.7121060986201607
