34
## STRUCTURE-ID: 645757e648bf395ba33eaddb ; CHARGE = -3; SPIN = 1
I 0.05531201650760242 -4.663209167216904 -1.5968695948463296
C -4.941868689053795 -0.7111687691942619 0.7403295861027686
H -4.65515938099099 -0.7553125715119811 -0.30348420613799576
H -4.524215856157133 0.16554172127090638 1.2164311930237681
H -4.604218291557579 -1.6048109604213883 1.2511162147671737
O -3.112886986047345 -2.56740911420395 -1.192740684952502
Rh -0.49051276813993777 -2.179855458674929 -0.8803143954098472
I -0.6113406018093857 -1.2373386506830135 -3.4011410235283877
I -7.028076303857292 -0.608964290395963 0.8629098940330325
O -2.0818795077031647 0.28330493071651547 -0.5941671191552632
C -1.2158154030305333 -0.4770747746743532 -0.32039966162170364
O -2.4469216103621987 -3.1215737838777304 0.8922742511870712
C -2.3625196582554007 -2.7256277056697016 -0.2518309220848852
O 4.620520455273049 2.0755127604152825 -1.937149125107636
C -0.47927031811544873 3.8827429627239423 -0.15364982945442118
H 0.05317783187054357 4.809170215478574 0.0422448304147248
H -1.5253785704607052 3.9502695501142924 0.1278710585182948
H -0.3665639692086194 3.5598345738510417 -1.183916479868803
H 4.479274347394398 2.9403848793675986 -1.5126030779446928
Rh 0.13644169761840333 -0.5249325132867374 1.1094500919650747
I -1.79171154139264 -0.4361965146703218 2.9919383356281517
I 0.4577908528609353 2.3412372629556435 1.1248792096771008
O 1.5178928121801232 0.44064949847794066 -1.1480253792442983
C 1.5324467115376512 -0.46325364196115343 -0.29670611206909975
O 0.6241980973485979 -3.3533637849421396 1.6139408541832696
C 0.2147800662161173 -2.5148523107040135 0.8912952380862523
O 2.4043278061545874 -1.5279291822609997 -0.4589395184550121
H 3.08781065619111 -1.2318199276766078 -1.1240638602711224
Rh 3.1231894728772387 0.9745567251450243 0.4129713879579541
I 2.296086972869379 -0.36263865955335267 2.7855963648585913
O 4.23612562566165 -0.08286687840126405 -1.8038377463482684
C 4.1290378984397265 1.0245276963761252 -1.2750311712935891
O 4.9552611733029766 2.6595680585264114 2.047209535423631
C 4.314664961838005 2.042897824561477 1.3244118619670924
