39
## STRUCTURE-ID: 6457503ec8e78a2fa6248add ; CHARGE = -3; SPIN = 1
I -3.0138025470842407 -0.690833047892495 3.2738079569804666
C -4.761315632132866 -1.4375790444417944 0.00995650918382237
H -4.296851891163195 -2.138160821018714 -0.6858927609523414
H -4.7053593376337846 -1.8713093410095696 1.0051682464274498
H -5.79680278805917 -1.269531313122589 -0.28003519018653505
O -0.986547513060116 1.8674728826423497 -0.9307869187596207
C -3.4847219158974667 3.903914467534596 -0.0815249629354946
H -4.002446793373269 3.2753209011796365 -0.7990979323556111
H -2.5998233178471377 4.358524383252023 -0.5113873543667404
H -4.146897573234326 4.636870743310342 0.36711869704205236
H -0.6355578755663365 2.1123946917090715 -1.812508284074567
Rh -2.2764226436387167 0.07513881857929172 0.8052153628756026
I -2.838525719080223 2.5660573204939685 1.5225344831149343
I -1.1762812706188615 -2.3813526020213684 0.2776176393286707
O -4.44604991805706 0.802299939714266 -0.7371222469740627
C -4.0190103548270955 -0.13253591377837876 -0.10300771835551129
O -1.7126242315480453 0.054567067304960803 -2.006866237861911
C -1.6111805887213817 0.6664573818968295 -0.9559974074229638
O 3.6966106670790513 0.31948589835213476 3.1260825221443156
C 4.333559151018532 2.8414139290488634 -1.2612918885759714
H 3.538774955707781 2.5256533819620963 -1.930340438667877
H 5.200734259426786 3.203012589420028 -1.8012107385420926
H 3.979499042477773 3.558843920155113 -0.5309467846694622
H 3.6366386067569496 1.211171635317117 2.7393422845524613
Rh 0.8938938924594755 -2.8733772992002433 -1.4577598696425447
I -0.672560193785345 -3.398559605806743 -3.5866992525109325
I 4.972194560612501 1.041096109320328 -0.15903619829089105
O 3.4462734186566486 -2.3444879590277976 -0.1420101418125214
C 2.223877018025262 -2.661273727741386 -0.0199749904839566
O 2.8268190807039026 -5.133595580480811 -1.2374518616950354
C 2.000987861606611 -4.325625909944772 -1.4955240610135458
O 1.8836080605408985 -3.3376822754417588 1.1528823069732714
H 2.552435739117691 -3.0900730275481987 1.834124176175913
Rh 2.5545713963878875 -0.3609023975932303 0.505769116738224
I 1.7394832102658004 -0.23948952711758975 -2.0984956250838827
O 3.3675226617072784 -1.8188806651738183 2.791497362143045
C 3.230986776351198 -0.6867763142489377 2.3251973997365023
O 0.02303862279419865 0.7203458098549259 1.6549714124876571
C 1.0812731236269726 0.45198450156058556 1.2336833893319712
