39
## STRUCTURE-ID: 64571ff7d2a58b22954dd52d ; CHARGE = -3; SPIN = 1
I -3.5555270607227 -1.1790225914004564 2.3563235635550175
C -2.6223129973727537 -2.024626273458641 4.141752767034403
H -1.6314511053031058 -1.5723230269349122 4.192678140963135
H -2.5882158402646316 -3.0969898467832646 3.9946395279035825
H -3.2651943456262953 -1.7398109610158277 4.968052849526934
O -5.034695923201018 1.780419500948724 -1.2772702117156056
C -2.1274952717111586 1.171598926895567 -1.7806905855278157
H -2.2656782922199006 1.5874843515306898 -0.7799702850362564
H -1.2920629695020955 1.689165695959581 -2.272745183474426
H -3.0201402811608293 1.3769227490287876 -2.372004815792752
H -5.744586664834383 2.149404473668284 -0.7444023328577976
Rh -2.7546889590360957 -1.3522064799087916 -0.27768095166875606
I -5.05779925197514 -3.177069996390904 -0.6702356465559418
I -4.9927787210833205 -0.27129992411956555 -1.0033566312851263
O -1.1925560681866196 -0.7833779184598525 -2.7250956887875852
C -1.8767111519394573 -0.3573244852148871 -1.7718343134416228
O -0.22165927251123568 -2.9319302365305266 -0.33517502021695705
C -1.2288259275643763 -2.34826873678718 -0.22371652384708302
O 1.970080020515167 3.9441165349548593 -0.337888556292546
C 1.4265075292190765 0.9517129528295901 -2.4780472325421887
H 1.298355837312731 2.028758839714521 -2.5866068645258005
H 0.8426264918913943 0.42319205094718615 -3.228845198069592
H 2.4805146803791542 0.6994392840355779 -2.588797583846744
H 1.350700029253571 4.225326595912557 0.35767413669461845
Rh 1.9351764849526478 -2.0611450912356437 -0.44464462266291255
I 2.0326407797329002 -2.716262098888778 -3.244260296637854
I 0.8480251137803457 0.3154084612017441 -0.6085617460880276
O 4.269142405492869 -0.6425548051495629 -1.075885636427438
C 3.5113666460695314 -0.9581768055656353 -0.158145317029676
O 3.758177428346205 -3.903267490943934 1.0314213133237253
C 2.9052089379518944 -3.303851386331368 0.5171518296995523
O 3.7570114966976003 -0.4463557609929603 1.0907843028046205
H 4.598973493726586 0.05176191406251133 1.1080784686131981
Rh 1.8585362296536032 1.5809075193420414 1.3500800994045727
I 0.09065825563053856 -0.16071386753471145 2.2112874642814817
O 3.560995761937283 2.459697738857945 -0.7426378405717241
C 2.6409815832797348 2.771254637408605 0.008791259737592573
O 2.882002269580679 3.2251336547394676 3.630929765451299
C 2.4546986288115553 2.5948719016085766 2.7688535959085576
