34
## STRUCTURE-ID: 6457066665804c0621071017 ; CHARGE = -3; SPIN = 1
I -2.0612645867850836 -1.718224971315571 -0.030345915879785752
C -3.5761562714797677 -3.0876133779726134 0.3928997674880463
H -3.5104495575266625 -3.6813338933594113 1.322593568947082
H -4.4425616633873615 -3.1684726892107316 -0.28957551811816606
O -2.162996213878419 -0.2848993721433618 2.9780087427948376
H -2.058610664066211 -0.3784899980589976 3.9621234986089067
Rh -1.9726306859085299 1.0598355829565191 0.4509774170884721
I -2.7928949366202627 1.6529129903100066 -1.960214819406991
I -4.450205971258532 0.7366224199918299 1.0638460215137633
O -1.1238525075371522 1.7165878789909559 2.8802017810670835
C -1.7681328469227318 0.7774159156206709 2.3599424138162934
O -1.5344548786746246 3.5213078204143273 -0.07083290097397574
C -1.1796765671657155 2.504534543899593 -0.709620254776702
O -0.15694969129792813 0.2781763329728282 -1.5551413272164265
C 1.549899345473265 -4.193378234422399 -0.6274875487052031
H 1.7575665093853232 -4.5008959262176305 -1.6529495726204055
H 0.5480743486041987 -4.4924847672444574 -0.29140448604544905
H 2.3365649228482424 -4.499677789486512 0.06434282781647561
H 1.9183328423156716 0.38851688741401436 -0.4794524050937136
Rh 2.7122771308305977 0.7321194510121571 0.6341656061625665
I 3.6448666352107395 -0.4999646031171839 2.636782439733206
I 1.4709581650082038 -1.7883960434049784 -0.5765516994298825
O 0.2895622277097571 0.18105440814828033 1.0254722886080798
C 0.814997166657267 1.2394645700058293 0.42995368748863283
O 2.2108620896054387 3.220602808929767 -0.7292735949568301
C 2.2193691832112648 1.980619673756797 -0.6504128299091626
O 0.6859161390058356 2.50167414816684 1.1894222788391784
H -0.042105426460182276 2.2551450891709997 1.8538337721969085
Rh 2.40530250656112 0.5179343073575037 -1.8215149709169405
I 4.711027251435149 -0.639381379628361 -2.1873969069299437
O -0.04475100981825082 2.5983670792788556 -1.4798017303524633
C 0.6206585853622489 1.2655517524751112 -1.1012517280201608
O 1.229825686960699 2.3869157438271644 -3.7314963380982267
C 1.7516327426024152 1.4178536408821338 -3.2998415647191144
