31
## STRUCTURE-ID: 645700b61c73da784f051b83 ; CHARGE = -3; SPIN = 1
I -5.577305632603887 -0.12886613616250825 -0.34880748832951547
O -3.5507940692349313 -3.0416073876673404 -0.8118952936491253
H -3.2527447785412855 -3.5153678047819605 -1.6211462902825726
Rh -3.5782159552329493 -1.0455698249103806 1.1301384334378128
I -2.0790372498640397 -0.8507501069704473 3.3707000391848663
I -5.022313217168271 -2.9559885656186826 2.1223152185433443
O -2.087696773911677 -1.419188322258436 -1.2835001019706884
C -2.911330571445974 -1.9319284211140442 -0.538931102912654
O -2.417298900900205 1.6574831481379446 0.6982489005760272
C -2.739705897060717 0.5480998508729774 0.7815217649708226
O 2.302285565435776 2.700843556592617 -2.724001112984916
C -0.6484063930762015 1.1337228576179985 -1.7419266938574487
H -0.2740646406820242 1.5638021964260334 -2.6635036510704517
H -0.6289169971158851 1.8873329591186327 -0.9570195008635795
H -1.6548032001482103 0.7567357475337834 -1.8757177677955588
H 2.8542604697937715 2.1680721009000936 -3.3222617774644885
Rh 0.6732596653878442 -1.3255020899577983 1.3448314104061487
I -0.4456734370208521 -3.6569476554911526 0.7819452771842627
I 0.6444979523690662 -0.4022975094452486 -1.1379306698120288
O 0.25407412123720857 1.429398173120308 1.8412665608639316
C 1.1246914349963395 0.5609153496850696 1.694791038277535
O 1.7387712568337355 -1.6541839074562004 4.105261591637806
C 1.2972290676119722 -1.630576221033789 3.036556933125983
O 2.4342053517568796 0.9557565494786917 1.7122480339290198
H 2.510039972948908 1.920101732617959 1.8527821997551666
Rh 3.053670620170276 0.4815218942899467 -0.9666672820029923
I 3.2419919841484264 -2.1195018408274957 -0.40448457693634227
O 1.7751428960215123 2.952068126714604 -0.5936140536080692
C 2.3578087335716638 2.2501053542276117 -1.4179606181109548
O 5.830049102302616 1.5902732507929958 -1.0225451776622643
C 4.776329519421161 1.1220429455680685 -1.0406942425791128
