37
## STRUCTURE-ID: 6457a66945ec091f30662c54 ; CHARGE = -3; SPIN = 1
H -2.163681938535398 2.9302780085625213 0.703731259812973
I -3.1506993641331125 2.389834552729034 -0.5968518820199988
O -4.377650956297289 2.188324852444142 -2.2997634424843802
C -2.9102260920515137 4.424553866865773 -1.299457385604796
H -1.9255918899014517 4.762436254746354 -0.9870757254432536
H -3.705596454370851 5.012795827469782 -0.852729692182377
H -2.9908637113558987 4.389174203565103 -2.3820765332796805
H -5.173440828909957 2.726989469752722 -2.2821835028877957
O -2.3858274702674476 -1.3375337693492702 0.8031134076942803
Rh -1.7618869609977388 0.29203704698358074 -1.4811851576635116
I -1.5781067254456527 1.5307122274724059 -3.9164925272110356
I -4.095103988180945 -0.9945688813035637 -1.9468052799448208
O -1.3497295924467994 0.6050783034299138 1.2012592711452135
C -1.8527337306452925 -0.27876084224735825 0.48497091321068325
O -0.6408816353346494 -2.2307634945403816 -2.567275570632316
C -0.993597596110398 -1.2309516658731392 -2.0723972516852913
O 2.9472160723424436 -2.7890363289980935 3.6157289002634054
C 0.19520439602794165 -0.7406747050132163 3.179193354099793
H 0.7676811237941374 -1.2162554589502204 3.9670903151893815
H -0.3380298101017761 -1.4959854834002557 2.6046219088901528
H -0.5049812441501621 -0.01100346740226258 3.5653057509229553
H 3.657935322084318 -2.196455620644694 3.921483942961732
Rh 0.9490503058432237 0.555848463443768 -0.7506109122005624
I 0.6894873928411608 3.141526971956413 -0.5849646620824672
I 1.513626561458275 0.1672675494652813 1.8269935519623046
O 0.2187318811425602 -2.111111133896091 0.1390284274922037
C 0.9745640239763573 -1.4118696011478373 -0.5444840049132058
O 1.466890053707187 -0.1721627604523161 -3.5607160045438717
C 1.1581266079435686 0.23489578501162767 -2.523587520311429
O 2.0315392172824422 -2.0437370770521617 -1.159179845632371
H 2.033257253989426 -2.9988836653316064 -0.9543364491285501
Rh 3.52798772617224 -1.3067704296485776 1.1765173593472156
I 3.95336207336904 0.9436735243481335 -0.17891497053238434
O 2.0375047735857437 -3.604023779388435 1.7703992119188792
C 2.7918099930785933 -2.7630829507178367 2.2467753865066356
O 5.935549242503497 -3.0380831605145997 0.7838012988275559
C 5.049105968094317 -2.32371263237572 0.9510740601361275
