31
## STRUCTURE-ID: 6457048282ab79157867f9b4 ; CHARGE = -3; SPIN = 1
I -1.3246806763925794 -0.589917081079191 -0.6245336515808275
O -5.30720893756455 0.06878378373492623 -0.47995395783660694
H -6.035254292944709 -0.5712947162470351 -0.6477289511605091
Rh -3.026981224594543 1.5151699560677727 -1.2124277180340288
I -4.845073817739305 3.383615553791909 -1.587888401908836
I -2.247053184290048 1.62586252656541 -3.7987467589748185
O -4.598685755692669 -0.4480235419042843 -2.5291654177476417
C -4.49080684612118 0.1945780126102182 -1.5167018754090342
O -3.539214009311327 1.66174462367364 1.7128862418553863
C -3.400100812437294 1.5875783760193858 0.5804672831294261
O 1.19949491569069 -2.743019603831581 2.4404951391179757
C -0.008546534827286713 0.6685773814720102 2.628779082659559
H 0.19323181873228626 0.8057740275245171 3.683902415579716
H -0.3850616439781397 -0.3303447928993021 2.4264386562717095
H -0.7199445197225522 1.4111935927120305 2.2817060361811294
H 1.757842473102073 -2.6015944618664797 3.224773316482309
Rh 0.9302550532791461 1.1525308122977824 -1.0240277453322273
I -0.709764049766376 3.2623441870559695 -0.37915495328157595
I 1.8450868405003973 0.9120832477525382 1.5281279536660237
O 1.5263711449467385 -1.1271509866435556 -2.6170761672818097
C 1.9446988074766967 -0.36742060882575545 -1.745247241560955
O 1.984124117471208 1.9962109914546025 -3.6956436890076003
C 1.5308102507224384 1.8006584488899116 -2.640138617867591
O 3.2381500471712434 -0.5488930928156233 -1.3255927413911224
H 3.6674649081797157 -1.26091522453811 -1.8421773113379627
Rh 3.389318882641509 -1.145569625706339 1.3114028543383376
I 5.151237128895637 0.8154729937782389 1.2499388020277369
O 1.1759960873400765 -2.4816934766460825 0.24489482873359233
C 1.7997437907206932 -2.2768252668244586 1.2842941852319114
O 4.920715805025332 -3.6982200641272995 1.5652596922041133
C 4.383834233487212 -2.671295971445982 1.5028387122344173
