34
## STRUCTURE-ID: 6457050f3d191c76306cd4b3 ; CHARGE = -3; SPIN = 1
I -2.5817722308696087 -0.4576714322713751 -1.020303833091635
C -2.3057334955371185 -2.3272031824937276 -0.161001003210278
H -1.950527429973731 -2.2863912739752577 0.8613492631379395
H -3.086500195330632 -3.044089465773697 -0.3720968107871396
O -2.356889238017337 0.969623707835759 1.9019530633169253
H -2.0865016865307537 1.1415366013236075 2.8265157590354395
Rh -4.101471926399972 1.6412845003173122 -0.2781228457688839
I -5.46630210443168 1.6717751429164551 -2.571192030732676
I -5.803333267277884 0.10730383719097802 0.9562262379629394
O -3.5851790551567397 2.814212500283611 2.2074384024988243
C -3.257237279072876 1.8883868531625319 1.481583856896438
O -2.311808606961613 3.6855175062934133 -1.5185238208131702
C -2.9691870080040688 2.896093574678074 -0.9888455647682013
O 2.1468766740593774 -3.132421268034453 -0.7968452915527882
C 1.7649858158692113 -1.7102376140241853 2.2910551758305004
H 1.2103778156684695 -2.6288534347638 2.447949312886303
H 1.9833528862326126 -1.2108011422451406 3.22850225587512
H 2.6726508127698194 -1.8652353550413447 1.7181254054663404
H 1.3886672987323734 -3.546512962563327 -0.3442669694534352
Rh 1.9090937932801146 2.0060593006427534 0.19973978139516022
I 0.07004862078286307 3.7346155359326607 1.1948407139452344
I 0.5029394679949575 -0.3656481739452079 1.1247500916822228
O 3.6292732425809353 -0.2549691030289812 0.1938228851399731
C 3.366781115634677 0.8193008043397441 -0.35117948376326363
O 4.2970547145519085 3.038441266995913 1.6585025611136097
C 3.298837330768072 2.6820605144136294 1.163603468799397
O 4.187942724265537 1.2525526898529429 -1.3455795607344607
H 4.8584833576559525 0.5728433036739785 -1.5574305497072194
Rh -0.0014825810334855442 -1.2555250485759692 -1.35889511600457
I 0.6835751204122582 1.5584873060222184 -2.242017947469356
O 2.6917958348886044 -1.4961674053890999 -2.1675931706542064
C 1.8249480334318142 -2.0076170640504993 -1.4866730253701625
O -0.357005291184802 -2.6751205944298646 -3.972471716511087
C -0.26675326379729836 -2.215630425269698 -2.922919494590017
