31
## STRUCTURE-ID: 64571969271262479873b9dd ; CHARGE = -3; SPIN = 1
I -5.558058644933059 -2.5220542629227194 1.0354840364635705
O -1.2800198675143908 0.8843981358451154 -0.28315399529857876
H -1.0132459204074478 1.6690641538884607 0.19554578213611287
Rh -3.198612026227313 -1.5069216899266418 1.291646744369862
I -6.095160219530697 0.6201668096042269 -1.192600631791022
I -3.428961815747364 0.5221146866560766 -0.371999474716713
O -2.3132810450134156 -2.3673118428458912 3.9936425115084258
C -2.7964365958823785 -2.1514288444119827 2.9521039097847215
O -1.1862281584791576 0.1318037021371383 2.569954459532915
C -1.549076778097119 -0.6192809428770556 1.712391713996957
O 2.8154867952575566 2.8907799626814463 -1.9909966039085607
C -0.5546603382576428 1.1622249596966292 -3.4164507784656934
H -0.10532202307850524 1.307897450704071 -4.393245664074562
H -0.5324908684371132 2.074193672710066 -2.8266773723612117
H -1.5722145991263639 0.7916638382860468 -3.5043402292915533
H 3.517346538664475 2.4121331134768904 -2.468989105443229
Rh 0.01586029242758853 -1.2868853627632983 0.2545451625134455
I -1.7552549605871768 -2.959588136815882 -0.9111458406030184
I 0.6332638231875485 -0.32615932259840974 -2.3628598505788134
O 1.1292447244138606 0.9971413562139795 1.7306075444941251
C 1.3753295710826758 -0.11594131528082288 1.2420995683747238
O 0.3024790690891833 -2.9478897512087765 2.6926422988889107
C 0.2426274862478849 -2.3708325846669682 1.6830167993450056
O 2.3617592401051146 -0.8585402401527311 1.9445177206095994
H 2.7395848308514434 -0.3124761245013371 2.655719148806281
Rh 2.6200236346580104 0.2501233976455101 -0.7995883856165142
I 2.9971901579931606 -2.402857244985101 -1.0689558345206809
O 1.2249142092545273 2.7157132327211335 -0.4858257305469822
C 2.1551790182711 2.150975815401161 -1.0420333728407007
O 4.766912965671521 1.3084709018923975 0.9756590370017777
C 4.041821504143435 0.8593024763971279 0.1892864322314939
