34
## STRUCTURE-ID: 64574b5771d24b07d967f9b4 ; CHARGE = -3; SPIN = 1
I -1.6827886089579571 1.2493855239284832 0.6110005477949257
O -3.8361926151043595 -2.558011274462052 -0.9344035732410857
C -1.7548431942141272 -3.859832393741951 1.4912628302116222
H -1.1109960241388355 -3.98610822339186 2.3576217090408758
H -2.0394937432926374 -4.810378982510805 1.044531152442919
H -3.715604737069946 -2.8711266640607067 -1.85290183115993
Rh -3.9512250200659076 -0.3792166393871865 0.9422880458756009
I -3.5993964695080636 -2.90190325128666 2.188396354709603
I -6.497956448322945 -0.14868610254797093 0.04805203253414034
O -4.309847279863149 1.3186484953076163 3.383475156183179
C -4.255286912826435 0.5727279323984517 2.4869827634557904
O -3.0743430314567854 -0.6816687443162797 -1.834936252565386
C -3.546275842399212 -1.2105146889561267 -0.8149502650403763
O 2.819544944815676 3.4618688278102416 -2.6985165307488144
C 0.0653022023005233 0.7776320869733926 -2.5044759823704643
H 0.2781943107667374 0.8328417876576152 -3.5661018379359453
H -0.01817495843113052 1.7770653308082136 -2.0848337680019333
H -0.8689391781305144 0.2494945791709737 -2.3404028604805256
H 3.541949424734594 3.1380983994857057 -3.2629744623084127
Rh 0.6275980607161139 -0.561720294096405 0.968560562722759
I -0.6533826235754039 -2.72511028842565 0.0013730587756425037
I 1.6361844558013372 -0.1955837783810042 -1.4839619068253858
O 1.2441249318879248 1.7987960871768678 2.4508688642055505
C 1.698314647455035 0.9239415904495227 1.722551221899123
O 1.0300305724363914 -1.2180230620349717 3.862063197638486
C 0.8745408253024778 -1.112772523487741 2.7157640784453645
O 3.032934485669583 0.9365114694486596 1.4624128039977227
H 3.483663708044175 1.6440213039434723 1.9689573495798285
Rh 3.778529286907032 1.173231636556414 -1.101606751457998
I 4.392559207645163 -1.3806465937317374 -0.6961528277633485
O 1.9037369856278514 3.189333829803634 -0.7066379372239308
C 2.768547034695237 2.8017785814320884 -1.489141123852977
O 6.362296535672536 2.678518656744857 -1.17753982833038
C 5.376695066879231 2.0774073857228763 -1.1566239902062845
