34
## STRUCTURE-ID: 64570a625122375d123dae59 ; CHARGE = -3; SPIN = 1
I -3.3131630211626533 3.3426616092373314 -1.806429453600573
O -1.1253870101277077 -1.2771132345328224 -2.059446461298154
C -3.764312365469546 -0.7964963346448222 -4.514147915169157
H -3.5494898799051655 -1.345076636548037 -5.415906670582989
H -4.756290036339993 -0.8016099779656458 -4.087973007675914
H -0.5095053870949988 -1.8325419146454232 -2.5412318656878994
Rh -2.8734625816322854 0.9903779768155079 -0.7883888140657348
I -5.368112923609305 0.15924463279271117 -1.2302398573495223
I -2.2255357532329785 -0.03565823119324527 -3.480978151004873
O -1.9876583783456916 1.3598687831635574 1.984325975138892
C -1.8431106979629304 1.4496417105726975 0.8067777288759057
O -2.7583114804982523 -1.666702269056731 0.5236567585192816
C -2.7040380393035774 -0.6512894370072603 -0.036965873523458245
O 3.0756413187913716 -2.210662798854892 2.877903306262271
C 0.4643013363890788 0.46035056723107165 3.585362787618209
H 1.089561398445021 0.1037300460764859 4.394425444708188
H -0.04394223359205331 -0.3757095215338326 3.108943847607419
H -0.2719318045454904 1.1704573665230047 3.9464071799185976
H 3.7609088430295046 -1.6993465999939215 3.3432825815458127
Rh 0.028000211555897662 1.8910789161623618 -0.026792756204128586
I -0.11326529807135122 4.466338780195239 0.5897118565370738
I 1.6570066957185485 1.3844582280494595 2.0916010914045087
O -0.16447482876948186 -0.7953656076936135 0.7570980411380435
C 0.3750915928394329 -0.03760865489551092 -0.06544698760694764
O 0.2659508045492727 1.1879703523597647 -2.934987633147059
C 0.2775200028507216 1.7542565090486057 -1.9169518504736696
O 1.4086996076982055 -0.5277642601835907 -0.8060481402074235
H 1.6389706363770866 -1.424128973591816 -0.43245262531239825
Rh 3.512197466577718 -0.014391862115220411 0.9799470055253016
I 3.977814519738253 2.4911081210311172 0.2677451251435398
O 2.1321361102323686 -2.4685436875603552 0.9008981266258382
C 2.8530369219095157 -1.7480956008659778 1.6026124893823284
O 5.861546731743621 -1.5761309689675627 -0.0025688881140154035
C 4.993607521217758 -0.9273070274085933 0.3862576050726834
