34
## STRUCTURE-ID: 645734325794127d1532bad4 ; CHARGE = -3; SPIN = 1
I -1.9976588809843976 -0.5029942803736425 -2.770393434756882
C -3.628736233102985 0.0012980629642187482 -3.9114205179301944
H -4.376020327535007 -0.7540825559332378 -4.09625621373124
H -3.779423526396494 1.0452851178980087 -4.139803691873663
O -3.0354265700249266 -2.7929570345070363 -0.5381302424351738
H -2.97973994279809 -3.772518216235676 -0.4872321841088667
Rh -2.1635723895274697 -0.1313541244865122 -0.13862006784423797
I -1.8553898191013873 2.5708236548326875 -0.35004660293983386
I -1.7373125114570989 0.440923539511947 2.8445413732459124
O -1.1255849694814097 -2.779900260268085 0.5881103593195179
C -2.030865275823938 -2.148220384620392 0.036747115276748364
O -5.158191824282363 -0.15003985803579237 0.09847307095609274
C -4.036707107789567 -0.17647741864194127 -0.0530930762900084
O 1.8838898296465953 3.5119011554556208 -0.06413863950466711
C 1.0510462291194869 0.6234309042005863 -1.7483731544081291
H 0.3384046927152989 1.3271107420477877 -2.1774827882691263
H 1.1902709098603639 -0.24358628109420752 -2.390716508781334
H 2.0156845185225714 1.0993805779426604 -1.5964817887731348
H 1.0034985924533941 3.8886994083891637 -0.266220097255041
Rh 1.3953953204970546 -2.4863944365857558 0.8937141117932568
I 1.539241327430696 -3.23033633160407 -1.6508080093536215
I 0.44455058033852884 -0.04125195367697485 0.18443676853560115
O 3.0890905052605655 -0.288747879437446 -0.055568450772097225
C 2.929371699323927 -0.9732918542768136 1.0140471385398073
O 4.322971475055513 -3.0017845360468813 1.186732858884483
C 3.2607105823560794 -2.378673161771353 1.1022542798498125
O 2.8094856188623183 -0.26781510223738225 2.2121503675268093
H 2.847355763479231 0.7048195702928937 1.9507252281708105
Rh 0.20219076267166952 1.9579135840785407 1.7638746287264164
I 1.0953685793373407 -3.095306803888418 3.471867564631111
O 2.991878693817253 2.2111441805914307 1.3259561484757578
C 1.8642273510809575 2.6060877428358595 0.9669844960578654
O 1.0551979943829506 3.988152764910956 3.769650599020042
C 0.5747983520935811 3.2387614677693337 3.0245193600171794
