37
## STRUCTURE-ID: 6457a40700498d2be85c71b0 ; CHARGE = -3; SPIN = 1
H -6.592728127960387 0.10439842006284451 -0.10838226137981119
I -5.024957829168217 -0.7406704230185971 -0.18295436312393631
O -3.5572720444860786 -2.3143837107052647 -0.5235441447707858
C -6.1297188569247005 -1.4116138049584896 -1.973319619973742
H -5.459540626963771 -2.0719745912400716 -2.5111106266557575
H -6.326978941933558 -0.5217983208705083 -2.5670236537676847
H -7.030077121262755 -1.904370636560802 -1.6081453827196825
H -3.8833776593139286 -3.2117504516241744 -0.3604321726986887
O 0.37930326146914867 -1.6297253803590048 1.150673450123478
Rh -2.5501423249781157 0.6621553440871291 -0.640816497524706
I -2.723050872284473 -0.4720585389175196 -2.942845130362128
I -1.372127015298627 -1.5904829590179081 0.24698915826329862
O -2.0001523587138927 2.3787525268509313 1.7541211316122098
C -2.1938077024496563 1.627542684404836 0.9007281993701652
O -3.283329928346906 3.2743270383340013 -1.8623459116073648
C -3.0580086222232317 2.251916605141499 -1.4022028462687055
O 0.011700637741771798 0.5518155957619992 1.9579900872690346
C 3.5898462105109297 4.0100817641453546 -0.1350977408706575
H 4.38580445109343 3.9102321611071127 0.5983322681643263
H 2.927623547400643 4.830429397720675 0.11809619695298978
H 4.009524747535172 4.130121735177356 -1.129904297339467
H -0.09181750323414155 0.049669451958972134 2.7716609059231443
Rh 4.034496804216469 0.15528922999751302 -0.5096282269952513
I 5.413226472299996 1.4497948242359833 -2.2637846698647146
I 2.3524091665017264 2.1115300062263986 -0.09676379592884769
O 2.199395243536232 -2.001324426175077 -0.7357727094701764
C 2.8989975411514415 -1.5132386175410848 0.21009034811770322
O 5.100740509951175 -2.5745291337523 -0.965659047822254
C 4.731805790747613 -1.4806866471000752 -0.720868125354373
O 3.366189006605795 -2.6280984158563347 1.0905773215982861
H 3.102772719775564 -3.4580856365439794 0.6663183571100582
Rh 2.740119743518771 -0.09382336650067537 1.6942743713395048
I 5.0865908304425185 0.9837453464701654 2.375910900792625
O 0.6485922984890483 0.09354891139496285 -0.2450982852621434
C 0.907697236776429 -0.43437342170666843 0.9104039334318871
O 1.4021963597618758 -1.6609962984160973 3.851711990575443
C 1.9880549560167762 -0.8613662622130026 3.1878208891167565
