34
## STRUCTURE-ID: 645765f0becf24616f32bad4 ; CHARGE = -3; SPIN = 3
I -3.5712719951255334 -1.346507848173361 -2.967335159571145
C -3.7222459171805697 0.5677559630242065 -4.07356599338956
H -4.154417013214873 1.2952452788628064 -3.3920804206793043
H -4.358424153515182 0.37420330064249924 -4.93119854571845
H -2.7110915381451712 0.849166304517808 -4.356791852662643
O -1.1527208282691994 -3.187629622437902 1.617449822593801
Rh -1.936466929676742 -0.8584091276465876 -0.8703928728226972
I -3.1921808890192978 1.339848832781102 -0.18050932178718038
I 0.012191216875819966 0.29147429690877574 -2.331198104866058
O -0.9816764899768616 -3.1353903309885145 -0.6313553460688709
C -1.576291432301883 -2.8769729940922346 0.46461213202884877
O -3.8924112543693585 -2.2237710327618347 0.9287244495762279
C -2.8326487356551495 -2.0444196518407423 0.347152736753435
O 0.7426922470005778 2.682699602845656 3.253112575170511
C 1.378637331135664 3.6328915047833727 -0.6866604896822702
H 1.8342366799229366 4.557694197749278 -0.33875489339140197
H 0.3581831200180307 3.5167297101894164 -0.3296271286761931
H 1.4167061269978016 3.5479569027727824 -1.772370155290481
H 1.5942677722318064 3.1269327646489127 3.0759557034318346
Rh 2.3029361678692557 -0.5133432222714428 -0.7924243053281186
I 3.9887890907706263 -0.16650825268657218 -2.80895264513192
I 2.608528953587469 1.992577138105223 0.1188298425074733
O -0.1418291141072246 -0.44038373717942125 0.7950680448239217
C 1.0096758626217914 -0.9027807886321122 0.7658253762560467
O 1.8710095197883758 -3.424983065956381 -1.2503674485962304
C 2.0548763654335707 -2.291428296163802 -1.0976150573546732
O 1.264454448199832 -2.123553976405771 1.4255659189825909
H 0.40794984560469433 -2.55093980802364 1.6705257221964913
Rh 2.301613304157991 0.4451459269353241 2.212974341548207
I 4.5480743657428935 -0.7089677998422244 1.2975795469883362
O -0.32360943647791635 0.7582214092289618 3.275927537089066
C 0.7133662639197831 1.339031355645925 2.983574012750576
O 1.9397220044204466 -1.075655705468715 4.756957350466395
C 2.1993750407356494 -0.44592922907083093 3.821364627853567
