34
## STRUCTURE-ID: 64571ecd6912061a6f1688ed ; CHARGE = -3; SPIN = 1
I -5.244600026569131 -0.820224959094382 0.32101781081999603
O -2.1282733189791934 -4.045966444650853 -1.9434592220478009
C -2.6717273820376217 2.236244486851417 0.8977065671726416
H -3.2204286376343565 2.375041881496184 1.8177431993080289
H -2.682894121469219 2.996808535217941 0.130521244822838
H -1.5309303290821301 -4.785643138464444 -2.169321523870784
Rh -2.9512376317076554 -1.8704874159612035 -0.44432515995504185
I -3.0662938022267685 -0.8267730479503611 -2.8426442026872802
I -1.7520551968968838 0.44615169423419176 0.4876598470960089
O -0.4088144712192437 -3.4917691972556812 -0.6518673418694447
C -1.5509838259517206 -3.173120275945275 -1.0305761291300517
O -2.499084232922697 -3.648363365538275 1.8914911199458957
C -2.746941457357982 -2.8736006143048316 1.046785323713439
O 1.5540273064986203 1.183414763108194 -2.803387213155098
C 0.2149441199007307 4.301095786113951 1.4497234499801503
H 0.6885544091554914 4.477412985158808 2.4126794401908276
H -0.8106561418850375 3.9513365253693755 1.565064682009223
H 0.3035832884617774 5.144979401199434 0.770572964904791
H 1.5210961337680193 2.051911847194787 -2.3544769335034235
Rh 0.8446454976250336 0.3188823763473426 1.5508156636511914
I -0.04432823989621135 1.4331486126684205 3.7214698294583455
I 1.3727892463735685 2.604742335448243 0.4323982630940626
O 0.2498101164365982 -0.8507788537646601 -0.9768042348058537
C 1.1951480708095057 -0.795476421274186 -0.16379920251808988
O 0.0856987798733798 -2.5051869689612136 2.0904037391059034
C 0.4169007271605466 -1.3924289900185487 1.9699894514178065
O 1.9821508032089015 -1.973431203061655 -0.06286188076127744
H 1.6138448288739702 -2.6388462274611784 -0.6617328057707329
Rh 2.988670042640987 0.3948500934658708 -0.3211439842040885
I 3.919538580333392 0.15375086328356616 2.1448742248536505
O 2.4419380596426805 -0.837644369674994 -2.740743283317196
C 2.2649203843288017 0.22070893196795477 -2.134405694918108
O 5.218099472683959 1.2287803478073243 -2.109599773531995
C 4.432888948059753 1.0104800264487959 -1.2897682354985074
