39
## STRUCTURE-ID: 64574f7b8f26a50d4d399e43 ; CHARGE = -3; SPIN = 1
I -2.478980973320364 2.1784043332821934 -0.27045294796267194
C -2.1743158469977266 0.2769955272535857 -3.461632145878365
H -3.0059703756374896 0.9171338299810515 -3.1734267621238543
H -1.5929218328364998 0.7389708510800814 -4.259785553005767
H -2.570149970525152 -0.6793555302235728 -3.8074062913265925
O -1.4716247334466344 -3.1932663464069195 0.18372143746799646
C -4.248468739023877 0.10988263775843664 2.6831448002841443
H -4.965547572007115 -0.4275832170098223 2.0699174785096206
H -4.211170729131488 1.1577021436294577 2.399471601274229
H -4.446696695366576 -0.012709390980240504 3.7409940841352523
H -1.4711166630514707 -4.110776643455577 -0.14948927153100794
Rh -1.8158144479373193 -0.4042370936162322 -0.46606485274429477
I -2.248679480567683 -0.7553027651055927 2.301513083041032
I -4.241451513638643 -1.1679112982318174 -1.0129489269147678
O -0.04332836185100102 -0.027353245789674213 -2.438055055497974
C -1.2560038085335279 -0.01636394535128979 -2.2963390767214142
O -1.3963583487465345 -2.756352418488568 -2.006445473751003
C -1.4747969946708623 -2.298552547723732 -0.8713731022176178
O 0.7443840044491651 0.5196433499189789 2.635621564907305
C 1.8776528266717274 4.127962671013667 -0.3320959564797798
H 1.391399562267904 5.01474309495226 0.056337275337346726
H 1.1521803220698705 3.3579854276996026 -0.5753392543176763
H 2.5088385791212247 4.335743520294916 -1.1893657964308841
H 1.4063648778646933 0.44156058698280065 3.337885830310319
Rh 2.1728767974657526 -0.2393002282303751 -1.3085993339674955
I 2.984686742564625 1.4337079677732396 -3.0437994181689687
I 3.147392834972077 3.3233348415827564 1.2344576687987028
O 1.1912741927897936 -2.631001627244079 -1.0823994645504715
C 1.3586602835674668 -1.6745587093939989 -0.2945830907776571
O 3.5342040970661137 -2.3244356950845275 0.260694883454395
C 3.0020604197600758 -1.2418891701346486 0.07875862187038674
O 0.8366151500988571 -1.8507454627879882 0.982396596068897
H 0.35871250518021036 -2.7014632195101678 1.001576332432647
Rh 3.1869232688632185 0.4832276333538183 1.0047909912479853
I 5.7685165280550565 0.42126639364593776 0.2951122861354217
O 0.38342356177516135 0.879368407406259 0.5161650755632302
C 1.2511627396686673 0.5935472428165951 1.3414813292741552
O 3.3723886880958482 -1.425773976701668 3.207187312941103
C 3.483679104922614 -0.3722479289544881 2.708373521313629
