34
## STRUCTURE-ID: 6457066565804c0621071014 ; CHARGE = -3; SPIN = 1
I -1.6902914670575393 -1.3982371420063462 0.5121568832228323
C -2.848292174423058 -2.973017861151383 -0.14231308737208925
H -3.582047291952235 -3.3731699379366415 0.5349110149798572
H -2.990581585545639 -3.107807702402974 -1.200754085009526
O -1.7845448526374597 0.28830423039063624 3.120500131956059
H -1.3600093202979884 0.5264693649000377 3.9672118455948135
Rh -2.732120539484008 1.025432004946085 0.5200273463279402
I -3.9275127903923974 0.8312003032342514 -1.856537335530213
I -4.8801653273868615 0.3154023076589811 1.8863994762087022
O -1.2916289747714234 2.3964795360973308 2.5880418862138197
C -1.804324170192836 1.313475754939605 2.223145229831826
O -1.7027513324043118 3.377043522007496 -0.28079052287680994
C -1.4458814086290974 2.182029644690523 -0.34587685589256756
O -0.5481508041723782 0.04069213938001212 -1.951857624943172
C 1.0308064549478126 -3.900870852039124 -0.8781763866698635
H 1.1311983268206829 -4.122608112337655 -1.9346328883641362
H -0.003309481715918429 -3.771407646236521 -0.564884439520949
H 1.557493578057811 -4.621234738907581 -0.26062468276138284
H -0.204076779215976 -0.7888157918990661 -2.35164816544709
Rh 3.1293166649868294 0.6088053048873351 0.6777186837896569
I 4.3074735809862625 -0.3314099337874807 2.7708007881251238
I 2.087499630187921 -1.911859858139184 -0.5223503159014854
O 0.4510269376337972 0.288963981351826 1.4050093526699352
C 1.4740696904428767 0.9608057928704165 1.5794766799024864
O 2.2340718204941825 3.25823331844425 -0.20073240025798803
C 2.452662309003228 2.093460267886895 -0.27156670142286865
O 1.4156118849798913 2.067397938569643 2.388891636767101
H 0.47906133583735805 2.274008560223372 2.6232230330471573
Rh 2.2924365171295595 0.6882156341790808 -1.784818486553977
I 4.909608014425943 0.3153821670928334 -1.4468133918828556
O -0.10815076371829146 2.0150885130981657 -1.0621792521376625
C 0.37483570742953837 0.9297937209123406 -1.569538124978516
O 1.603755696043137 1.4935295636883448 -4.577005195368541
C 1.9729109145905899 1.0102260053944836 -3.594414045745654
