31
## STRUCTURE-ID: 6457a0dbc3875a4fa22a1564 ; CHARGE = -3; SPIN = 1
H -6.797707970830111 -0.6884721752518744 -2.126095406157578
I -5.182738677532179 -0.39417810876597614 -2.066783955867007
O -0.8271200747637324 -1.6835552339813344 1.7603437556425494
Rh -4.119682630198874 -0.6957535573059699 0.48235422184776633
I -4.970265179112851 -3.2143979776347287 0.16722201934461076
I -2.217728638082 -2.441087460400038 -0.25301558772249155
O -1.9156181650409483 0.8923724031023613 1.8626557414316136
C -2.8540687282621584 0.3598365904384496 1.4207449670496497
O -6.55497129545908 0.559554280214271 1.6502324919392983
C -5.60826929687148 0.12324193780127726 1.2163177727014767
O -0.8288321705276176 0.053668299572154604 -0.7013776961064284
C 4.348279416838198 3.8990941826617704 -0.8489474571117442
H 4.408517389940517 4.621720980647486 -1.6544211395096617
H 5.321036955029314 3.489558810109614 -0.6018943379654116
H 3.8577253134297256 4.307257832439753 0.029854828257948763
H -0.2596548996130861 0.4505234289675128 -1.4325418066626439
Rh 2.4744580094217294 0.2786162021619614 0.30795576143549674
I 4.924266190010531 -0.7296004334776793 0.25168018453315055
I 3.083627154013421 2.2134642865407264 -1.5741973097846103
O 1.1933007671664104 0.010515221766140111 -2.0833180419284743
C 1.3714471871701557 -0.7544204892494726 -1.0206815935388978
O 2.2183369905082095 -1.3202532249901229 2.7794132933645543
C 1.8613235905682777 -0.687802661838264 1.8110258824101706
O 2.068787823160762 -1.9713592641706397 -1.3532783868254883
H 2.614393071827601 -1.7750716393644157 -2.136770410367191
Rh 0.2009045388999148 0.33425201850617653 1.765569236504945
I 1.5488026621492144 2.4923369562595306 2.042936698882747
O -0.5052235182288911 -2.160612657685696 -1.1204439561512658
C 0.025230708342529048 -1.122806327557853 -0.43180679043365855
O 0.9463825929987588 -2.739953391887299 0.9159400241927361
C 0.17506088304792716 -1.706688827627883 0.9413269965939777
