38
## STRUCTURE-ID: 645746b12631074e80390834 ; CHARGE = -2; SPIN = 1
I -1.3050877118068358 -3.038231210454265 -0.6389775529853632
C -3.4614841785477526 -3.725502982798584 -0.4125984614457217
H -3.716622076139254 -3.508820392932268 0.6253800631955639
H -3.439304058097155 -4.801477680430021 -0.5823558532354516
O -3.1764483749682086 1.8953067452098786 0.25452660731133775
C -4.406584389019399 -3.0832447265504634 -1.3864418117743615
H -4.197480009374537 -0.942615185205795 2.2928274132245994
H -4.162154488792815 -3.320978416887933 -2.4181722655935878
H -5.433787968660541 -3.3602575428383905 -1.1477258222522961
H -3.272776388047792 2.8501401206252113 0.4421744945141631
Rh -1.7335949036633973 -0.39499697363204833 -0.3141113052463141
I -4.385166008772155 -0.865314993467846 -1.2895365297931716
I -2.5684181902293672 -0.8637483651204809 2.27418292458429
O 0.46969115398280686 0.6233098736924957 -2.0784619984640718
C -0.3579519637113863 0.13335231626758112 -1.4148666299523787
O -1.0266701161958915 2.4110338448346154 0.01674199418698258
C -1.8957378585599314 1.5359741645124876 -0.007500596189899814
O 0.04059695416184266 0.82315252527067 2.1868799992072474
C 1.5347971202985824 4.5747878416915375 -0.8442257815018935
H 1.562268430151967 5.4074996978052745 -0.15253240134950696
H 0.5305345793649694 4.390575220001718 -1.2060520128931063
H 2.232958906830625 4.707440089152362 -1.663603901188117
H 0.3501968567167576 1.7195303352856857 1.9711994591048
Rh 3.01912098215147 0.7858404420284519 -1.1833547001343863
I 3.622822905505515 2.347423514296347 -3.203876194051799
I 2.1530045033923635 2.7528836584036385 0.3177748491457951
O 1.482594241017314 -1.5896436957514215 -0.5737208782792858
C 2.494340307750607 -0.978904676807287 -0.15353772582546416
O 3.7573470020890456 -1.700526870935191 -2.6101323144837103
C 3.5432331858603923 -0.6882446093299647 -2.0727119378412167
O 3.5133168837348485 -1.8758909288301067 0.2807336601792142
H 3.18741401370229 -2.7900380121183845 0.21764103933139356
Rh 2.8588859497922985 0.2797840385731895 1.559046536802323
I 5.409877599073457 0.8361106579662507 1.0273136607360138
O 0.554235118495829 -1.3101426200917095 2.077722526407445
C 0.9819387715708765 -0.16637011338883895 1.9180128044980773
O 2.4677456796614683 0.43694325898706643 4.505946138351252
C 2.7723475392810357 0.4938616529665411 3.38639250370068
