34
## STRUCTURE-ID: 64571e8fb88d6e3e715fdace ; CHARGE = -3; SPIN = 3
I -5.63219560211231 0.8208552645131701 1.3321817742019049
O -2.1763580030753378 -3.141425053754249 1.0205415390638362
C -2.0746611083383404 3.032660841147658 0.680193274993941
H -3.057958947399072 3.2170169214926214 1.096627611683899
H -1.3199960591130346 2.8299676384258565 1.4314429211264483
H -1.4358045532364936 -3.748062342185876 0.7899627205061472
Rh -3.5379958724770466 -0.6738078693466955 0.6251454085722685
I -4.600686023416703 -1.5418140361880142 -1.6096038677627713
I -2.1350864855442167 1.4941013084894625 -0.7147044034844233
O -1.1222328099930432 -1.788284740639195 -0.4067511633789947
C -2.0903247575468993 -1.9644619689002216 0.33644440853908913
O -2.284066078503178 -0.707895882854948 3.3299645159525673
C -2.780716075909284 -0.6144139136751671 2.27799960525689
O 1.895948447751945 2.901563636708059 -2.4742852394494386
C 0.022407965019670344 -0.4716523805783797 -3.073633639357659
H 0.2840470851196379 -0.7805895175263442 -4.078139721157883
H -0.14675474573188366 0.5982278643409229 -3.0120663607300817
H -0.8635849712730244 -0.9926929334000252 -2.7301570284951646
H 2.699909754669977 2.768556587508944 -3.009520461090031
Rh 1.2659748677743916 -2.016301858183175 0.6665344763021147
I 1.3739829070956855 -4.517723085432831 -0.17973487168463184
I 1.6037161262476123 -0.9709073711661524 -1.7529008492261642
O -0.1911957888274129 0.283919107491373 1.6216044768125413
C 0.922392814003363 -0.16884607600880414 1.3561609502784033
O 0.5319604643914536 -2.414150244931573 3.519781720050096
C 0.8835712750382555 -2.3680428329941217 2.415817791373917
O 2.012618616209336 0.5926828501364626 1.6499840588342618
H 1.7680200852283732 1.4463614361926735 2.0585006897236413
Rh 3.1784256549877767 0.866401675376155 -0.7591321957711175
I 4.179983438577887 -1.4671331693708718 0.194304007761921
O 0.9556695979466286 2.370640345926388 -0.5415923334227472
C 1.9072945004112818 2.242366342722327 -1.3001838881281222
O 5.41180654897426 2.804335579676981 -0.26806003256875216
C 4.551887733049437 2.078547876987795 -0.49272589532546845
