39
## STRUCTURE-ID: 6457519f10b0bb17b72726b3 ; CHARGE = -3; SPIN = 1
I -3.5398078121605683 -1.6765088961442538 1.7879339723300418
C -4.833867016490096 -0.08613776605851434 -1.1147775280146879
H -5.360743957763289 -0.9282133257752208 -0.6653582141134253
H -4.756044379681145 0.7073789417467127 -0.3751413515691779
H -5.382112421910154 0.2595328606461958 -1.9891514683232931
O -1.031059077411615 0.9098331175490608 -2.1667109036178265
C -3.3685093647356403 2.020134535996184 2.199341623942471
H -3.0035062605362537 1.5544155143802354 3.109297439887649
H -4.348668677386767 1.6265703072573594 1.9470105037660457
H -3.367366685266307 3.1040076296146606 2.269501581137151
H -0.4337480965589905 1.1945412865133762 -2.889878221065473
Rh -2.02830127153684 -0.9570005180934381 -0.29359714343244386
I -1.9494638413880727 1.5310813480944183 0.5605316069284176
I -1.969820203637541 -3.513585157421841 -1.1609973502125404
O -3.2493827183811295 -0.7195854291399676 -2.7694082316440287
C -3.474543008209119 -0.5579513612112612 -1.5887058583266107
O 0.2628112458241032 -0.8967719670850652 -2.131094090639345
C -0.7467005298267837 -0.34770758384122263 -1.6830902268568362
O 0.12247016143561142 0.20131002941269302 2.607449521678424
C 2.935445422297647 3.4687502135927852 -0.807288941733494
H 3.6521702976004056 3.6400511117481416 -0.008946882783935985
H 2.2868777936898406 4.324942077838168 -0.9642613011624636
H 3.437676088645509 3.173451515343232 -1.7251155997516523
H 0.6659281254027302 0.8496094202069964 3.0916763805815566
Rh 2.5032283111564535 -0.9048664165676138 -1.4778852168486594
I 3.1941022068366003 0.5354487930196199 -3.555316728706557
I 1.621932615966138 1.7944826856955125 -0.18118336384897216
O 1.560389572110103 -3.4648804377494984 -1.4307862144189893
C 2.1003379720797164 -2.6589280985176553 -0.6608502480280045
O 5.06724007143637 -1.7567808611847484 -0.31357955304719815
C 4.078757094981842 -1.2205368353222332 -0.6511863120181324
O 2.5026724557519713 -3.1765298499763426 0.5578087802924961
H 2.2497985638326212 -4.118721639212525 0.6168378526277359
Rh 2.7191991414835854 -0.0010379658942398686 1.3950501154469723
I 5.028616739424201 1.2708655105201583 1.5089696398499817
O 0.12281918124128492 -1.353868519204584 1.051974748347941
C 0.8336585324822168 -0.5360904287973257 1.638454959193469
O 2.9557081971542005 -2.0814470176905067 3.5217361514925556
C 2.941805532047172 -1.2092568242873851 2.740736072660876
