39
## STRUCTURE-ID: 6457369be650d56fca4efca4 ; CHARGE = -3; SPIN = 3
I -4.424124432371205 2.7362988307630505 0.8173151634888383
C -2.8555884159539486 0.2710765778136544 3.3017544993154524
H -2.287166493929468 1.1968963612775372 3.200260027321532
H -3.5705631656075707 0.36555740530823355 4.117640689868648
H -2.1616597545343685 -0.541512621072355 3.531506701577811
O -1.394856428763337 2.6695188155137792 -0.942352162700207
C -5.420579342192996 -2.731775448682872 -0.45771978339450786
H -5.643635798061464 -2.593867907389376 0.593522549352465
H -4.453802870222021 -3.2092859279310173 -0.5785957567452419
H -6.208751713149894 -3.2571707383906294 -0.9817102222851165
H -1.138527803991476 3.144644876755287 -1.756753031540865
Rh -3.068412832874636 0.5187427195851915 0.2314238855260379
I -1.492203636935691 -1.6773601435758547 0.01890200560597216
I -5.264478787351016 -0.7429889028020791 -1.3341949858099724
O -2.2996746473992102 1.285888639107999 -2.43951481694125
C -2.146434044033059 1.5495127314743833 -1.2392981683237794
O -4.567452371277948 -0.8347461488050019 2.053093502982218
C -3.5957265008225985 -0.09931938491105013 2.029201222830394
O 4.832872506918526 1.6537064219819997 -2.7704700412853005
C 5.842117124583298 -0.7750344863167634 1.569847260455372
H 5.358437232495474 -1.7493895533454769 1.5784855909595275
H 6.036094099452703 -0.42380130363731494 2.578621944113128
H 6.737994462600096 -0.7787234463608339 0.9590895195633227
H 5.529741560533928 1.1237587976133272 -2.3395011978719364
Rh 1.0976359985142936 -0.6261268351571039 0.9212297227393742
I 1.31697893416532 -1.3941714485122954 3.453569520426241
I 4.402036687347607 0.6700770308951467 0.6499502645341433
O 1.7515220631612547 1.8069738642708895 -0.5022960852633568
C 1.3439376208098601 0.6290451672846816 -0.6723695768800902
O -0.425885291276542 1.8286661647539146 1.6032298643420653
C 0.18922127152405743 0.8647349147606012 1.3846312262178107
O 0.45836774337156044 0.43155697074792043 -1.7390745546512159
H 0.476263123646146 1.2216050253621498 -2.3015472459870945
Rh 3.203581242486768 -0.41686717842117843 -1.4757982817375632
I 2.5995543745077216 -2.6181227234722964 -0.029320503623052788
O 2.675559935366563 1.7914616584785634 -3.170427498637689
C 3.562867240494275 1.168399179307001 -2.596628406641371
O 2.290609521295663 -1.3638337982639224 -4.154031238951216
C 2.7141315874747782 -1.0940241560076631 -3.111671601949343
