34
## STRUCTURE-ID: 64579247438df937066f2c94 ; CHARGE = -3; SPIN = 1
H -3.9302441061149884 4.019308429423665 -3.0523689421564275
I -2.937578954055568 3.936643352625823 -1.76514428820826
O -1.697326344925861 3.3584674619601524 1.0806319822282437
H -1.660861741529379 3.650836250758185 2.0092194625761706
O -3.5580586116587822 -1.0028333012217192 0.9945532222321063
H -3.0097606419167127 -0.45105427181823765 1.5423872025461063
Rh -2.016273918845638 1.4687119074234507 -0.8907816799758868
I -5.84391816742964 1.5295162718314508 -2.421681240405599
I -4.322670366312081 0.24401475802240216 -0.4434642622955924
O -2.330815227558449 1.4147272965423128 1.98796304353984
C -2.0369840520993536 2.036581426080339 0.9525290750169289
O -0.8551478912857595 -0.698535018708471 0.7536729743564389
C -0.7787831964180257 0.14966675915673763 -0.0942054073634616
O 1.3752450792469442 -3.562120118925716 1.748814856553496
C -0.26879677944778935 -2.6727554699043923 -1.4408289168397892
H -0.1971757580291113 -3.6470624351814465 -1.9078531440044728
H -1.050430167434277 -2.0916450848722494 -1.9249339195373072
H -0.5125493671477592 -2.7828275081811396 -0.38422705574577265
H 1.974524456844488 -4.175614385149138 1.2857948448258776
Rh 0.5701749912383026 0.9501696475892117 -1.2825439831696175
I -1.159611177710849 0.675659436965429 -3.3269701856183427
I 1.6120570564096663 -1.6650201880700957 -1.5577363232647
O 0.8015228999914771 1.8626155464127434 1.4890554603714041
C 1.312479035936537 1.2981144570233165 0.5151766899523944
O 2.643892783204855 3.0497680549782316 -1.6527994880077714
C 1.850577385937712 2.2284902095049426 -1.830523711748544
O 2.6135877896115574 0.869965117172133 0.679528622808518
H 2.963522236225613 1.1328656146821932 1.5539345731051697
Rh 3.2426098244748793 -1.7468903027796445 0.42540858292058054
I 4.663303760906646 -0.962230933959103 -1.6454710770778742
O 1.2722925077884673 -1.4484837529156653 2.4255012586677465
C 1.8578435908047246 -2.2518798406995724 1.700618274943568
O 5.0038039870895625 -2.512621535247098 2.7093881095653893
C 4.40954908420872 -2.2045478505190896 1.767355389209503
