39
## STRUCTURE-ID: 64573ecd047b255f58068a1e ; CHARGE = -3; SPIN = 1
I -4.673737255934698 3.3913173654401385 0.88281365080564
C -2.8256422736563676 2.357781942731671 -2.774475561426813
H -3.88960723013644 2.5732988671212724 -2.8597933590284788
H -2.234219354160335 3.1170137357007484 -3.286355616064541
H -2.6274509501892376 1.3798805542997583 -3.21418812911938
O -1.3861650528039633 -0.5409067629886809 -1.2960016146783837
C -6.039372236478889 -0.17937622533083186 2.435566995350752
H -6.364843197708174 -0.7003302198017841 1.540203822137936
H -6.367937306966723 0.8553676357438116 2.4164496529512003
H -6.352371549201539 -0.6854895196364634 3.3397923555602365
H 0.5875119468018096 -1.785818644602522 -1.7315231296139846
Rh -3.156178941082095 1.2712247920942983 0.11189848373855336
I -3.8321852642602905 -0.16574083462023062 2.425071218832169
I -4.837259037410305 -0.12564619397528964 -1.3445532392982662
O -1.4621424626392394 2.9627919429267884 -0.8920898146810703
C -2.4106278527864595 2.3106197640723516 -1.3208356722233445
O -0.9491297786224381 0.2508176278315445 0.7726222970337919
C -1.6326159027937577 0.09077740343526061 -0.27239553142520506
O 1.9956595272498652 -4.067279423475543 -0.7283130148589626
C 2.804935696139428 -2.3549445461965677 2.144634600746923
H 2.5670048150363827 -3.387321677891586 1.9162569489486554
H 2.8126141117020853 -2.189272549211067 3.215576205530131
H 3.758022341364678 -2.072790153642505 1.7122862507577248
H 1.0237571283273914 -4.009501931157729 -0.7197203432205651
Rh 2.5144702030720194 1.673323226465856 1.0975591778310023
I 0.5338824043609539 3.0627465520174595 2.307949538284998
I 1.2340182218973186 -1.0411445596637965 1.3062831648764792
O 5.176677077352548 1.5343085763607482 -0.03729416207174075
C 4.112653878197118 0.9621684894701239 0.17951359660377
O 4.376970872194413 2.1482731728631097 3.372410720503243
C 3.6155063901334783 1.9526892127320064 2.5133582718097807
O 4.0465049254426795 -0.34533106132604685 -0.3434725521723628
H 4.903019359767725 -0.5859003287951028 -0.7545511994988395
Rh 1.877278378865509 -1.1666088878783591 -1.2972198485778024
I 1.5020498996690552 1.6821067912074812 -1.4823402304412558
O 3.880647301769816 -3.003058635460362 -1.0889416721261218
C 2.6788731328616104 -2.9808188614173505 -1.027638534903052
O 2.673599675618691 -1.0482936461740253 -4.156780341483037
C 2.3658283590063074 -1.1409329892687772 -3.0617633853897526
