34
## STRUCTURE-ID: 64579248438df937066f2c9a ; CHARGE = -3; SPIN = 1
H -4.7401812792302636 3.798826643789379 -3.2600770757043294
I -3.367561224511226 4.116002233890695 -2.468782774936102
O -0.5815440078230828 1.4058896055198247 1.5121610959704836
H -1.296088048850475 1.031876979153831 2.1558876668641727
O -2.6555788624844445 0.6488335066833668 2.689985548664824
H -3.054044042995384 1.3322777277251485 3.228280071047537
Rh -2.2808611329768658 1.794526840990778 -1.509758647821424
I -4.870620407981143 0.6354342849664678 -1.7760917498365814
I -3.431545619687107 0.7247814277778298 0.7427607722448962
O -0.8286888990339035 -0.6594179714196783 0.7012617676889231
C -0.41056476605598424 0.49982058770514015 0.5266653718970578
O -1.5121202506733582 -0.5617254096967813 -2.9937978793381554
C -1.235113518623405 0.37366441041909965 -2.334681021990893
O 0.6907271602907061 -2.425792124783665 2.509606423960779
C -0.4283525414049189 -2.970262720726674 -1.4499414761093277
H -0.0638722713927827 -3.991517672218082 -1.421685823832552
H -0.9705465956545142 -2.770343292829399 -2.369134617306435
H -1.03748873682445 -2.739517453540856 -0.5816784076816505
H 0.8757942719993509 -3.295592180763762 2.1157665768122262
Rh 0.36003944315759195 1.0132377279861466 -1.179955934701559
I 1.6573823817250521 1.898801019328726 -3.3375230356899883
I 1.3124480074872515 -1.659482447621095 -1.397452897996391
O 1.9309592459319456 2.560079241799475 0.7286618518006873
C 1.8774854451318699 1.5449778592874321 0.030650713347642543
O -0.5399446212835317 3.6579079900547473 -0.20765509323599776
C -0.6910252731154344 2.627825161523136 -0.783426011875504
O 3.0346133436777394 0.7661435592527994 0.056586617431091425
H 3.726020924381576 1.211665547247002 0.5883182670364279
Rh 2.9136000968817073 -1.7938176095282359 0.6534319715238167
I 4.839220974014075 -2.012963330206537 -1.0842937393158811
O 1.4039264364083968 -0.3243962287075358 2.499201291278489
C 1.5333564978494707 -1.439955485853297 1.9863624169601986
O 4.100375110708866 -2.6375122894302527 3.2508167473382072
C 3.7397927609568 -2.3602761377751444 2.1795310155054133
