34
## STRUCTURE-ID: 64571df0ada03c2c3d1d80a4 ; CHARGE = -3; SPIN = 3
I -4.834341824635012 -0.24320861224744375 0.3643095300438175
O -2.9599686846973845 -0.6831995580531935 2.8703721203216137
C -3.9020806016469733 2.637218345580239 2.121776020042157
H -3.701645104095302 3.348385767295485 2.928732659961715
H -4.881420201801816 2.204669330741167 1.8717003325727386
H -2.880882528249691 -0.7470112170266766 3.8546423020442164
Rh -2.249327025900545 -0.41559465053020683 0.20551736464856887
I -2.355319837686615 0.58677614318233 -2.409505617478272
I -2.06223441161383 1.9981844239959583 1.0770907872052993
O -0.8557456272547538 -1.3330251563490894 2.5379568761659206
C -1.938711435005335 -0.9079944597333734 2.1171903161296792
O -1.022073203844662 -3.1394768903236447 0.029983554042357714
C -1.596853333362341 -2.1395193967596953 -0.10224862315796218
O 0.6599643409430404 2.286430689135548 -4.5321759488448
C 2.425173445271556 1.0816629733064922 -0.3770257349385274
H 2.595685061506026 1.730926774470666 -1.2393136143049792
H 2.856980358829052 0.10020783342366209 -0.5972557983105994
H 2.9541095893822713 1.510784455954183 0.48600551736391334
H 0.07772381573470134 1.7909336338287254 -5.132557631954335
Rh 1.3340600554773596 -0.6052360803966218 2.1139134629787324
I 0.7123235836305993 1.2621580474228038 3.7509628169634244
I 0.40992824989289117 0.8690270564778186 -0.00047935880798168296
O 1.7241654327017375 -1.9316739067983444 -0.46962715896992335
C 1.6764303035574597 -2.0044280831334573 0.781291609571961
O 4.261708467691113 -0.83153468422978 1.6574422308038539
C 3.154807352367151 -0.7312426845036536 2.0848604371462143
O 1.9455895187443062 -3.2371007232444873 1.324926391676274
H 2.0650610205186855 -3.930145171944435 0.6472405859802057
Rh 0.14107894066366916 -0.003593373296235931 -2.801127134200054
I -0.3394257473922994 -2.6043232656275466 -3.4273467718268864
O 0.9834739137611712 2.7147408877484076 -2.3918493629768505
C 0.5728567503535675 1.8728550173304537 -3.197810763826706
O 3.103171050839019 -0.3026344409193352 -3.1282719994009445
C 1.9257383153207102 -0.20401902477603684 -3.0193193966630054
