34
## STRUCTURE-ID: 645755ffe519da77ea7ffa83 ; CHARGE = -3; SPIN = 1
I -4.92419938251114 2.3187277126555697 -1.3191193634928469
O -3.8913641849317595 -1.1782723727134174 -0.6223427320282813
C -3.9012902578319206 -2.400051153639666 -4.17694228264794
H -4.0543935657899155 -3.0293255584265313 -3.3061065082830003
H -2.9141814051780948 -2.542642682151801 -4.606739194151952
H -4.069747327292401 -1.680782535957755 0.19933450358124108
Rh -2.642808153946438 0.999984850908337 -1.9468099495149027
I -4.207179236732948 -0.3911755268227194 -3.676745928806066
I -1.9027308236107592 2.7636846101254697 -3.9753188140272457
O -1.8292299387878699 2.930584028648266 0.1442140558042388
C -1.6365637542623173 2.0560384572826966 -0.6297429359255262
O -2.667237159856326 0.09335157596804348 0.7308966210744763
C -3.0883528412730907 -0.12194248309494125 -0.4063245443920476
O 3.1621688816402105 -2.075797958253749 3.2946143773979886
C 1.164431134226047 -2.6526440726241445 0.5651944220225255
H 1.5335834577793719 -3.3220779479604694 1.3338732468352468
H 1.975728823496591 -2.2048702326992005 0.00015767347196734492
H 0.46193144095240873 -3.1382396396279115 -0.1031739356209093
H 2.422090675498235 -2.017289481150838 3.9245336934231707
Rh 0.23127049857661464 1.9661020557543805 0.33348811150533403
I -0.5987361591182783 -0.777116972228963 -2.336280183796445
I 0.14117406233850383 -1.0065416710897082 1.532251086414708
O 2.5012236005096575 0.31727898864216514 -0.18176427169221715
C 2.1170873270866277 1.3378258949195927 0.3989680748147793
O 1.482795356466835 2.552654376611827 -2.31858504552708
C 0.9032183391260165 2.3090390888642776 -1.3469983606646647
O 3.0245063171071394 2.3575300390200913 0.5975541394639642
H 3.9112749546495604 2.0619230763726617 0.3153122607593783
Rh 2.0254354622841757 0.5090933834635499 2.647941428293014
I 0.09338215615092926 2.4898167017127584 2.943194723949689
O 4.298616715273959 -0.9459264587913817 1.7854419058950917
C 3.3417371301813463 -0.9577967027155365 2.532812984491901
O 4.193666636792322 1.9881096089668895 4.083822868277129
C 3.34269122098677 1.3907490000320955 3.589387873095428
