39
## STRUCTURE-ID: 645751051bb3c2132275cc2e ; CHARGE = -3; SPIN = 1
I -0.933819435478438 -2.3492467291520445 0.5306814416549462
C -4.173130702459491 -0.7738920865677914 -0.8411297158623341
H -4.7738269165403535 -1.2712162640295892 -1.6002937758481552
H -4.085098017299356 -1.4023945747185884 0.043027686145577906
H -4.64567761823085 0.16252723808300526 -0.5472360860130091
O -2.7145188397732958 2.3020170151327717 -1.4862814497367545
C -3.7255428917516635 1.2431585862364465 5.192724703444954
H -3.8357770233214192 1.2884203028498593 6.26708471763438
H -2.8361078481212743 1.7530617963827129 4.850308459579426
H -3.72298738126735 0.22857773789444594 4.821832704691738
H -2.724515428720087 3.212441854700483 -1.8469547389131236
Rh -1.262165334788498 0.1132780690961536 -0.4145698573249054
I -5.392861155480963 2.2309611747499174 4.323366239506766
I -2.464128990664571 1.0185057768341552 1.671109535567851
O -2.5883081499658798 -0.5743627629718032 -2.6224267988285344
C -2.818595493097928 -0.459180964087791 -1.43354128835788
O -0.5419255365074244 2.716054805222694 -1.29654790930173
C -1.4695703079474869 1.9118372047269 -1.127935850413297
O 0.9864501343087727 -2.390304447629758 -2.6335589095817693
C 2.9341625500585913 -3.667510856878385 0.5634952486122362
H 3.295994166389847 -4.508154584825533 -0.017887255512541136
H 1.8579651753029987 -3.5540931264338806 0.4724603742871691
H 3.217396409817144 -3.7609205966443766 1.606277235938034
H 1.7704673750262743 -2.9119482146273095 -2.878853717091719
Rh 3.885964405495089 0.6043129773188372 0.8339141663413215
I 5.985814849816532 0.13418235402249182 2.3602543433917123
I 3.9099739521308337 -1.8703760403233167 -0.21377674326624255
O 1.0466937990417549 0.536689989987782 0.5220038088356486
C 2.1076666710736234 0.9704635915533574 0.03200002820043659
O 2.5466924264387534 2.894916592323181 2.1799339655342878
C 3.1881960532643663 2.0132005467184992 1.7513071258971
O 2.0465486519756304 1.9889962579259595 -0.8932234439421907
H 1.1059346232833678 2.2425345963352887 -1.0701963116508402
Rh 3.1031070463846224 -0.3765436990163979 -2.2220617392764277
I 5.399665912715993 0.8822174653172024 -1.7077588717892058
O 0.3050786236949653 -0.354179838207814 -2.10111318030637
C 1.2763275152309002 -1.0730712775602749 -2.32643587771483
O 2.115158501579023 0.6096790704055478 -4.858886871758895
C 2.623298228387568 0.23936105985717537 -3.8811113927728007
