37
## STRUCTURE-ID: 64575bc0692fd933f73dae44 ; CHARGE = -2; SPIN = 1
H -4.76899828993349 -0.9422425934611257 1.7111879701721469
I -4.144483341639381 -1.2814528617341094 0.12884247813068028
O -3.594496389869427 0.71444464897039 0.4688319657887347
C -3.2760648252551494 -0.8401190320892559 -1.8051675959279578
H -3.8786954113029175 -0.09272545290183368 -2.3050804885772123
H -3.2581535537688997 -1.7659432855366157 -2.3679267922114438
H -2.266070125587892 -0.4587933216544928 -1.6887521389270734
H -4.393231623219435 1.2425881233876543 0.5253648701040701
H -3.4947254728021484 -4.818782797646876 2.470651193921711
Rh -1.564684136507213 -1.8329243397591308 1.2307895002304212
I -2.893488534325268 -3.4805860110060594 3.117480988260724
I -1.1595712554047477 -3.8387100754802983 -0.38398307055361586
O -0.7444421057323128 0.7949130367079185 0.10651741681020006
C -0.4056881840049203 -0.2689416106507047 0.5084424728085648
O -1.756001011582722 0.5822072765884829 2.9520862357587627
C -1.7411043238237167 -0.39228337888532505 2.330673483501885
O 1.4214314002704844 3.843783573431942 -0.9067198350683313
C 1.2442740290936207 1.9725532116356455 2.287295217461388
H 1.6944705017293258 2.8701559910963867 2.6932830218102537
H 0.8739114270310163 1.3435652130296414 3.0910839543455917
H 0.4334520037581589 2.236469123747406 1.611721228478878
H 2.2339089521083557 4.27810226718362 -0.5950419078686194
Rh 1.1587748686722037 -1.4081872027856928 0.6278927782423368
I 1.223943385701443 -1.931745399596172 3.2554475610892086
I 2.7366422767383254 0.9087721744501936 1.1634681236484434
O 0.10158099339526958 -1.1924069205115824 -2.085788059705473
C 1.0661556941974981 -1.0574526282953116 -1.3411557772566143
O 3.108714586882816 -3.383253757303706 -0.5311049305993428
C 2.4295939215123767 -2.708664441757694 0.10030798400306583
O 2.2445356531110825 -0.6563763921307649 -1.9124412575528924
H 2.1520007954330778 -0.5820142805198788 -2.884062804608343
Rh 3.366626975980455 1.6676945551649356 -1.2072848675361703
I 5.398313741803851 0.1058056479705796 -0.5368701362724331
O 0.7151879401654487 2.0467904866949636 -1.9925553049929983
C 1.6707601556401221 2.594037100404577 -1.4509662955051101
O 4.144486284636713 3.1628425111341114 -3.676920285521237
C 3.921132996898064 2.5688808421078746 -2.7095468958821325
