39
## STRUCTURE-ID: 64572dd950f9fe0ecf4609e3 ; CHARGE = -3; SPIN = 1
I -0.7029301057184846 0.21800180476646247 -1.0720031672705854
C -2.15596021035323 1.7876414338599642 1.8993584716725573
H -2.660164687081848 2.1752848076656823 2.7843949411653472
H -2.7242051825850204 2.025676966812734 1.0006868815648036
H -1.1677060084197073 2.2519412278936253 1.8329400718831146
O -3.5255861019151813 -3.1853188801240178 2.201387315023871
C -5.437951864215881 -3.051236907491095 -1.2065510930620822
H -5.710170280179928 -3.2574081786043645 -0.17609327411853248
H -5.639128779962569 -3.887660328126867 -1.8680823109510385
H -5.903183575146082 -2.1321278324029507 -1.5472907781640168
H -3.3608054943253762 -4.04325162882949 2.648958464347931
Rh -2.4623261336471165 -0.9698180843197343 0.6924060004263577
I -4.874645550744644 -0.345769616346882 1.3419964598547003
I -3.228784770936919 -2.730018492181766 -1.2718346206279012
O -1.3025060067910026 -2.978255829833463 1.9045466943368525
C -2.4480537287899753 -2.579181948284477 1.7573750136902189
O -1.4138135228116715 -0.1502489916660534 3.098494882298063
C -1.9294355607008726 0.2984826448757045 2.0866336144204145
O 2.1230493956273806 3.3493611843940765 -2.333334350406993
C 2.155841434505743 0.09473958135145352 -3.735635604010976
H 2.8653180033176024 0.32074992040330874 -4.523743873413151
H 1.4220901088725943 0.885524283378207 -3.6033645770600344
H 1.6586134087381932 -0.8550504889412619 -3.9147258957806987
H 2.8285529596963794 3.2976208198452803 -3.0025954770160457
Rh 1.607289869708031 -0.9970244606035381 0.007117008890343799
I 1.1741110084968303 -3.236948529804649 -1.3478953024816096
I 3.285088279897337 -0.11077775816152723 -1.852187380539663
O 1.094095601866865 1.1197119113972605 1.8980556645213542
C 1.9307302761910903 0.5275211914120107 1.205576567821922
O 1.6098592870952988 -1.8927601997520336 2.8559079383257044
C 1.5616477337991181 -1.696486042853811 1.6964203022375286
O 3.265349836140017 0.8693218863768152 1.4607728783716307
H 3.307266461540054 1.5163155777196642 2.1905916935424603
Rh 4.259069292208258 2.052900898395011 -0.7883867791737079
I 6.42821470801988 0.6681054143191042 -0.2402659922970536
O 1.714099912989538 3.045952253574973 -0.1833473281491956
C 2.5401854744518855 2.9203637675096674 -1.0867308403051554
O 4.999631406623888 4.901959118651 -0.2956366146989922
C 4.817253104543675 3.772167503731606 -0.5139156048694321
