34
## STRUCTURE-ID: 6457187b4ab2652eb42eaab6 ; CHARGE = -3; SPIN = 1
I -1.5023600423657923 1.0789773426889409 1.678518480456154
O -3.3207163534241873 2.750295094822208 -2.0851774558665963
C -4.9081305423473705 1.5368399279779126 -4.937920221582313
H -5.858400819997616 1.1050869657880678 -4.674729930365881
H -4.8310013586260485 2.2393797405916898 -5.749663999267147
H -2.6309520163364932 3.3792556969551164 -2.3022801329232068
Rh -3.4004960148747756 0.5798332941669025 -0.3550041214684157
I -2.306395542950213 -1.6880195072500916 -1.1539400787222114
I -3.347099659521953 1.3355837508133122 -3.6760995353370887
O -4.508809525222349 3.1941430314614156 0.5690394598696698
C -4.139330247112591 2.1744488803056687 0.1900644391658889
O -5.962162727250525 -0.23386992757769387 -1.637082002706447
C -4.965472728652801 0.07533383851662567 -1.164932849892504
O 3.116215615883224 -3.965264804710849 1.9589125424709142
C 0.23886706031287014 -2.1585130020442387 1.6181300368254925
H 0.5435080673402521 -3.195674525054716 1.6945156236664307
H -0.8313578900154366 -2.0893925742368524 1.4638583720909855
H 0.5205325172752564 -1.625557569306085 2.5264146376633616
H 3.305124918335976 -4.382287317446388 1.1008611388910954
Rh 1.1576585825949153 1.3393828146563942 0.4395657255561812
I 0.025862384886636038 1.791177556277032 -1.8900783681743116
I 1.310567211364128 -1.2469281281072842 0.0455727754302294
O 1.7500782466121234 0.6757060306468453 3.1655351317261524
C 2.2076211040294913 0.8564970600049734 2.030122025762536
O 2.4549139362945303 3.908642648420599 1.2146902235309358
C 1.9188723710549669 2.962092884670705 0.7738522668328802
O 3.5729605290459583 0.6695853661847583 1.8745660204709536
H 3.962436263191957 0.3791280313787376 2.7223049402697947
Rh 3.8148456829604713 -1.6712452750908233 0.2972558600409923
I 3.6295567113748812 -0.43803554218957447 -2.0328619037142714
O 3.3296779333650317 -2.062666017124196 3.0637909958520764
C 3.439769661418666 -2.609857204437039 1.968226713472835
O 6.648205465072973 -2.489183432840942 0.767128734201481
C 5.565411206283855 -2.1748951289111034 0.4968444557733165
