37
## STRUCTURE-ID: 64575bc2692fd933f73dae50 ; CHARGE = -2; SPIN = 1
H -4.673282089720658 -1.0799041899579638 2.2101299426439045
I -4.308356150320544 -1.4638070185164076 0.5729333317236357
O -3.521596473547238 0.4949805925289043 0.8269707602719727
C -3.6727182687764257 -1.1031786494301576 -1.4715993669975995
H -4.2686476455989055 -0.30427919489984295 -1.8945119378247306
H -3.824205182087461 -2.031529731043752 -2.009208105120326
H -2.626069683228977 -0.8192201279222505 -1.506366747759407
H -4.260155708801553 1.093396180866547 0.9498351745686693
H -3.17555626458906 -4.985033222030389 2.6904142072505755
Rh -1.5091335054907153 -1.9468322635422726 1.4261085265428999
I -2.5374770612707604 -3.639476073049177 3.298477509655531
I -1.2818015996097214 -3.823788844126925 -0.39255845422184676
O -0.9228774774044587 0.4052111322059282 -0.24273017425829346
C -0.6294868020753258 -0.5930579011784934 0.3148712284503063
O -1.5194263395162129 0.4904530988875798 3.123067334506565
C -1.5953689695168363 -0.5010664313634926 2.5337346278800514
O 2.188176032914859 4.28328490765547 -1.1151388003093097
C 0.5279422535573117 2.4043091332549014 1.5791357149388703
H 0.9747224346781331 3.3760281853821 1.7506936394783272
H -0.03969097601208563 2.0889030359690004 2.4469511467269984
H -0.11549978651161143 2.4467201595642747 0.703602762802472
H 3.0567957703182835 4.6037707336435085 -0.8213343853003745
Rh 1.2949734180509918 -1.4294942619675675 0.35644865634588574
I 1.615103560904246 -2.3589486553108374 2.8332195222707175
I 2.0902344960331676 1.023633859484735 1.1565714126338837
O 0.2833347359583144 -0.9829729977631961 -2.3090507576354886
C 1.2417787370982822 -0.8454397737636518 -1.552559767789678
O 2.396569867180928 -3.6142025558881823 -1.3894630329782791
C 2.025944422424912 -2.8771325015420888 -0.5882441471951914
O 2.397795255531826 -0.3485810982749121 -2.084978903766861
H 2.301709101131061 -0.19480877403123184 -3.0457135487482145
Rh 3.576168256894847 1.6821174473749658 -0.8268185127447354
I 4.940747173086135 -0.2879148558801837 0.3585889956258872
O 1.117184289118844 2.48244062107954 -1.8107045879336157
C 2.1756939307703207 2.927651222282309 -1.3645126229985407
O 5.495940391588704 2.96600014001501 -2.730726759397405
C 4.78053585683735 2.461768671288238 -1.975533881337216
