39
## STRUCTURE-ID: 645724db964b28407c233630 ; CHARGE = -3; SPIN = 1
I -3.925264018883658 -1.512235289712039 -2.1974359070069456
C -4.725335708956518 0.16091223377885475 -3.4533795864508257
H -5.5276212094854005 -0.2731665674588733 -4.041322831767471
H -3.904654028926464 0.5094795649911418 -4.076299014067907
H -5.08559111580451 0.9258194466139261 -2.7719005306459286
O -1.207882660272644 0.7974085162241268 1.8273266678515774
C -2.827297702401054 2.9878616093618993 -2.5722472087332706
H -3.8661052101732545 3.1915255615840223 -2.806292368962996
H -2.348143596556516 2.3552476787418017 -3.3133736385824974
H -2.256263718790444 3.895526888461431 -2.412028499638325
H -1.0749002230680142 0.8842580568013805 2.7867571727894713
Rh -2.159720494767856 -0.81249275251669 -0.23182956769782181
I -4.260251925853412 -1.087521417718142 1.5744601528677886
I -2.7997234950741263 1.8965931728751277 -0.605179732824165
O -0.8932497581421289 -1.3804824183555129 2.300960752329431
C -1.204566255634702 -0.5599235500951837 1.420336024920184
O -1.3476173058203642 -3.5989810273415346 -0.610249454279308
C -1.1765706079345826 -2.401416034430527 -0.6271755746887311
O 3.5417721026295843 -1.148361925389618 4.017267128217692
C 4.679637921328994 3.069808706138181 0.6703430430575008
H 3.745831064916268 3.171359731957251 0.12306953533858074
H 5.540778005773303 3.2766705300996657 0.04512248785139874
H 4.681795133740222 3.660509132060252 1.5783283890216133
H 3.8564032366091787 -0.22650032180338805 4.00289599337456
Rh 0.22178633880090462 -1.215853137598199 -1.3771345049827648
I -0.6309888258901649 -0.2556913370254454 -3.653846775878816
I 4.833759290984214 0.9478547664295295 1.280095472310128
O 2.5410225264122013 -1.6942801472183702 0.1623335763184324
C 1.2689909588327877 -1.8735979920862 0.1583096571927043
O 1.7902901335995118 -3.6739252788405525 -1.832920873448114
C 1.3925054709869045 -2.5625517577043584 -1.938133543278189
O 0.8399207015526404 -2.978498273803209 0.8847964246535004
H 1.4667958457685653 -3.0432338408941693 1.6501569763923571
Rh 2.139324112065954 -0.17554130927282305 1.59147211986062
I 1.34185521114864 1.23041115479808 -0.5131608616002132
O 2.395036400798402 -2.6837757591633946 2.9691487648164596
C 2.6919006898918045 -1.477004890504947 2.978008794211263
O 0.866991918575247 0.9881585926893373 4.008339509866322
C 1.3853507980204591 0.6856296853271301 3.0043818312928803
