37
## STRUCTURE-ID: 64578baaace45c5e77399e43 ; CHARGE = -2; SPIN = 1
H -1.8371061830545778 1.416324857163375 -2.342313737622722
I -2.513146857680047 1.4663054424149584 -0.9027951166562819
O -2.713388665843895 0.15465708737296063 1.8530634384984779
C -4.077091985289404 2.7297304967326066 -1.8217763792261343
H -4.735993092083686 3.0435622006699643 -1.012698476837227
H -4.611488143400984 2.1253667655715045 -2.5563361057771123
H -3.5718639628761046 3.5836646271402874 -2.2698393405567026
H -2.2921791074081703 0.2006917249067825 2.7316879326586907
H -6.718457858611325 0.6043252670364491 -0.8027609207003001
Rh -3.6497210251310466 -1.1924262921588997 -0.39304215475507265
I -5.812523341858346 0.12216805614355242 0.4582127417935712
I -4.4046639638253495 -1.1733346582469646 -2.910300529568032
O -1.8882239888967352 -3.590806507567377 -0.6608040454333252
C -2.5518512560701208 -2.6306884317076777 -0.5975402276970727
O -2.717242702168747 -2.043842720473771 2.275315576437922
C -2.9589901522595614 -1.1561090320106815 1.4517227389031462
O 0.06958124253470926 0.8126169522195371 -0.2845673637757157
C 4.726489667186149 3.076815153804682 -0.6242223664436379
H 4.234134305120791 4.030396193760163 -0.4687776210297481
H 4.830923303186337 2.8254090906988814 -1.6731613051574137
H 5.680926398226414 3.015272472662465 -0.11304243691053274
H 0.7061437561237238 1.551137259361926 -0.17998782765967605
Rh 4.2033136083824045 -0.9314557889579275 0.09195539094212163
I 6.532040085522227 -0.26626765170901384 -0.8401242359656301
I 3.347361510219046 1.5063208121809606 0.33783221524656515
O 1.9010753987997862 -1.777920932742 -1.1526988616054044
C 2.3035349189411476 -1.7880574204180073 0.03553017577468149
O 4.474954868319203 -3.84168336290117 -0.4069817122568206
C 4.459297831628118 -2.700607160681384 -0.1759093393778246
O 1.9789186280108524 -2.9810200814643686 0.7471094292648432
H 1.392445203226325 -3.5220326985089176 0.1981254377526251
Rh 1.9046708314414893 -0.5148650536573279 1.672046383837259
I 4.016047540579917 -1.0295808716238422 3.2067657476175544
O -0.4459543825469236 -1.2402116826544833 0.31825806649767563
C 0.3682578194499173 -0.3340351879202547 0.46000191315823735
O -0.3145789735896773 0.3161798526666535 3.4641891066762147
C 0.6843487256961326 0.13400122289627753 2.887863809952784
