34
## STRUCTURE-ID: 64574b5971d24b07d967f9c3 ; CHARGE = -3; SPIN = 1
I -1.7044995208818197 1.2265996557941619 0.6859912356532344
O -3.802440881263502 -2.5657139181984756 -0.9504986679523475
C -1.7463548997184326 -3.855174621157245 1.5442129595998968
H -1.1155291583109552 -3.938481309705324 2.425320994924341
H -2.001006982525524 -4.825791361978014 1.1228257620003252
H -3.6578515333377806 -2.8784151771438236 -1.8655576567775956
Rh -3.984417536915721 -0.39879815146091474 0.9293555249225736
I -3.6250650095521633 -2.922721733934713 2.1789972232652857
I -6.5126166892398505 -0.1984915712852831 -0.02161148279942423
O -4.462994044489546 1.2951074818820376 3.3527469976384245
C -4.353269299574073 0.546334791331257 2.4641737758354214
O -3.038376118468514 -0.6783032914853256 -1.8278337671068612
C -3.5274153766984098 -1.2168544309063318 -0.8204626170675714
O 2.865211904064426 3.452512186127534 -2.7223210574271826
C 0.025545560260879698 0.8730487710805053 -2.462919299293616
H 0.23780278058725207 0.9707364827812891 -3.521771227876012
H -0.044682211944833 1.8554214838687986 -2.0021937547871542
H -0.9139596435867426 0.3484204265636044 -2.319796490911425
H 3.5767820614862518 3.110654695969018 -3.289930142325831
Rh 0.6383494726433347 -0.5653722962600873 0.9772532411063309
I -0.6389131876829728 -2.7443021069609292 0.03751224248714505
I 1.5841067319059972 -0.1612307045093546 -1.490051960377888
O 1.2704731881929436 1.8117639184751075 2.4258046464910406
C 1.718614411249604 0.9259248215239979 1.707192791591393
O 1.1076308917944206 -1.2075798211154212 3.8627106543405136
C 0.9240192056224756 -1.1092989591695301 2.7202665570922058
O 3.0529572075974585 0.9300530025396456 1.4428441149397406
H 3.508157401494687 1.6412443645614545 1.9400037465630888
Rh 3.7715675791795613 1.138847326451055 -1.1308470831745971
I 4.310036009680471 -1.4356672753970874 -0.740929550215275
O 1.9505496603161667 3.202734690041886 -0.7267172654003901
C 2.8026346273660137 2.7937078991068796 -1.5125426343465025
O 6.3917507125160125 2.5791778090624895 -1.2166043449288824
C 5.393202688232814 1.9999069235072164 -1.1946234656824923
