34
## STRUCTURE-ID: 64574a0340088d12c715986a ; CHARGE = -3; SPIN = 1
I -1.384737163834687 1.8147156203375958 0.2271163583365474
O -2.2175946714612564 -3.455221509357967 1.7587025359733994
C -4.164904071919632 0.18621414362817812 2.923177947762793
H -4.074476857583489 1.2563025158598087 2.8219744732300973
H -3.855390790636773 -0.2889457797298804 3.8400181012033645
H -1.9904315591599784 -4.34192017842325 2.103621352202519
Rh -2.2078935873284755 -1.6029354394254494 -0.4991765565090255
I -4.153234160998073 -0.944999863536822 1.2044540556250227
I -4.048593283637606 -3.074589844092838 -1.755510904739739
O -2.358097513008883 0.2995826122187348 -2.7985977797885933
C -2.4182381599201346 -0.25533909845909186 -1.780033347155599
O -1.0000803773224263 -4.095710561334464 0.004720177751426585
C -1.7115189693025337 -3.210627787519154 0.5142056087306922
O 1.0355686390567118 3.2385000373887163 -2.0690099346492294
C 1.6844246954155255 2.8725025998803075 2.269955671289456
H 2.526339470513892 3.556121357444271 2.3161890112281243
H 1.4241115340142216 2.482324555949909 3.2525429715126113
H 0.8131924676407397 3.3160376632739705 1.7920976859763686
H 1.6722112637125448 3.827744565379823 -1.6266201719357087
Rh -0.04312183060674828 -0.44825346744641537 0.6064268414020798
I -0.5485767989197616 -0.38192352527984114 3.2068871652253823
I 2.342120193570409 1.1270600959806463 1.0710609980317085
O -0.07594921901014179 -1.687479635147426 -2.091147405166964
C 0.5373927065705616 -1.0326704197902323 -1.2285604451389351
O 1.4244688367980909 -3.0066832882585492 0.8451307115659963
C 0.7483153834934354 -2.058447232256342 0.8072036397121026
O 1.929338884774585 -1.0575935888083992 -1.4100373684373335
H 2.142399093202053 -1.5605940148212258 -2.2183608357782725
Rh 3.1327883904088174 1.2426698887944434 -1.445061610068625
I 5.317848376551287 -0.07148013445708332 -0.7613486756913581
O 0.6221591754645354 1.1365810713129314 -2.6073866063395332
C 1.428806109569389 1.9238093321505652 -2.0929631025259923
O 3.811504010873827 2.354048962287191 -4.130385942592823
C 3.6598497830200416 1.941200346257334 -3.0512846202421144
