39
## STRUCTURE-ID: 6457088bb9f34f30ea61a6eb ; CHARGE = -3; SPIN = 1
I -1.8274812531028675 2.5581306560793897 -4.31284829563312
C -4.73960268621247 2.78452236215269 -2.2734330814174784
H -4.3464487006565315 3.6850283173994445 -2.756900712050505
H -5.054970437011107 2.112748175139518 -3.075750279129299
H -5.58285070617892 3.052082659601742 -1.63653389778667
O -2.5180587894985162 -2.699553848191641 0.9670102445910355
C -1.5256512901268315 -0.23519581781809054 1.0507137976369008
H -1.8297003435626482 -0.8059194402452174 1.9177257784920034
H -1.7150242101377136 0.8274670783599931 1.199214957500812
H -0.46966071777584545 -0.41320735938060194 0.8682045785705813
H -3.012633391264971 -3.4640635500148886 0.6648988833499557
Rh -2.268760468414875 1.0439183437414616 -2.2520322983983116
I -3.9113660171339792 -0.6326216014241661 -3.3376790467905053
I -2.544586433495861 -0.9595993852951082 -0.5893890451540958
O -0.07366145770636595 2.1025235663616777 -0.49599794113094225
C -0.932753974829021 1.7434146909209327 -1.1891360731049039
O -3.5337518339818703 2.41504217625073 -0.22473057933509524
C -3.6715762595535617 2.2306086864829533 -1.4056262232675336
O 2.1480222526353883 -3.1809060341158046 3.385873834813068
C 1.1542241677866347 0.7450707497021326 3.0519486182522613
H 1.4614625100421705 0.9249164362758154 4.074973337118329
H 0.5751985977592978 -0.17497881153484204 2.993707830753284
H 0.5470196144419455 1.5704890935403573 2.687510152433618
H 3.051111558270709 -3.3740088219684217 3.6930532130055345
Rh 2.4244756185006273 1.278239818003809 -0.6639100522693777
I 3.274539143112284 3.694793612888377 -0.13910282230864857
I 2.8392093413758857 0.5077149646775159 1.7952121813568866
O 0.41044568478033466 -0.7116964600666749 -1.4141870545143362
C 1.595073808026042 -0.4955819892694365 -1.090354473034942
O 1.8568571474960944 1.3546059207964234 -3.571842093992279
C 2.175748716753937 1.4438546386734958 -2.4623312810533418
O 2.4421130820605876 -1.5740991403677504 -1.1649500151149106
H 2.005927481475299 -2.362678201592011 -1.5437285565018903
Rh 3.697069756390833 -1.8514967057346505 1.2294518281421074
I 5.3972543082888915 -0.13189977161951763 0.0974309528602325
O 1.01165758887351 -2.3319175182253167 1.6939348629188804
C 2.1378336503328805 -2.5756285730173967 2.147956955849536
O 4.882259939417226 -4.586278766683011 0.9881241036431223
C 4.471035002825769 -3.5138401504737917 1.093517710701138
