34
## STRUCTURE-ID: 64570e4337f76d6ed309292c ; CHARGE = -3; SPIN = 1
I -5.680679411977605 2.677028498564359 0.8451430652659558
O -2.321575271059879 2.7127329608369837 -2.960549646474919
C -2.6419546118553496 0.2780828412970904 -1.812562539109737
H -3.2373854855928794 -0.11818420530797082 -2.6334475057776414
H -1.6020790559372817 0.34661605796633893 -2.130679929547986
H -2.48269155991121 3.6192856300533864 -3.235556558802164
Rh -4.297584779646748 0.4505637973301878 0.40272243810831626
I -6.0586507288826015 -0.44590600740336106 -1.2129962501100675
I -3.4293994165785833 2.2018786722600807 -1.3678345291040501
O -2.0204466588277246 0.34226682079696114 2.3156353387339035
C -2.94113252376578 0.588751957233648 1.654727667175487
O -1.9848756173455513 -1.3014457047390384 -0.15281121982445012
C -2.8373468650486386 -0.4885133693960279 -0.5260867175134918
O -0.27494896467137686 -2.473444922550859 2.775574414752153
C 2.5433779695218517 -2.8102192183166377 -0.6169919778300818
H 2.362784359431898 -3.7935231966719725 -0.20135124033211188
H 3.2098870017340864 -2.244680015028911 0.024721203406183993
H 2.9416010221945235 -2.869012389917144 -1.622780478181369
H -1.0980121572765293 -2.142326896568406 2.3829122196435457
Rh 2.107008168723046 0.7496622112698379 -1.3433233446615704
I 1.1299978927453687 0.819788335920026 -3.8119139626620795
I 0.6763651730684723 -1.7622530941890964 -0.6665898196141735
O 3.6936505949696805 -0.21753940328578705 0.9240751847046099
C 3.0103481717625225 0.6927254211893425 0.42500176593676464
O 5.006824889819529 0.42254275899500093 -1.9064569754313385
C 3.8455995551745032 0.5241842207154034 -1.8130349821632663
O 3.1571882785867214 1.9450632429077375 1.0161311528039652
H 3.799392089351166 1.9025383108792158 1.748853452971162
Rh 0.4851775655631058 -0.060431503971589084 1.4114546812493414
I 0.02768619741703047 2.0713643615508532 -0.18496351394213673
O 1.8903795706664162 -2.0710725704241226 2.8952898895022154
C 0.8117109795591541 -1.6640289281671936 2.491082131735794
O 1.3245101405712485 1.2977013041397274 3.924999496077237
C 0.885273487516675 0.8198040220317149 2.961607089014798
