34
## STRUCTURE-ID: 645756207b019a06612726a4 ; CHARGE = -3; SPIN = 1
I -3.723741996144948 1.5085318076979592 2.4482647704253204
C -2.111418737459792 1.9509683105601587 -0.6559318654896084
H -1.6666543968569447 2.530347444210813 0.13831924939854653
H -1.7467908857130428 2.243159624591225 -1.6296528607061211
H -3.194566228117811 1.9738757056412204 -0.6161770734079711
O -2.0019644395427982 -0.502117027005855 -2.128571511021316
Rh -3.088206290864952 -1.0841287489375815 1.3736380042263654
I -5.077543251474054 -1.1688072421178377 -0.39873858930343803
I -1.5809419515172636 -0.054957577094729745 -0.4176399094528414
O -1.0538408259694925 -1.4080891096604482 3.513752579250868
C -1.468061524180632 -1.3695113977939464 2.4099959470911596
O -4.464509945156649 -2.8247086625250013 3.372229895318103
C -3.951718983469845 -2.169656378284778 2.5730686809760694
O 1.8138750431913528 2.0824362538216667 -2.904332014607032
C 1.0220259223596126 -1.581227037518844 -2.868637089845901
H 1.4063036464523957 -1.084372179118782 -3.7529242680255623
H 0.10286790369167445 -1.0921628928091447 -2.5619315497169985
H 0.8317437487502847 -2.6293157649941645 -3.0627787481494417
H 2.754389243445062 2.2128693482805875 -3.121879723686152
Rh 0.23764583500346126 -1.3978508638571105 0.8434731434209365
I -0.8708035872570626 -3.41680199746552 -0.46268949006684507
I 2.4279962296007276 -1.3992888014302851 -1.3083179557958686
O -0.2227746162452014 1.2482890425608173 1.631486625044622
C 0.6634080726924739 0.3843730993672794 1.5854703547241158
O 2.1546874893176597 -2.751078282641599 2.68709060792259
C 1.4307623548018773 -2.242782949649758 1.964998381286671
O 1.8901576722047828 0.6830862365769863 2.0375990679381433
H 1.9539134863380003 1.5728350285225619 2.4490906315976275
Rh 3.1247661242081666 0.9465852543228748 -0.5460324206805224
I 4.919693905038378 -0.6655054968662902 0.49241651416715765
O 0.4427327831517535 1.4363016143279337 -1.3118442670693138
C 1.63539826450338 1.5945425403810964 -1.6297242714022004
O 3.791366107482378 3.7980386285613803 0.03779221374936971
C 3.6198038277370435 2.676122470347089 -0.1808830581106384
