39
## STRUCTURE-ID: 64573fd9f52187783141e57a ; CHARGE = -3; SPIN = 1
I -0.6801643099382533 -2.5389566692165357 1.0460571723259373
C -1.6315003684208569 1.888491339719461 1.5893553569434677
H -1.6210553588700678 1.438997777554069 2.5837684119711155
H -0.9258563560987915 2.722405367298289 1.5702027444116984
H -2.6426909103748866 2.218895478199985 1.3614359481355423
O -3.605355318201664 1.7384569751556862 -1.1721672103238638
C -4.161998776622793 -3.8930529525766224 -0.8287636369271418
H -5.046585237452276 -3.4157705951931483 -0.41887929221707604
H -3.4549799940189727 -4.154988231746911 -0.04701713069086759
H -4.397056421292273 -4.732877563510621 -1.472401914214903
H -3.7169798052465515 2.415978606830637 -1.8722938340814073
Rh -2.118307533655464 -0.5847017659816884 -0.2583877087454409
I -3.157688464617575 -2.403980875265065 -2.07792173181292
I -4.3009088407810925 -0.5061936501600919 1.1207537444891922
O -0.08446718010372553 0.8035455434148222 0.06411019127969848
C -1.1744022061138166 0.8512930359536959 0.6126228961593472
O -1.855111488489216 1.0066312039493668 -2.361382037799916
C -2.6188484199040234 0.892468919177161 -1.4113715180974225
O 1.2016017721930194 2.9380817946144733 -1.645684383136599
C 0.8863345667278895 -1.3256439339449144 -2.3399764905862215
H 1.2582683197276407 -1.1640637490751826 -3.34461414481582
H 0.04649078832868077 -0.6593449971557396 -2.1459995442846322
H 0.6032117715228137 -2.367025893812731 -2.201733664500942
H 1.6247342412870727 2.5604260856313976 -2.4329307344689233
Rh 2.014111708712696 -1.9526916097843725 1.4652438074709562
I 2.754630856691307 -4.378751927292141 0.6583319070015989
I 2.5041325439663313 -0.8758179611249693 -0.9166946720726238
O 0.6771467523827698 0.2018942562440994 2.8304763411033917
C 1.6586227240542588 -0.1485837927912865 2.162652618483459
O 3.0499844605603172 -1.7308995491062673 4.2533470511597224
C 2.71691774910681 -1.984363110572001 3.1566629970944056
O 2.6599763859457646 0.8162378554173692 2.020494198992161
H 2.38385015618232 1.6432593737795882 2.459757786932975
Rh 3.4749609630382254 1.497259105361925 -0.40287252505440113
I 5.66581016638609 0.09480185256252811 0.0920135939309648
O 1.423566778647204 3.1218676075798024 0.5481940073957213
C 1.8736836796936795 2.6059621839916463 -0.4746420397610192
O 4.511653206576718 4.228921212317594 -1.0069493162037508
C 4.204267398471096 3.1318332535568087 -0.7627972454853297
