31
## STRUCTURE-ID: 64571967271262479873b9d7 ; CHARGE = -3; SPIN = 1
I -5.520090849055997 -2.2519618279538394 0.8434111342700995
O -1.1471076095653512 1.1730201634949708 0.030498251454948968
H -1.2020378843845858 1.9036769191344272 0.6424132315912696
Rh -3.10348717736525 -1.41260838777444 1.158582192961216
I -5.297105445659873 -0.00569295103732067 -2.272986863774537
I -3.0116243672637055 0.3786369273337341 -0.736046017005087
O -2.4528488913565383 -2.1806675542175387 3.9538310379052946
C -2.848471322249092 -1.979800316691307 2.871876575188586
O -1.1117879430485729 0.14450044714695295 2.5781293039024638
C -1.4454601511639578 -0.5673716137288302 1.6690372376269875
O 2.344433149395675 2.796086529101245 -2.0708330515445015
C -0.7785344701856058 1.3943141001599153 -3.220619383939667
H -0.10092618151867949 1.6641807468239553 -4.026734898058127
H -0.9567967569435688 2.2356470893043876 -2.556892492815777
H -1.7154190229449666 0.9984470004904313 -3.61489092393629
H 2.7928553799095908 2.278161090964694 -2.7672296128711213
Rh 0.14288636082725764 -1.4799158538986483 0.32117707803326967
I -1.58403169127742 -3.2974068438536337 -0.6854103853419056
I 0.2224282110463576 -0.2123410592393671 -2.0907088790641635
O 1.349203846878685 0.7043258529614557 1.9162725983901951
C 1.5455213800962924 -0.3241500297997296 1.2504236754482383
O 0.29529962216099714 -2.448192196042332 3.120538444523203
C 0.21777546698702244 -2.1721951559943142 1.9898584917432913
O 2.6234331668951794 -1.1283583128628372 1.7425482719646388
H 3.062779203239025 -0.660453489394097 2.4705351169573033
Rh 2.464762800355311 0.18338526286446197 -0.8527692361450334
I 2.62517288181242 -2.4930934985606696 -1.2172242076381428
O 1.5621966071124005 2.7587303156306846 -0.015291245054723918
C 2.0880445727314036 2.113779906655621 -0.9079720612680403
O 4.886404895631826 1.1624060428886744 0.576675088485618
C 4.05253221890378 0.7249106960931332 -0.10019847198934687
