31
## STRUCTURE-ID: 6457028900216d36fc493a70 ; CHARGE = -3; SPIN = 1
I -3.344643959738339 -0.8158482975096837 -0.18702696389956486
O -6.577449003212082 1.4645607297217458 0.5582383927257805
H -7.324713213029628 1.2422109647270947 1.1574914182716274
Rh -3.8232096791047465 1.8903703714140747 -0.01326073111807658
I -4.49011123592302 4.421419041307747 0.39742852057603134
I -5.172075581789329 1.850114654404701 -2.2815784507822485
O -5.243884169018179 1.1960403594848161 2.31850777864081
C -5.401124708700148 1.4555246691970942 1.1382419820164977
O -2.319276889027039 2.3927110941708913 2.508176104583454
C -2.835466608472616 2.0889241474176248 1.5217113005433738
O 5.3358867949489515 -2.473280986770813 0.525744520638819
C 2.755046204058843 1.392471729779011 -2.402010727799091
H 3.2001178400455244 2.3687845781340386 -2.5359992590247917
H 2.2346849328974443 1.3362161343312409 -1.4509398158958235
H 2.0848311579781993 1.1394920862178912 -3.2143488573370105
H 5.618226126336777 -2.362542250693028 -0.3986850638839299
Rh -0.5543168632215698 -0.1654624234737362 0.03175724781823109
I -1.253548130251799 2.344390774465838 -1.3229639553978918
I 4.31947034084364 -0.05736582430030176 -2.3687811471220597
O 2.248418111552633 -0.2650125779862519 0.5561181731517411
C 1.1492247572022907 -0.8247768534062636 0.7609589348285765
O -0.05961582700403548 0.8181789495813186 2.797348809036015
C -0.4056741921517474 0.47441356876759855 1.7251990224983569
O 1.0606741353505937 -1.8045008286668762 1.6995617831803262
H 1.9988092235694546 -2.095273660352146 1.9271366370152314
Rh 2.684289998914909 -2.062398219736737 -0.7320581293197909
I 0.3717857026360415 -1.474235229324941 -2.096707479671022
O 3.6164685590631787 -2.5124126159076567 1.880150895578895
C 3.9918998182288052 -2.420582491443736 0.7016454307413712
O 3.126585214325222 -4.816193507736236 -1.782412623574483
C 3.008691142691949 -3.7259380858143727 -1.4186437470192856
