34
## STRUCTURE-ID: 645707f719ab626f716c2b3a ; CHARGE = -3; SPIN = 1
I -1.2243001917662795 0.09408760540236756 0.875333766257665
C -2.0306449387075567 -0.3491132574560471 2.719148376539488
H -2.7655977612439395 0.37552912097607116 3.039541131125592
H -2.3178062917710944 -1.3803270655481776 2.869887914676978
O -3.497541848232328 -2.52152547145835 -0.4398311143815377
H -3.4570011388483293 -3.4975130189970467 -0.3375364634235668
Rh -2.5118955159050644 -0.06374762105083084 -1.4563860489483915
I -2.60130207453628 2.646692019050717 -1.7032723431231673
I -3.459822806488467 -0.6283767335019 -3.982828638881889
O -1.5676182606344606 -2.7788077313815367 -1.5268098316419427
C -2.449505478138068 -2.0293485586297964 -1.135821604097546
O -5.245800562097418 0.21303274981325795 -0.3451462182778591
C -4.183799390103573 0.07517319721548957 -0.7633247710278722
O 1.4966318592247447 3.4659136304626963 0.7261593203420056
C 1.4805483584787564 0.6446321882451984 3.239712535688734
H 2.11521240433265 1.1171065219882348 3.9801157639464373
H 0.9583648525804989 -0.21132040571469293 3.6549719188211998
H 0.7597617397565514 1.3430849666343967 2.8217290248315194
H 2.3705030260559457 3.7957151395334727 0.999489474064021
Rh 0.6478174335576294 -1.5871518274992835 0.23197327386472474
I 0.3473630650505563 -3.116503282393082 2.3283260958947385
I 2.7427085881234294 -0.04451419408422795 1.623836488954941
O -0.41448760792543765 -0.19819599522163672 -2.164666218709661
C 0.5787187527871461 -0.5482997907477765 -1.4844167721011192
O 1.841236910655333 -3.445791327355433 -1.7589899736479988
C 1.4427875865453292 -2.7958641033059384 -0.8821132210173449
O 1.7790409880103277 -0.3135495391719745 -2.1077424711928203
H 1.6569169582610654 0.09040358418511985 -2.989734341934547
Rh 3.231130768417203 1.4142631389962448 -0.46215612567301667
I 5.306052243869539 -0.18327240348950663 -0.6612973942120505
O 0.4827760067477636 1.9080959664665584 -0.45507369677038356
C 1.57371153297251 2.3572171538346476 -0.08266944257649204
O 3.440600144445347 3.471704782751933 -2.611880800694442
C 3.4752406465260015 2.680570561450797 -1.75852759267444
