31
## STRUCTURE-ID: 6457a0dcc3875a4fa22a156a ; CHARGE = -3; SPIN = 1
H -5.888702473443523 0.42458600287983517 -2.660378380993965
I -4.267564219799396 0.4217603508858123 -2.505594439085271
O -0.9090212129986007 -1.3743080326965331 2.2922767279082903
Rh -3.57452239025539 0.13604496001525712 0.2597415942545186
I -5.042234541050347 -2.037317631209963 0.11452239387209498
I -2.131658545484821 -2.062920584985806 0.08073210173899871
O -0.9467065131845638 1.2202310528064229 1.1633188393178513
C -2.0427390452352725 0.9584271535137173 0.9016471046053288
O -5.6085426224316555 2.2053644969711126 0.9910782862075869
C -4.821168249353858 1.4432046592821028 0.721937039752154
O -0.31017899101907703 -0.3046071822008562 -1.1795345624112457
C 1.728092855691702 4.31770425108261 -0.43684116896334724
H 0.8378917068092342 4.485073011284055 -1.0275388626744448
H 2.6164148947953585 4.725493690953301 -0.899458917602901
H 1.6123218944634283 4.6371471272949805 0.5900796251057813
H 0.26139359785804295 -0.3140806651287934 -2.0015803549846214
Rh 3.1330419412167636 -0.47516061327226816 -0.34830029718091726
I 5.422922005314141 -0.8699940243818706 -1.470705775545667
I 2.0797984380422743 1.9767016823880679 -0.37289799959835057
O 1.6668093496074161 -1.1288256050497238 -2.3839305089893146
C 1.6885734925124452 -1.5586875505398543 -1.1497485511178078
O 3.288738853773233 -1.9905006412094601 2.1256032416637844
C 2.779066399078255 -1.230161105230541 1.3463304050019698
O 2.0411608643983503 -2.950082602236965 -1.0199869236234251
H 2.5579413085339717 -3.1681518638791535 -1.811985380291135
Rh 1.0930343989105895 -0.18135250753096463 1.2885166750038954
I 1.552517313046156 0.992529181442047 3.636575360903887
O -0.2646028143738512 -2.3823288469777366 -0.18365970479620788
C 0.46246168287651307 -1.2364318027351258 -0.32413260429117874
O 0.7365160911561586 -2.897743107550267 2.2433036870273018
C 0.24894453054638963 -1.781613253983464 2.0206113497864027
