34
## STRUCTURE-ID: 64573a0895fbe92fae0876ea ; CHARGE = -3; SPIN = 1
I -2.639279185045829 -1.2718810610334388 -1.913063550237539
O -3.5148446654608936 -3.499205631305413 0.4961295525291573
C -2.626645096496491 1.455986343190016 0.15823387470567096
H -3.350595042898928 1.924496921486728 -0.533557342307629
H -1.6299916225503435 1.7980554122157113 -0.18925645705188526
H -3.5745092990928637 -4.351872397074987 0.974788970805611
Rh -2.8250964314096487 -0.6363638647356512 0.6155459735309472
I -5.483995393873679 -0.4072534693388376 0.9293834107512775
I -2.8882513974027146 2.6149650383990513 2.0004980529786183
O -2.6430086507117965 -2.768088236001465 2.412142786883048
C -2.9878011266196216 -2.5103750489320977 1.2453840198436938
O -1.0949271513664773 -0.3420228738808716 2.3480076789802524
C -0.9860593350575684 -0.7593530835422836 1.216844251999878
O 3.1343809846901287 2.586228193900002 -2.6740075335709568
C 0.027049595681050836 0.8128869444198578 -3.188544317111199
H 0.739020348892259 1.4396815629671111 -3.7156970451124964
H -0.584453539261382 1.4122745556284795 -2.5201910604257782
H -0.601090600935422 0.23740606743247242 -3.859523567415491
H 3.8248689671824905 1.9479753090167622 -2.9389580099348946
Rh 0.7999450376706853 -1.5089092410785088 0.5177745064059271
I 0.06444210182872705 -3.995495179359743 -0.24132615427365653
I 1.1369074501374052 -0.5452201715197924 -1.9626060868900967
O 0.6044330216748137 1.3549568072964993 0.886616611138564
C 1.2926533592633989 0.3603499687504358 1.1249997248128099
O 0.68706684680104 -2.5774039946941887 3.2880683553861862
C 0.7870789277705038 -2.166120010543004 2.222706765007986
O 2.091867883209931 0.3600622807408502 2.245139520530449
H 2.068120591235912 1.2274043248099995 2.6903716333511136
Rh 2.9953027609837872 0.6405543991250794 -0.5679583057219414
I 3.5225285843256016 -1.9938190766960486 -0.010701541715572778
O 1.7528709544139078 3.156562945732791 -1.0556937530806272
C 2.572136129906884 2.3574336809684695 -1.4606668180937221
O 5.019561999549148 2.1039474302301437 1.0828411320749958
C 4.310312992966086 1.5421551534259081 0.37627472122749955
