34
## STRUCTURE-ID: 64574bdcdaa96e57904efcb3 ; CHARGE = -3; SPIN = 1
I -2.1608285393321096 2.884015396679603 2.830546398123763
O -2.6449108221830886 -0.7562219278945297 2.769722598372362
C -7.139636164624434 1.3167867427581565 3.3480214127650423
H -7.856518464911289 0.7112494499709633 2.8227596620246582
H -7.375512121572267 2.325410479291366 3.633811640423094
H -2.1134546992697665 -1.5645462767130347 2.8958927551856872
Rh -3.629078780883988 1.3926786382891339 1.1070002975318232
I -5.170109038314638 0.7732932981543379 3.253633374981155
I -5.249617636447357 -0.19841344143091644 -0.3115697355189763
O -5.092965069211983 3.8756500265910967 0.2685229688283566
C -4.595944409647299 2.9075317327326884 0.6364078165284506
O -1.7298202711174 -0.8617233811804604 0.7542039880405236
C -2.4973721322568756 -0.22719388747037964 1.4942146944098875
O 5.135564146955208 -2.1960032152334428 -2.425597412156628
C 5.057374700229786 1.257574177674865 -2.3073443477381854
H 5.804816150922188 0.5830318752817167 -2.7096323326303744
H 4.975674182446984 1.1503711696800816 -1.230641678789921
H 5.236656654328809 2.2866654105764006 -2.5969969136239546
H 4.851019437092803 -2.086002877200344 -3.3509147073544208
Rh 0.1518442021671891 0.36591621465755353 -0.7988745884679697
I -1.833726722240854 2.0855554050569323 -1.3144225769029017
I 3.1158571518448706 0.6790948898070159 -3.1091183804836473
O 2.9240904290301257 0.09842855264559602 -0.0019154959105875835
C 1.8383173121408831 -0.5192403008347732 -0.1357686898895948
O 0.8907403447489568 1.3162426769393447 1.9066400898594258
C 0.5696055319977819 1.086089899415537 0.8034187955518634
O 1.6320892371900133 -1.555689531234806 0.7887063842775711
H 2.4567414155832514 -1.6748816135676599 1.2942250271441145
Rh 2.283497978667346 -1.694323799449869 -2.11116154773979
I -0.2582565471712065 -1.1231289203233008 -2.939890318764865
O 4.403223296368388 -2.3923138424687136 -0.3597119328888769
C 4.098949631619608 -2.1536677023927515 -1.5184796041986837
O 1.8918745033380244 -4.599713453772639 -1.5303664497810183
C 2.0298151125122637 -3.4925218650349446 -1.855321191207232
