34
## STRUCTURE-ID: 645752a4e7452257657ccc0a ; CHARGE = -3; SPIN = 1
I -4.2076497921086204 1.7181979331665236 2.091512842057418
O -2.5986341904504937 -1.0754986103236914 2.1892645164239624
C -2.7689666856168085 -2.4224262175233804 -0.8674724869751902
H -3.1553944146061146 -2.765030522399696 0.12531426153742387
H -1.7273470838475005 -2.0652960932223614 -0.6097427235913219
H -2.2316519019112837 -1.7540441494357082 2.79282181729219
Rh -2.268157294993342 1.1268835470880878 0.39596980407545257
I -3.8212569630247915 -0.5329698611218365 -1.1640577361241593
I -2.734842496669952 3.2915148033216797 -1.1229226210111116
O -0.8351689868305546 1.949368407248876 2.7533976133672646
C -0.9841277435335273 1.9789927158063632 1.5483493186516863
O -0.4841736311495013 -0.7901230756705706 1.6278232506136119
C -1.654448888777047 -0.4044641343050529 1.491775990277076
O -0.9065210053019205 -0.3948002671128622 -2.838157717893809
C 1.2246922580471866 -2.948711811003038 0.08851483168287995
H 0.21159598609445712 -2.5672899915334595 -0.011923367449573048
H 1.4075888042730484 -3.2157732070068854 1.1228217969395524
H 1.3442124965919675 -3.8109692837752074 -0.5563895124855439
H -0.52407055998148 -0.7229932428247756 -3.6681523049146114
Rh 1.5601963826570926 0.2251242135194279 1.8358064568809382
I 2.117828498624498 -1.5752964663798152 3.631814696700831
I 2.5729061025629227 -1.4222236547324403 -0.5138422712367364
O 0.09023790983494404 2.5654241253480774 0.7937721656369761
C 1.1138268222763297 1.7358360447714085 0.6211003930683744
O 3.762812033964637 2.051046946505795 2.585705641462194
C 2.9506587442825802 1.28387380339834 2.29681658634327
O 1.9510629857101056 2.1840259641662194 -0.2991839239104779
H 1.7198643382721088 3.071807833432037 -0.6542462246774582
Rh 1.9459547887240765 0.36699516236570956 -2.2850315149898344
I 4.5552318130687315 0.4741911308742928 -2.1550777403218593
O -0.4458305933525566 0.6610408328447013 -0.9472135154173136
C -0.00026664982637637866 0.19347068840967932 -2.0048379213136136
O 1.249519144877209 2.132246835342848 -4.584800940474549
C 1.5703197721199935 1.4578696007606795 -3.709529460223918
