34
## STRUCTURE-ID: 645739a652344516ee37419e ; CHARGE = -3; SPIN = 3
I -3.012166635761375 2.4892288757892502 -3.030855860240901
O -2.8835561771372027 -0.6183526674643223 -1.9407258055529157
C -5.5999673938577095 4.916534084101025 -0.2772559388916403
H -6.343829725750066 4.141976016619293 -0.21504072755265324
H -5.7593095564783825 5.851309013038608 -0.7809013988668388
H -2.617348657143674 -1.5544834780880297 -2.0360526955390617
Rh -2.9482302292304112 1.8242774615189412 -0.4833748159588689
I -5.599448632143872 1.0243230849371177 -0.25664815927984375
I -3.616070083460225 4.408794672650157 0.16600470458293468
O -1.561036482655404 -0.7233050102984605 -0.16864309158304752
C -2.317138703430547 -0.02575707844848963 -0.8712855854879482
O -2.2911647451448647 0.9469355724319246 2.2864450140842263
C -2.586915528468073 1.364114624533468 1.248481647007346
O 2.786674644119943 -4.785720357236627 -0.6020516589356435
C 1.8739722162440124 -0.9389993536571861 3.367053733289521
H 1.5630424802570326 -1.7952772601326787 3.9520986434720884
H 1.8781981104059418 -0.035748434591963925 3.9654143910223993
H 2.845882443468577 -1.1069063384026099 2.9184277378773915
H 1.9580566378117037 -4.990682736843068 -0.1424968197582519
Rh 1.8945725613179147 1.1610943808384426 -0.07901448030755658
I 0.13987046242319184 3.1371993345351625 0.11607292154264963
I 0.4541801063642223 -0.6849005962525316 1.74877767679631
O 3.385629786822455 -1.2313346921907187 0.5732067797657888
C 3.1470203562968737 -0.33802366780337306 -0.274472005249202
O 4.514982743449556 1.8450038734929306 1.1386506608696285
C 3.420775534576966 1.768718923187703 0.7222296181564682
O 4.041247450454782 -0.22838277065651574 -1.3166590795407145
H 4.626023020197763 -1.0117272739958423 -1.3330143111612114
Rh 1.6326120260665704 -2.0170609332364022 -0.7424867997093327
I 0.9089696648027137 0.15727924624880718 -2.4671853094333867
O 3.9594117304748586 -3.1722753300195543 -1.5296476407330994
C 2.9007582120012447 -3.486296317935178 -0.9988674781374768
O -0.9294880871961332 -3.324367885643363 -1.483160268645885
C 0.13379045030155634 -2.967186981025891 -1.173023597901205
