39
## STRUCTURE-ID: 645704111eebe269e20b5344 ; CHARGE = -3; SPIN = 1
I -4.96150451931943 1.055436341070505 0.5804745425210901
C -5.630867928992045 1.8676728857436287 -1.3521476841108984
H -5.484494098116798 2.941419130021881 -1.3163245191043775
H -6.671853177511612 1.594292288352408 -1.4694870427782274
H -5.000568766635012 1.4297121721258752 -2.1203819560449175
O -2.3433999080201513 -0.5393471693994195 2.775451966081329
C -2.405092269641651 -2.364013690884118 -2.165435832711917
H -3.2837867301792323 -2.532115037785161 -2.7752667383720424
H -2.519860280858638 -2.7796265434440306 -1.1710485064085847
H -1.5053175242298558 -2.7562248088670582 -2.625660457656276
H -2.676829748402064 -1.415116583952968 3.0561767529445443
Rh -1.9364769823736168 1.0532062296336167 0.37808647327095607
I -2.061988436545759 3.257737504562607 -1.1316849043878343
I -2.1546268606416445 -0.22579625184031668 -1.9262108539589595
O -2.0089489768220847 -1.7841578880749136 0.9402772587306711
C -1.8434016520121679 -0.6464418513437383 1.4461503890702858
O -1.1877089940695047 2.447173047220378 2.904771677360247
C -1.4434092719802194 1.9034191715921234 1.899560960109011
O 4.021722113749729 2.4942079199960085 -1.991130335271057
C 4.910669285134495 -2.5863268521505147 -0.002901688608802131
H 5.931244652743018 -2.8753060071389545 0.2127597174204645
H 4.313887194459483 -3.4126695892680075 -0.37153031915737716
H 4.4372550035426155 -2.131605682564679 0.8611671050473938
H 4.128629602093275 1.8630029276919235 -2.723256424342938
Rh 0.5315998316940348 -1.1465649110728584 1.9170741932351674
I 0.19525048883907586 -3.4877026039193764 3.1950398865945777
I 4.962818405266322 -1.0937070581579778 -1.552205759209218
O 2.916018075806647 0.16722971430901654 1.2058240958552422
C 1.664222186671264 0.3900742739942242 1.3054889327491281
O 1.043993482306967 0.6005889418523865 4.264055881306294
C 0.7422238809673782 -0.1280974863288538 3.390104587060235
O 1.295573164676973 1.7105900666576601 1.4840820560171208
H 2.023133963594218 2.262442503212164 1.0871859108122592
Rh 2.383042938819977 0.2726364663219247 -0.9598245017207477
I 1.1792426238879012 -2.1318425243910704 -0.48051001639617663
O 3.111869917747859 2.8618002492942387 -0.03949458271308417
C 3.2043216203538125 2.0700824772690716 -0.9852559872882133
O 0.695012375018968 1.0601673159339107 -3.2893457195456937
C 1.4284053189770949 0.7337709137281351 -2.454628556398503
