34
## STRUCTURE-ID: 6457558a03b857137d670ffd ; CHARGE = -3; SPIN = 1
I -1.6254995165517527 -3.0123165766636184 3.0612719971091273
O -3.20666375525869 -0.6358181219070459 -1.6389990576984406
C -3.819211628296574 -5.148991517984769 0.449598838421104
H -4.879343440728039 -4.9776500707919995 0.3425886171101012
H -3.4543800562711517 -5.8848238134014315 1.1498672753453232
H -3.3133366616744238 -1.2901378454815136 -2.3523500413489646
Rh -2.1378858718825096 -1.355793858057775 1.0156566815042427
I -2.5142803517755263 -3.7405497933767755 -0.28785048353632753
I -4.762080737344629 -1.1105097894687888 1.294359820979829
O -2.332297756652971 1.427407979590304 -0.2574951977744754
C -1.7472240621878155 0.32397777499030533 -0.09102594926461476
O -1.1449236556409315 -1.583656907297841 -1.5915106133578094
C -1.9689785035094445 -0.8017349940166292 -0.9809892003110096
O 2.9488174067394124 2.6908583603819487 -2.7641170306197274
C 1.7369210865914235 4.006672076646015 2.0757110785068065
H 1.0386021596471893 4.01384598626983 2.910420022461065
H 1.9471117113516394 5.009125574095265 1.7118021093311995
H 2.6435653929797533 3.4597734566864062 2.3274683416239292
H 3.329905882720788 3.3453694971399064 -2.1468018727588034
Rh -0.11881086321434091 0.2982193532976422 1.003836202529127
I -1.352336862405667 1.0958725659347641 3.20864296873845
I 0.7300827550048029 2.911926809896719 0.37510119887589816
O -0.0956839705485978 0.7060604752589561 -1.6742420094468622
C 0.36369267692473684 -0.09875645063603035 -0.8143736841497762
O 0.38237967088020774 -2.487935274670442 0.33752585114214173
C -0.3159459953012792 -1.520175949611388 0.4772309561202531
O 1.3703871611662102 -0.9242985984867227 -1.2469764721067822
H 1.7072244890231758 -0.46810091226183137 -2.0999314445700805
Rh 2.803107841201044 0.9527138624209958 -0.35726579828701427
I 2.4111539483551816 -0.15339721303807197 2.075982683027443
O 2.327948538251123 0.6075601089509591 -3.050717693533348
C 2.7433257489862584 1.4673490627293855 -2.245734715850269
O 5.711530696310063 1.5258675111948676 -0.02189630495066832
C 4.593126523111371 1.3520472316684078 -0.19478707326106928
