34
## STRUCTURE-ID: 645753ab468053470e3d7d83 ; CHARGE = -3; SPIN = 1
I -0.9476845610550272 1.4527829836370991 -1.8100840059207648
O -5.461528624907843 0.3668994245711191 0.12448283425214246
C -2.8950234335657696 -2.3960414352980033 0.42524797652508445
H -2.638240714348012 -2.3492176593325467 -0.6542658609095313
H -3.968763643776077 -2.1338075053672534 0.475208892291875
H -6.189979418183077 -0.14070341545666787 -0.2953754904453
Rh -2.866467221560719 1.489964503107332 0.12344575806095863
I -1.9035920798140964 -0.6941292674460048 1.308946753411813
I -2.7642055548604176 2.8751886877552875 2.4755697750841588
O -4.292133111045234 3.733770974602699 -1.2193365825282232
C -3.7514583560105996 2.8645859760251673 -0.6750123490100194
O -4.349994458147083 -0.18334204688440792 -1.7247376545740047
C -4.351441319067612 0.40148111566825134 -0.6496258252849612
O 2.299706291161975 -3.3723543825366535 1.8393348940251786
C 0.492297217797657 -2.0078229865743005 -1.631004551189585
H 0.7585248988680083 -3.0400440257305688 -1.819077719414147
H -0.11539072026413871 -1.6097738630951024 -2.437763679139393
H -0.04858562300993515 -1.9298045522981384 -0.6906086712113538
H 3.164581468532196 -3.785183243807377 1.6684945863561949
Rh 1.962588959031893 1.7735591721973551 -1.3161046953744149
I 2.360902433919001 2.0752158177248576 -3.916906924456494
I 2.220570345001367 -0.8420442512436995 -1.4418105342302627
O 0.4077233608547097 1.686850649688091 1.133608465669737
C 1.533571116084086 1.5625500974369155 0.6587084036651564
O 1.7026806344890115 4.657360308937503 -0.6223308069285509
C 1.8697210238397188 3.565517521088458 -0.9407603866518944
O 2.5721313229683687 1.3280064460459169 1.4866610562495184
H 2.3010666093414227 1.3152365504395047 2.4270614850225645
Rh 3.6741121542513735 -0.983721689309285 0.7069816556127307
I 4.834256171744793 0.8765097251681614 -0.8917485319384808
O 1.2347495396141774 -1.4355444954202652 1.758965173177293
C 2.2860565983242993 -2.0450059192363876 1.5713162596949357
O 5.866584548289559 -1.6483651720358752 2.6381478685738937
C 5.0026641455019565 -1.4285740430213136 1.9143724315340307
