31
## STRUCTURE-ID: 6457028574e9df3b38763453 ; CHARGE = -3; SPIN = 1
I -5.0136034949366 1.5300529284434552 -2.8250544563796955
O -2.1722565360349355 -2.0668999388602614 -1.879152190831908
H -1.8318344651457101 -2.7446272709370882 -2.5001945514605275
Rh -3.3096117844243604 0.3608396057170323 -1.1961572387678294
I -1.864428613055035 -0.07531682175771333 0.9619178400358331
I -5.123079167966367 -1.320056567587427 -0.42074008356230946
O -2.348075232428097 -0.7015000792379055 -3.6452078878262695
C -2.47698215653503 -0.9173372855850953 -2.4626163905499907
O -1.7701114086761454 2.64398679669703 -2.3415992585612844
C -2.1344794170607866 1.7105511733505925 -1.7558247134625684
O 0.8205729123706754 -2.659283277830321 1.6728626965526485
C 0.536547970746651 0.3378283834575257 3.938445969904927
H 1.1388911218682043 -0.06707308606296052 4.7433846168928335
H -0.17108744375048351 -0.3915724037442221 3.5528017251645903
H 0.014348167082900086 1.2365330887511037 4.250980592614876
H 1.4551264218864355 -2.732378612598569 2.4077296542931217
Rh -0.1397204681444132 1.889245149321609 0.40856270332455097
I -1.1351666125028006 3.538393300880609 2.217005040667809
I 1.8902734482849812 0.8985216810715554 2.3219601857068044
O -0.10573918548975815 0.47969495780485477 -2.1370115598992707
C 0.5499627465618371 0.8253730380560497 -1.1363820993436435
O 1.0766885283251784 3.827049262066264 -1.487240844180637
C 0.6301496015607799 3.1646702335643697 -0.6400770165587436
O 1.9058952544758065 0.6346473376807737 -1.2175522205132714
H 2.149253193066386 0.23467876054138603 -2.0758263401556754
Rh 2.949410847525228 -0.8715145842438425 0.7123968982847583
I 4.975940395626712 0.8080206816047971 0.6565424093477619
O 0.5654900362198002 -1.8289760340405672 -0.357876116065705
C 1.2982715275422931 -1.8985025733228387 0.6309518182124499
O 3.970488773164334 -3.431560825818453 -0.4359709844405451
C 3.6688650398425215 -2.4134870173817857 0.038941801556964
