34
## STRUCTURE-ID: 645750f800c5be46e46dc163 ; CHARGE = -3; SPIN = 1
I -1.4503051203062582 -1.6782282085751294 1.3512832647476958
O -4.717016503718874 -1.4157995289725909 -0.6956192901526588
C -6.911965322517143 -1.0018542945997309 2.1104815278264524
H -7.288660255003292 -1.829737481955693 1.5306253681789297
H -7.5281003009322305 -0.15404042221375883 2.3710019704721397
H -4.939677429553135 -1.8333848097050562 -1.5542673982677222
Rh -3.1268041503045154 0.3870038231052747 0.8758934503521875
I -4.881943276227005 -0.8935089658419295 2.4192368991477258
I -4.902862306676751 2.216478516460853 0.27256533623156537
O -1.2934592989868332 2.0038288818303402 2.595355957971824
C -2.182309433850854 1.3996973594847564 2.152725447328821
O -3.1222596613431453 -0.35119946596267304 -1.8331908864090334
C -3.700177584388944 -0.5423624032808343 -0.7577706789233902
O 3.265524016659211 3.1615000444378305 -0.9313440398894047
C 5.840109137105251 -2.11254703867645 0.7401518121494418
H 5.422087354067598 -2.686643285637739 -0.08042471091376358
H 5.3503502150874205 -2.366031551647672 1.675030183325182
H 6.918585961935319 -2.1921296274873905 0.8020467352026776
H 4.08730165278895 2.7993304814629827 -0.5569950065825274
Rh 0.8603160703984601 -0.6332234690680623 0.6280064233581081
I 2.2341420543619877 -1.5114830763968643 2.7094575241693946
I 5.39191797838617 0.003329664851165243 0.34055949833234
O -0.9100220531127743 1.3462502525445614 -0.44541392914971484
C -0.2159211556992441 0.33600760870808705 -0.659126580744384
O 1.6709719707939605 2.0134175598049575 1.149468993594851
C 1.7927943330577676 1.0321450564639423 0.46322782505466487
O -0.2755668092398883 -0.21292747504663706 -1.9379053840771847
H -0.9356843944946849 0.24394504241129064 -2.487685605127043
Rh 2.7723249092902504 0.2729494505344759 -1.1031777618830216
I 2.4409908577020363 -2.368200971065532 -1.2492261303481813
O 1.3302782616672095 2.634271573415011 -1.8427514925051425
C 2.348853793285714 2.1793207534367705 -1.318529448365158
O 3.3484293812603547 1.1315374791509638 -3.8906628458385564
C 3.3077571085081714 0.6222885280304541 -2.843027028267715
