31
## STRUCTURE-ID: 64579c93221293431312b087 ; CHARGE = -3; SPIN = 1
H -4.624730004253209 3.7128082041973927 3.576233283112514
I -3.402105436484803 2.699434382783769 3.277294309935487
O -1.4470894374929963 1.1455723227089607 -1.4359076986865085
Rh -4.42808284615873 1.040512697234936 1.0055026507503997
I -5.612210377785276 3.218306903240147 0.1784051057504075
I -2.9194327068312775 2.1059881264978557 -0.7923193176257205
O -3.007145910687962 -1.3534933465513053 -0.07258469211347934
C -3.5458786122166677 -0.4976934151309056 0.4983555870618369
O -6.462195662663285 -0.45535023302777633 2.614235711705711
C -5.72603772080041 0.19489106885096366 2.031874924230525
O 3.534420874577772 -2.111402117975563 -0.49894498854491326
C 4.198536356530977 1.3553302694874778 -2.2752597058092396
H 4.826495328189444 0.8314150426256446 -2.9862917315462947
H 4.471212087156049 1.1384318425787727 -1.247655969365746
H 4.186424334603767 2.4239304685778063 -2.4601408678888452
H 3.641889103009517 -1.7523440495504305 -1.3977428837958255
Rh 0.19928135278615397 0.6397483990134876 -0.14923601515785354
I 0.1799471185623528 3.0718763685299635 0.7625141855335478
I 2.1236786832955947 0.6189464828602075 -2.5396123747986867
O 2.883682190373359 0.35883720929477864 0.6996437212676884
C 1.6825870940884007 0.28945307042309476 1.0057228233637134
O -0.6832238745529721 -1.7763780458110952 1.205956761146654
C -0.20303915439577283 -1.1477817943243303 0.30113072736419955
O 1.386800856727787 0.11240284853757891 2.3438008945907205
H 2.206529068121463 0.051974836137123184 2.8709720154481797
Rh 0.8343764581725335 -1.6965469532204551 -1.3744784888674806
I -0.9500591610405191 -1.4354632881641491 -3.35393371280319
O 2.0725393322274717 -2.53049919414862 1.0916348032668024
C 2.2052691566278444 -2.1007574740150203 -0.05191976512082744
O 1.2333899577529992 -4.637042738997349 -1.2462628531454614
C 1.1441715525604605 -3.5151078926630066 -1.5809864392581825
