34
## STRUCTURE-ID: 6457518a3b63a208a46cdb37 ; CHARGE = -3; SPIN = 1
I -1.49467795451417 -3.5388132511149046 1.8686754545394966
O -3.1948792724457555 -0.686323149268568 -2.3577710032688244
C -4.490107160840283 -5.068050126934651 -0.6535955189547024
H -5.50510103733703 -4.871613199705629 -0.3556926608347505
H -3.939866413981042 -5.8933665700069415 -0.23831773978466675
H -3.4374835003845385 0.02526278376322663 -2.9861393516839843
Rh -2.0862103448328173 -1.6046592190016957 0.03447341365797705
I -3.4140633649274803 -3.5057313655516915 -1.4520390338086568
I -4.538893028360749 -1.0456224630353328 0.9886379978157177
O -1.5975868069762904 0.7894219195963995 1.7219089466733495
C -1.2707916253687446 -0.12077032406626226 1.0452821155038137
O -2.3628174227628764 0.9785458566094392 -1.1475661030517186
C -2.57574847408601 -0.23944866268467532 -1.2607573265947822
O 2.0905286260218046 3.8426074579946734 0.1013365758812445
C 2.0994075151767526 2.253861703185019 -2.5465103791826755
H 2.01771219472249 3.316619880752235 -2.738550728304662
H 2.1980203972854917 1.683892972642373 -3.4626152188876023
H 2.930235966990388 2.0484459368319707 -1.8822697562672064
H 1.1439621677185994 3.997410564527742 0.23191259953858656
Rh 0.6164022892982387 -0.4508734047633967 0.15601577169606332
I 0.13539615670910923 -2.2444793314503997 -1.9311927304605783
I 0.2801132772105682 1.6256178887870176 -1.5614519987097182
O 3.156127083503105 0.19216689630768857 -0.5332228337033426
C 2.638426571383875 0.1580806130985678 0.6051012984668838
O 1.8705684751292087 -2.6635861140553243 1.6284773512127395
C 1.24272650256753 -1.7970639322169961 1.1841362036913161
O 3.512944839632097 -0.2625577233900464 1.6007458231693057
H 4.412154209968548 -0.35496337598276706 1.2313915309166659
Rh 1.5895680388566809 1.4772751930366244 1.9116396261524953
I 1.1170864482246774 -0.1130119783578779 4.032828772632231
O 3.804222998966123 2.6369095861327145 0.7768545339246509
C 2.580056123266364 2.7443974836904514 0.8114435682211755
O -0.13695447965624338 3.791790676265525 2.6394839373168875
C 0.6095210038422958 2.8986267783659807 2.5373468624872153
