34
## STRUCTURE-ID: 645765f2becf24616f32baee ; CHARGE = -3; SPIN = 3
I -2.874450266170199 -1.4812140198496855 -2.2973454687880674
C -3.8555916885203017 0.09629242468890177 -3.540258428561439
H -4.611655380590862 0.5786292319284994 -2.9270375445944814
H -4.2966414239812485 -0.40370956348289044 -4.39467687630679
H -3.0967901669915165 0.8117620091975689 -3.8430457890643432
O -0.9507604421638428 -3.230405313940278 1.633926852844444
Rh -2.1057358321005446 -0.21458798570304902 -0.015491337260112672
I -4.3733327636464265 1.0283382188371655 0.45984200827366994
I -0.9998947262213604 1.7712062137408489 -1.3182003190095213
O -1.6651170857760704 -3.3991521520547434 -0.48243749126955127
C -1.6692493089500164 -2.8836679831722765 0.655431038157629
O -3.539440657178643 -2.0011732254935235 1.822610553223715
C -2.6791652068531437 -1.764691249591757 0.9802461301861551
O 0.09196864684556312 2.643400103006769 2.553455559435281
C 2.358827816074 3.8946614696820254 -0.8913927819379551
H 2.6436845849619446 4.6525191299372635 -0.16699238686417994
H 1.295237788983314 3.898552452398493 -1.1184162714632013
H 2.960429846037204 3.954399685537058 -1.796049399828673
H 0.9459869314087376 3.1168914705837536 2.6007945528962426
Rh 3.2089885197656756 -0.9504965305093249 -0.4610092913115044
I 5.389712972627772 -0.81150911223188 -1.875411617495048
I 2.8915560840486023 1.9090437528485948 0.008779715118736257
O 0.2817295920043293 -1.0130847943570518 -0.1087011511209574
C 1.3918507356225673 -1.268598884002558 0.393305269987416
O 1.5133838440846252 -2.45434001912812 -2.378118709048194
C 2.2291501732044803 -1.796144362282415 -1.7426897472053628
O 1.5244270917628964 -2.4061039215721043 1.1989394233231692
H 0.6502472691207449 -2.8304137542986645 1.364445854318114
Rh 1.931119253163874 0.4804560039280363 1.9690806553950961
I 4.364391450911771 -0.666796488611448 1.9422232360177187
O -0.9296616652878557 0.777553454700161 2.02232083907316
C 0.16042704347894093 1.3432963349341966 2.137818803323242
O 0.5987677189690896 -0.9814444944960004 4.2025986852545465
C 1.2155992513557514 -0.3994681011717268 3.4114554343010353
