39
## STRUCTURE-ID: 64572d3d26c58d6d214d91e3 ; CHARGE = -3; SPIN = 1
I -5.520372573372521 1.063885412973786 -1.6971851731429808
C -3.2653662250651614 1.834061394812496 0.9172415811259463
H -2.491035050904996 2.0854564086747014 1.6424589438712693
H -3.800840831531124 0.9344773920829396 1.226389641306922
H -3.9740071408453574 2.658702861646814 0.835005303375153
O -3.550010186660475 -0.5107016409019994 -4.041107973753427
C -5.237319131164203 -2.6475544009532395 -1.6826400291083046
H -5.0378338478715845 -3.6977188704652133 -1.846907418499692
H -4.359371449907713 -2.056298012375237 -1.9571399643243137
H -6.114261354842065 -2.304121768162212 -2.2160200563645
H -3.5017897492527776 -0.4221594278032899 -5.01395829612097
Rh -3.129189357628436 0.16403400617024874 -1.52785409605826
I -1.75292791941418 -1.7539347085442398 0.003202297242528859
I -5.598504744026294 -2.366689913876798 0.39573274818261667
O -2.849618161882367 1.637594742039644 -3.9107074542473286
C -3.1823212715101987 0.6009281654962031 -3.402363427191406
O -1.729637307822662 2.3331469350645713 -0.8996633884188168
C -2.6035795980341665 1.6722117185428655 -0.41403819877999976
O 5.95436200092757 -0.7843131703486949 2.798775977621114
C 3.4442496136997676 4.000417442501452 2.625732922433399
H 3.787201557835701 4.9735646488936585 2.2942254640249833
H 3.6143480397795624 3.8453101481200234 3.68433132686911
H 2.4053148797744095 3.8234488220329506 2.363262752254269
H 5.760321758268738 -0.060456399855802805 3.4189949152964094
Rh 0.7991713383803251 -1.3419707812827477 -0.5445858925551795
I 0.13341682291074086 -0.35806281765682774 -2.9456173751111647
I 4.641662404925808 2.492964498515539 1.5406996805770412
O 3.452983202935264 -0.13994759759736855 -0.7563249288193529
C 2.689339066906766 -1.0910557214900225 -1.0155103182519192
O 2.2298551429854596 -3.4337877422419796 1.032901766038785
C 1.5807662290464948 -2.588845418886436 0.5177700592320391
O 3.2298848531577855 -2.0698689593485833 -1.8369426370312099
H 4.167420065668718 -1.8750593041158516 -2.0316260401531383
Rh 3.3362287687289713 0.10213366273526141 1.7388784822785752
I 0.9378895066832119 1.1462959017900671 1.1937378232996947
O 5.22043556714412 -1.8005610459694028 0.9818605664594251
C 4.9732640276071525 -0.9414929108883666 1.8285162551415863
O 2.5414414856724927 -2.00447779920726 3.713163079986355
C 2.798429568697598 -1.1195557501212852 2.987311081314671
