31
## STRUCTURE-ID: 64571a988edf1c37ce67f9ba ; CHARGE = -3; SPIN = 3
I -3.910448393467671 -2.3074400909868173 -2.6049686884209553
O -5.781059306823412 -1.6886640446939172 0.4913079399532627
H -6.419216551286611 -1.8431819294652383 1.2232464731315138
Rh -3.5603471725365115 -0.33220606406143044 -0.6516941485689086
I -2.4551497134868523 2.172776964675873 0.0532524194465946
I -1.8510001195849977 -1.8274526941366138 0.7980038852340844
O -5.378214366588628 1.328638694781956 -2.317747217928216
C -4.746637707321677 0.6590511198642216 -1.6088478363828604
O -5.131293241769435 0.045841236295553124 1.7237291959486063
C -4.989333518969369 -0.633867960329908 0.7215399720106991
O 1.42608228217712 3.393560506191262 -0.555467086400512
C 4.945044347593437 0.4976829211441602 3.077525027565999
H 5.746321693491711 1.0517371388278987 3.553772707599809
H 5.258249557305 -0.47338971383551737 2.709980581065969
H 4.072905547343963 0.38963692523914495 3.710798400576382
H 1.7046499755627638 3.5999298179343633 0.35333418713279485
Rh 0.5403387873368465 -1.6612148393239983 -0.647789366148133
I 0.7852407940494474 -4.3027023016441 -1.3105358906340685
I 4.318217790660325 1.6747227185397817 1.3291400397647055
O 2.92093246791525 -0.24256276337828833 -1.3324861717572698
C 2.070363135298694 -1.0680788969550132 -1.705839679350836
O -1.3082283043248737 -0.06050871177285945 -2.3606581724758273
C -0.47202297802227333 -0.6184264016461771 -1.7580671617680834
O 2.2005381898445617 -1.5643940988075953 -2.94552023885565
H 3.0024531426982133 -1.222751367809055 -3.3961283643738587
Rh 1.848113258090422 0.6111612507382539 0.42467727116249826
I 2.247061490590359 -1.831897541582204 1.544398444636399
O 1.0041155676014901 1.7764782324436332 -1.9857590677904735
C 1.3227385446699818 2.063481580306956 -0.836360051700891
O -0.07221409376473252 1.2785753494480194 2.591903554937091
C 0.6617988957182086 1.1354649639975432 1.7112590423904455
