39
## STRUCTURE-ID: 64574f7a8f26a50d4d399e3d ; CHARGE = -3; SPIN = 1
I -3.067195446891222 1.9598907178783977 -1.340592532552221
C -2.643025887292737 -0.9727196397257044 -3.486767890722886
H -3.5412239201957276 -0.36212842222713854 -3.4105316271316553
H -2.1308629269919774 -0.7832258770981103 -4.431360767393424
H -2.9323259353766282 -2.0246963588083604 -3.4425288518625865
O -1.9086167925552864 -2.589340099455027 1.2627921604224763
C -4.844268065562506 1.1749532959075637 2.2383140961717993
H -5.504225315049731 0.37548222600627645 1.9086852071469904
H -4.907537817626625 2.0374454281262615 1.5786457526801807
H -5.006707454223222 1.4420542458470529 3.278632840602564
H -1.5500561311278713 -3.465322633271777 1.503914052911156
Rh -2.1854421137388877 -0.3466031748679707 -0.4738945992951518
I -2.7379837882815212 0.3980442385190585 2.1261666027653536
I -4.42995639862739 -1.576402629357806 -0.6247131921031955
O -0.45579819941662625 -0.6980044286685696 -2.624388970490647
C -1.6687830168623 -0.708555861503574 -2.347611271534564
O -0.475997960232709 -2.6796887051606486 -0.4528445945810848
C -1.3875732888282835 -2.0456237675310924 0.1254569058688212
O 0.5640813019841742 -0.7421459477662506 1.4201770433873857
C 3.0483648898286484 4.72760808210541 1.913134582939567
H 2.658697144698948 5.166267843066764 2.8305501249251255
H 2.93188090788467 5.388232965244154 1.056262405128351
H 4.072790190168436 4.374348650313025 2.011796163584605
H 1.8626268234856198 -0.4666049416742141 -0.14004757101639168
Rh 1.7379381295254137 -0.32629528532553526 -1.6316464364113203
I 2.0141296146315586 1.785685213477525 -3.0292939462027597
I 1.737114547074415 2.909104442092544 1.5016690316562367
O 1.989128566298817 -2.8254303345065064 -1.7400474858965769
C 1.8902242943487124 -2.020623483985918 -0.7909490964653815
O 4.197394789372887 -1.5712150837875252 -0.741735555473667
C 3.2666261889518555 -0.805398495982595 -0.5760082003959088
O 1.9771323797214952 -2.573157996941983 0.46081641824898933
H 2.04225467362778 -3.5433241925292465 0.36490201207912704
Rh 2.725798544369827 0.6359099915533009 0.5079254265721703
I 5.155152421860076 1.6206640876988476 0.2853562109347442
O -0.09878428216185316 0.8875714219184412 0.025642910723841665
C 0.7686861768601363 0.07750974019288914 0.47066609526756353
O 3.5918449636271603 -1.4769715588929822 2.2278962440359042
C 3.244498192722822 -0.35729367087859504 2.185560301476487
