34
## STRUCTURE-ID: 64570e4437f76d6ed3092937 ; CHARGE = -3; SPIN = 1
I -5.6759531364872915 2.668969080178823 0.8455662153946065
O -2.3311090122763556 2.7228245831106195 -2.9702079327488295
C -2.647058353023861 0.2835111894610921 -1.832561823410655
H -3.242708504346272 -0.10758235831346552 -2.655871630255854
H -1.6078563885641877 0.3540357157643521 -2.1510887173794226
H -2.4899562186916357 3.6321065192313364 -3.2376700309777853
Rh -4.297629929611622 0.44321076634522505 0.38632240862925454
I -6.068105809603287 -0.4468945725559056 -1.222494511424328
I -3.4330895411847364 2.2036405745297616 -1.3756116506478882
O -2.021514266240782 0.30024233828849056 2.2972872291835036
C -2.937655954516502 0.5650231958091005 1.6363039361641618
O -1.9922050885885436 -1.3129485744402554 -0.18785982800657502
C -2.8420414197651804 -0.4935306457185916 -0.551934247537379
O -0.2559923458257458 -2.4371650929360675 2.859435055934955
C 2.5415161046698653 -2.8082150282324405 -0.5986372557334114
H 2.361415931895605 -3.798747619662589 -0.20053927749161454
H 3.195083655401646 -2.248990559447105 0.06151594035480393
H 2.9557305618670777 -2.849164073499069 -1.5987769733420105
H -1.096115014136501 -2.0828632914666265 2.5280033765454504
Rh 2.0999526886179587 0.741856094624348 -1.3471018218356916
I 1.116391897231045 0.8044194432781938 -3.8134419718843904
I 0.6698137628964324 -1.7698976284550987 -0.6590300740752443
O 3.705038482140626 -0.21022890256435123 0.9148181872214828
C 3.011842955556659 0.6933833061200484 0.41774018309943844
O 4.999436456834067 0.4239570350933619 -1.916105868593422
C 3.8379075195523673 0.5209812565604367 -1.8212403023397363
O 3.1528725138673352 1.9477106960650463 1.0060927375227364
H 3.80033114295956 1.91136415466295 1.7342174906894203
Rh 0.49269705159487864 -0.061735617376214934 1.4135817937147055
I 0.02140877411814668 2.063107298456152 -0.18739124753140504
O 1.9216806024621649 -2.094096191952915 2.835128762925053
C 0.8303860145950731 -1.6624177337552166 2.4952404209009234
O 1.332495398191143 1.2882761676132866 3.9312779563133713
C 0.8929894684108733 0.8158584751831497 2.9650334706218473
