39
## STRUCTURE-ID: 64572f3fd6524244434dd530 ; CHARGE = -3; SPIN = 1
I -0.882639477949133 -1.0671715772556862 -2.4484270637467063
C -2.535761627508104 1.8217531328622967 -0.22211147860474414
H -3.0584779097744677 2.2667406569286417 0.6247949606735953
H -3.216549708129525 1.7699941319508434 -1.0859802118357258
H -1.669318336486828 2.436185993407658 -0.4744900587798571
O -3.0924083821846824 -3.4573670740552216 -0.47215560569777565
C -6.7136143113495805 -0.6595360893773212 -2.9733719593730243
H -6.911569764389909 0.2828673764330057 -3.473853469603752
H -6.940577354025913 -0.6119981072763626 -1.910887521721973
H -7.211105392327507 -1.4924996367887517 -3.459636806363719
H -2.949451230584778 -4.311906710469169 -0.021720779154389483
Rh -3.022209041741427 -0.8412570629348564 -0.8930024709824145
I -5.047722342842044 -0.6566087291008056 0.6635486709331517
I -4.482607389348942 -1.0315437779032537 -3.161118817015488
O -1.7793170111204708 -2.5460369803507574 1.111706250703311
C -2.496219759985567 -2.4048064529332436 0.13760111873483824
O -1.1592506622560832 0.24742053851639637 1.0096766310131415
C -2.0388828366163225 0.4514334466232393 0.2042876332624285
O 3.9079153455443376 0.15712551258667784 4.085168642255607
C 4.135202925522822 4.589970453865598 0.5380633391009824
H 5.03414869880188 4.9936276339347545 0.08541238776844128
H 3.7590769944610547 5.2201603541426715 1.3357188632236958
H 3.3658490214038674 4.37695150143814 -0.19943347061066774
H 3.702438172386676 1.0993122615760715 4.215516201468165
Rh 1.5284375356238071 -1.1299237468832493 -1.461765007503855
I 2.6259386518591654 -0.8788371269372375 -3.850930769686963
I 4.697515416350488 2.644119917408134 1.458612284562316
O 4.1162555038895645 -0.4872183145481616 -0.27635357491226054
C 3.3345980868230214 -1.3428879007601853 -0.7319106567422025
O 1.1944457523862335 -2.649958495800473 1.0807123355530792
C 1.1961589826109507 -1.9550737836854752 0.12042611820261065
O 3.8495193415594944 -2.6323785255577836 -0.798862708026075
H 4.75805823929749 -2.656693605778953 -0.439095554526625
Rh 2.766177471883144 0.7966672002247914 1.439573470116105
I 1.548007204508785 1.7914286829878876 -0.6930607936399231
O 3.972756577639367 -1.4476141401958715 2.5664098421744623
C 3.6358722595006765 -0.2825428585497106 2.790350859656043
O 0.7040809047967158 -0.48725005185146997 3.178087601686897
C 1.375229451770132 0.08535195410621771 2.4025015674400008
