34
## STRUCTURE-ID: 645754b0f878fd55897b924a ; CHARGE = -3; SPIN = 1
I -5.6217558790767965 0.9104045797395294 -1.0080599779323705
C -3.300108708665243 3.805700138317761 -1.5711303036178652
H -2.969905085159735 4.328992305355714 -0.6789723995302593
H -2.9900410689873502 4.3224836979624595 -2.4735543457481635
H -4.366808474823064 3.594092449890318 -1.571107901116328
O -2.8758624723649673 1.2488983785635295 -3.1425277247046126
Rh -3.4010905630118975 0.6554575188373545 0.3694644331276129
I -2.446053124862308 -1.7779150529046486 -1.1000027225590747
I -2.2428971337436048 1.9255907503106628 -1.5864502375235712
O -1.7577919440427747 1.4992827213701378 2.727867677217284
C -2.27851737174135 1.2300478450258043 1.737452055400208
O -5.0445542866168624 -0.7967241458124704 2.387106111097483
C -4.404153806457079 -0.21521468389566212 1.640510416707099
O 2.3926378501098076 -3.6861538290295255 0.07407594663509033
C 1.3859207462911354 -1.4035399364774963 2.8969535955228185
H 0.8756636620276359 -2.2914241045633927 3.2506053321789357
H 1.349233549342982 -0.6044985674277003 3.627807006428896
H 2.407641828293117 -1.6130971513265369 2.604091515389931
H 1.5960920429322796 -3.980702647400599 0.5476831612927098
Rh 1.9588933122921208 1.3976539395111507 0.04493556850994775
I 0.22544046421619643 3.406432756979753 0.44460118632422113
I 0.3669092172894767 -0.6973549047450469 1.1289329033762259
O 3.564180672564418 -0.860632448663957 0.7286760844432902
C 3.386488723468285 0.06282793826042804 -0.0783593416298198
O 4.370164455608477 2.465893167835313 1.429128624371096
C 3.359195120710732 2.166302110026065 0.9208214472208857
O 4.311758678779842 0.23633840951012355 -1.0619172646961057
H 4.961743460419332 -0.49250776325875795 -1.0632050767765944
Rh 0.24819280677949204 -2.1200865511290288 -1.1043943063638328
I 0.9671968428584377 0.46925843815901713 -2.4356390718739447
O 3.0491098265462413 -2.4155879800476363 -1.610243682486609
C 2.1017824965914644 -2.737542199198345 -0.9083799539962061
O 0.5161483170553516 -4.458671337718123 -2.945769199100242
C 0.3051458453763059 -3.5740038420561207 -2.2209995555881394
