34
## STRUCTURE-ID: 6457558c03b857137d671003 ; CHARGE = -3; SPIN = 1
I -1.3921531139983232 -3.6065931819705344 2.345455068242309
O -3.0156663700193103 -0.4303234962044547 -1.0236234280911798
C -4.429888986723269 -4.3460655254405065 -0.26214575318049593
H -3.969831713741132 -5.098598873226215 0.37057889463393257
H -3.8563608794982835 -4.190127968553499 -1.1738359491278596
H -3.3113254370366256 -1.0450339117631604 -1.7155473531101735
Rh -2.7131598365169296 -1.2214703901014694 1.8254362241185185
I -4.697317274135769 -2.564546179937887 0.7574123757796422
I -4.602735959316212 0.5749194843370191 2.2634095218455044
O -1.639268301229395 1.1548674528504952 0.5199121468485718
C -1.3947613949345468 -0.0654653890751062 0.6168230440201283
O -1.6140314941836347 -2.16410669452629 -0.6311725703306172
C -2.050336049503431 -1.0482815251795472 -0.24311959145370654
O 3.4631979874311 3.575424192314038 -1.8397566048251575
C 0.16620706309868535 3.703916812955639 0.22749545359895515
H 0.5279199582824046 4.641322800950907 0.6344362150167124
H -0.8789490698672708 3.539992504003878 0.46379784798980705
H 0.3150503036264992 3.644025785184492 -0.8462381510421891
H 4.064626065596843 3.93113040590139 -1.1607426965135454
Rh 0.44700794807426836 -0.4438314423600745 1.2750493032913663
I -0.8210775871403371 -0.13100999039184533 3.6882217937907265
I 1.2609064154584064 2.095225338098864 1.1141274800992125
O 0.035707592980168575 -0.015606516616257223 -1.5056899464618756
C 0.8371646080203091 -0.3842200109966909 -0.6501642969944589
O 0.8518101750829218 -3.114445005305078 0.20894566450386184
C 0.3266417539729615 -2.2739605141184964 0.8273539256200758
O 2.067452951682498 -0.7954995917463905 -1.044082239815997
H 2.175081332662339 -0.7081465270451225 -2.013380491897621
Rh 3.481477205216689 1.2567032212666567 -0.023182391795881278
I 3.1740239681044113 -0.4452459821495451 2.128359167170958
O 2.391305091401886 1.7520526960823184 -2.4644294386576022
C 3.1254850820547935 2.2845355471633115 -1.6391865634246092
O 6.394414108384851 0.8676725634153777 -0.6132310459663751
C 5.281383856712437 1.070789912183824 -0.4172856138809738
