34
## STRUCTURE-ID: 64571d4d8ebe5a19726f2ca9 ; CHARGE = -3; SPIN = 3
I -6.511877756258786 2.44002563014286 1.0703501613108313
O -2.7963656843167715 -0.9155831948345171 2.234926233709597
C -3.592205008837451 3.942202911254389 3.0708197434655746
H -3.155453528358948 4.923633898366385 3.015387957670591
H -4.666698371423869 3.889189967888627 3.1270033788749307
H -2.1467793051039608 -1.6562355408218687 2.2872976262985665
Rh -4.454142831971782 0.786484562875743 0.7542554518051889
I -3.9584429422527485 1.4176464055242364 -1.956173645890823
I -2.710369228041592 2.568526585640691 1.7444240060678007
O -2.5374901022649663 -1.297551961576395 0.047502945759341504
C -3.0863552373123424 -0.6180706103993572 0.9180266035805639
O -5.869951609080096 -1.8307204109779383 0.8128671290179088
C -5.429223763994705 -0.7467078493252326 0.8202743929443672
O 4.731879322156888 0.8280310267581739 -2.5944310067759426
C 5.338119358573416 -1.43993671039154 0.3122796140014795
H 5.485880328783064 -2.178575243733361 -0.46596880151847975
H 5.608468783106847 -1.8283771821080954 1.2876002602888112
H 5.8304021752148385 -0.49809877183082585 0.10329769181613994
H 5.240611256057123 0.0027652976691219613 -2.4912954896280466
Rh 0.15391164610247046 -1.299005084894263 0.5504518172878955
I 0.19954668402178688 -3.385397269857586 2.207580395607109
I 3.0805570410517773 -1.0227766855251075 0.4147598879548887
O -0.8350268201589549 1.3051061858633686 -0.17945271637965174
C -0.14501133282492515 0.34670653427109027 -0.5578617696675654
O -0.12368295307369201 0.7402116606028213 2.6958410048004837
C 0.03970610079305649 -0.11235104141523428 1.9254148318164088
O 0.385734014061776 0.4659805305212183 -1.8153397061609697
H 0.14513659381958344 1.3127342376725644 -2.2423049421788144
Rh 2.3881915961703775 -0.9452739411155936 -2.282231646969645
I 0.3724980341904108 -2.7874040455266633 -1.6608417334158576
O 2.6963199246210583 1.6695900222899052 -2.732904181689653
C 3.4081488747207205 0.6901871774081888 -2.6101174849320685
O 3.649007925643649 -2.786241133695821 -4.266514570266486
C 3.264956816186758 -1.9807159567200794 -3.5449234386040875
