31
## STRUCTURE-ID: 645799b79252937d87068a0a ; CHARGE = -3; SPIN = 3
H -1.8611051868972108 3.2034376183211823 0.06615827879560099
I -3.0773277153740346 4.181802944248887 0.19157628240210722
O -2.0177998565443804 -0.9385627033586055 -1.1978204991050503
Rh -4.686637274622935 1.4433123734332578 0.07685265402294154
I -5.607781564332521 2.144247937616023 -2.2213967546000437
I -3.0509458301458086 0.551382930435754 -1.6884029353629104
O -2.6967803126178693 -0.1786182807462631 1.595763710402
C -3.5765089823417773 0.4684948433645965 1.196686286733443
O -6.9231771669153 2.345082648133914 1.870103412415121
C -6.073813305535266 2.0092954615717495 1.198726403114791
O -0.29678847930661234 1.216345350313101 -2.0638077212128554
C 4.811154466677548 -4.377457261749259 0.5064143440525798
H 5.520982458154095 -4.8728646732535745 -0.1475447253266481
H 4.309818715350137 -5.069941681508675 1.174147957470373
H 5.259824570008067 -3.5523490914430935 1.0522819410770095
H 1.6146895113474742 1.2212612353131476 -2.147237244766787
Rh 2.0962489344108155 -1.3143673732544503 0.19420885051723752
I 4.163207241869099 -0.6064739027965 1.5800058035646023
I 3.2374604047799225 -3.5035144938472658 -0.8138934229290045
O 2.1486091708136974 1.0859535330164618 -1.3358621067035086
C 1.2504330349072488 1.322121906049971 -0.27979963450252426
O 0.994182525816278 0.7770964571985972 1.9936182283715016
C 1.2302291170951953 0.33267215833980507 0.8375421064729913
O 1.3411739894836017 2.672287266074607 0.11944926160815814
H 2.206789456176073 2.851156177500727 0.5257380030420961
Rh -0.4831756991062669 -0.7005744276245893 0.2319043309893977
I -0.022800996274945314 -2.792766668141608 1.8383789380473068
O -1.0873731338403905 1.6246617439448643 0.01816149570214253
C -0.18263547561716367 1.1511792161470027 -0.7891108751016436
O 0.6642738892676585 -1.418546876354047 -2.3824779981982207
C 0.7955734933155006 -1.275754366945305 -1.2003643709925627
