34
## STRUCTURE-ID: 64570e4337f76d6ed3092934 ; CHARGE = -3; SPIN = 1
I -5.683252624357878 2.688043176169586 0.8424730962263836
O -2.3159978629928677 2.693461882707471 -2.9593145767298203
C -2.635998475262768 0.2656999285721771 -1.7894752322845298
H -3.2307891520173784 -0.1381015709094708 -2.6070829378305858
H -1.5959529535416326 0.33108671875509027 -2.1086086482070834
H -2.4796288157252757 3.596904456763454 -3.2431378431020237
Rh -4.29936058528719 0.458583559077869 0.4187282585063767
I -6.055324467017648 -0.44600387939793595 -1.1982988217609716
I -3.42536544150303 2.192988900783474 -1.3646265315655728
O -2.0211246076041056 0.3897276017041887 2.333073705490782
C -2.945765678695638 0.6163326175104972 1.6714994279871624
O -1.9717901605054948 -1.2843140888318185 -0.10357983310199201
C -2.831188187356257 -0.4854839764731722 -0.49341853247057027
O -0.2946865283392714 -2.5049722873336258 2.687168224589071
C 2.5507767302520614 -2.811308078616592 -0.6286803071034539
H 2.366639784951927 -3.7942251534586666 -0.21362548315283636
H 3.2188004736099036 -2.248128927819026 0.01348959881883305
H 2.948568807005596 -2.8701130359373663 -1.6342668911950722
H -1.0912941969714878 -2.202415414136533 2.2222893194757476
Rh 2.110017698678855 0.7562780617477295 -1.3419955783047883
I 1.1293457632744976 0.8224784289316495 -3.809735945158584
I 0.6868948617719584 -1.7547250067635474 -0.6739302766577075
O 3.6844512229804987 -0.22819454949264922 0.9243808246422617
C 3.0108241492411634 0.6903737193533167 0.42656981045261977
O 5.012751288601757 0.4419092224566166 -1.8964973973626615
C 3.850680910653374 0.5405488535973478 -1.8092785501154802
O 3.165990696832383 1.9384108296344582 1.0219077372077665
H 3.803472916648074 1.8887695518795717 1.7580713923744364
Rh 0.47880978689661835 -0.05602144524631885 1.4069746237722225
I 0.030276737878879096 2.081778068843692 -0.1847199862912633
O 1.8438942599511452 -2.0409961608155873 2.969601217859321
C 0.7859664305497415 -1.6611911828889059 2.4901595588433523
O 1.318113040042561 1.305350095031729 3.919086794924754
C 0.8812441773568728 0.8274690846011846 2.954799781223971
