34
## STRUCTURE-ID: 64570362c4442561f819eb5d ; CHARGE = -3; SPIN = 1
I -1.5505332452703076 0.03501791508829269 -0.750836852108053
C -2.3304664955523537 -1.4366068555326827 -1.9536587291884453
H -2.457223744019484 -2.428976423115446 -1.5466778917649644
H -2.7771482371066467 -1.1808793544092477 -2.903031324310694
O -1.8847439699641142 -0.23883430894732316 2.3187596263569996
H -1.452188597219974 -0.48885484589692896 3.157211354438114
Rh -3.1544033771938036 1.690865557601822 0.6449197275295026
I -4.321516042676732 2.7947350587679987 -1.4583581977197702
I -4.963105264933623 -0.12378651457831431 0.9774668465170754
O -2.1517501840647575 1.7268094422294638 3.3398446897333565
C -2.310738350305932 1.0562197319636848 2.3095570188473458
O -1.2169738326871165 3.916745919097946 1.0611527522248112
C -1.93739563778229 3.0311433482323236 0.7951645657699606
O 0.6946661503077193 -1.5767949284012623 2.1564849904686603
C 0.6389860671628659 -3.3085744445196155 -2.8856203468796817
H 0.6813155291852558 -4.332789963275576 -2.5230297768521925
H 1.2686508254883155 -3.1380419467136584 -3.7560484184093
H -0.37672856487662454 -2.9528275211186457 -3.0505678606781097
H 0.811702513718786 -2.2449694495131234 1.4500065642107467
Rh 1.1705873297664473 0.5112183580206558 -1.551384950571703
I 0.5867565547116463 0.16928797527633363 -4.044223395490043
I 1.5041987659084817 -2.0486583461042045 -1.1848778702052662
O 0.19110270211836178 1.408617690554776 1.004213216302783
C 1.2808829439857512 1.2579084673677647 0.40434049628600355
O 0.4266998392558786 3.3723808535852666 -1.3096875017327492
C 0.7898103468328491 2.279791469617169 -1.5087855084028623
O 2.2336511142025777 2.2858180413196947 0.7171368581999887
H 1.8838300598703348 2.8399672001491143 1.4293965964138244
Rh 2.8144378208253182 -0.2285754594793362 0.5866127316188642
I 4.361332516360479 0.5446845720190501 -1.4029676163344118
O 1.5961860884098418 0.2226337779183155 3.0692857687329
C 1.60117967150421 -0.5332919548935487 2.0926189969109847
O 4.423068176088772 -1.6770784421264935 2.6242191004317883
C 3.9258705279499453 -1.204304620184209 1.6913643396545612
