39
## STRUCTURE-ID: 64571489db2b045fb21dbea5 ; CHARGE = -3; SPIN = 1
I -3.667096613991367 3.6233819712975506 -0.42714380143308545
C -3.1848282587644854 1.0717174299247338 2.2147750016948065
H -2.67359858351583 1.3905430084492045 3.114959588635251
H -3.731357411372942 0.15194153761296558 2.3989483814474664
H -3.8615316308463563 1.8422081029506154 1.8561680225881338
O -1.2450918590041529 -0.7810217606695541 3.242726446379738
C -0.3209743597987086 1.8733615101608874 1.9277765898831603
H -0.14291575314907293 1.4025253093784449 2.883876238481775
H -0.7764825662953394 2.8534189792878246 2.0320549266344243
H 0.6098650291286897 1.9542648809662484 1.3790771512282438
H -1.7799017717529986 -1.5710339952284096 3.3901312667365104
Rh -2.46513628812932 1.6129588827857186 -1.5328780123183006
I -4.174063890160361 -0.5085256627326641 -0.5533979370570472
I -1.5764156696183982 0.663694049026253 0.7819417462484595
O -0.7352539467355486 -0.2594762438557082 -3.11595389137982
C -1.4021660700625944 0.4014834300580822 -2.441265915325455
O -2.4257064542987634 3.01257248265932 -4.161112360948927
C -2.5247384233033943 2.476758109174394 -3.141521223706065
O 1.8942443577166843 -3.0673960500187722 1.7403901769022863
C 0.11874268555139697 -3.2175318049106907 -1.1298893794490372
H 0.3717988447856712 -4.083657831795345 -0.5297247029206836
H -0.4864363785632382 -3.4865250135998833 -1.9882646588347948
H -0.3810993862868358 -2.460613376374525 -0.5304772216355331
H 2.609620775440479 -3.6246682762780655 1.3877055192479273
Rh 2.147530685502125 0.19559508727105138 -2.763410818258792
I 2.580164706973376 -0.5089129232950146 -5.323037122551496
I 1.9670399713049942 -2.309382250721578 -1.872585237519101
O 0.394465306601647 0.1969700154948347 -0.5824857909523259
C 1.5139904552110945 0.734534275920283 -0.9437203113165302
O 0.4887734428010926 2.685395794192068 -2.6442367971980922
C 1.2269624253877576 1.7757629979054481 -2.8588295923426563
O 2.0730394002953796 1.659709829438442 -0.2845939086306307
H -0.38547366490470575 -1.0754942980230848 2.9130828901357693
Rh 3.3066083085507056 -1.1314580167990802 0.060832001836652654
I 4.8953629647357975 -0.12933209913490795 -1.859627220047843
O 1.1249648660519804 -1.017152250975308 1.850402673276742
C 1.9799116882296737 -1.7502375995017834 1.3576117167325048
O 4.48242884704524 -0.05652013904161262 2.5784783375202256
C 4.154754219240009 -0.5398580909991205 1.5732172282162034
