34
## STRUCTURE-ID: 6457205d78950e7b5464e483 ; CHARGE = -3; SPIN = 3
I -5.1548874410566405 1.8779166669867413 -2.0035432143576903
O -1.9807789682145653 -1.6651618545481817 0.542450113058473
C -3.8150257811225905 3.6536837576678916 1.5295601561279097
H -3.060031397516641 4.212147706590036 0.993001658163956
H -4.836214638346567 3.8932940891221213 1.2761956343661578
H -1.126900647323855 -2.0941693465604856 0.8324060457721371
Rh -3.2030058065991667 0.43932956123389744 -1.0132739655759981
I -1.4971820085466419 0.48982438414128887 -3.750133220971906
I -3.447966938577188 1.5780667825765962 1.4622846753100647
O -0.5295211414570689 -0.18922942716943242 -0.21355008277290718
C -1.7196453160245717 -0.5575037863984978 -0.20129417912146907
O -3.8020857478981287 -2.369279251048995 -1.8245929490009736
C -3.6936888998548985 -1.2395825080480185 -1.5711437013214207
O 1.068149468244639 -1.7566317410163956 2.8393947057563396
C 0.7564398483528877 1.6770699222862044 2.0197223445644776
H 1.0534700174624945 1.5484922257971456 3.053685488657565
H -0.11020997596586708 1.0579979691887313 1.808494569694291
H 0.529456535699273 2.715539430035008 1.8084605080689096
H 1.810814956083215 -1.4531637802589263 3.3903554448328834
Rh 0.6962982893585802 0.8249055566017917 -1.7354914619949977
I -0.5814746532620824 3.0755796274124547 -1.0761630017553425
I 2.376942581129375 1.044895838264977 0.763509502219495
O 0.5749086939435392 -1.928833647189926 -2.454060256532426
C 1.3357598717330517 -1.049069895467986 -2.066222648937422
O 2.665082607361338 1.8229602044218078 -3.7246984049076413
C 1.9158302070231061 1.4612480293413923 -2.9267333338791115
O 2.6263374117885583 -1.3902227280980326 -1.797127655255377
H 2.813367795345194 -2.318757265665595 -2.054288389401404
Rh 3.1854545100896248 -1.4012720190495163 0.8675770168107888
I 5.314124840052472 -0.15503065638642013 -0.05222917868598418
O 0.5841232798185306 -2.538829394221282 0.8335813489854109
C 1.452379426751545 -2.0158220593697043 1.5374785053975866
O 4.01765589057024 -4.1722639929853464 1.5992837626330143
C 3.7820231309588146 -3.0781283981852607 1.3071041640527052
