34
## STRUCTURE-ID: 645709aca653cb0a3a5c0b09 ; CHARGE = -3; SPIN = 1
I -4.990272447177115 1.5347138361926933 3.6367095208847084
O -1.7982032328486937 2.0938859545964554 0.47778315803880195
C -3.536222435594978 0.7029383870564229 -1.592878903547257
H -3.234177635338488 1.565093070416927 -2.236894520121979
H -2.5603384041079225 0.16274263149165064 -1.42970560063613
H -1.5881480936032448 2.6935879565205743 -0.23228383685005716
Rh -4.141258856440842 -0.32466741796845666 2.040837108040914
I -6.5180645621890365 1.1214913116314362 0.013774933563386117
I -3.7795999075037168 1.5790916033377052 0.28490794005216447
O -5.2310631236186 -2.3123382918097217 3.987195159304491
C -4.812997548502862 -1.5803931506649997 3.226187697861948
O -3.399609499520037 -2.159911900376367 -0.19662811942415012
C -3.7308079910603515 -1.5355197230853836 0.7103473148530943
O 4.743598911721259 -0.11127971359170974 -2.2308164978169094
C 4.981780087297432 -1.9855077037518176 1.6956653717096177
H 4.873936912476162 -2.9747830113642726 1.267787468808351
H 4.9139599525622515 -2.009170014880655 2.7774513673115075
H 5.878486506808356 -1.4802687472004228 1.359339499596159
H 4.952855675851334 -0.8657031913597102 -1.6492273570225997
Rh 0.3109121156824046 0.197627176929382 0.913293277178202
I -1.0924212261005868 -0.3832107987231192 3.111897610431403
I 3.1569309940530927 -0.7327236486676206 0.9974720376123464
O 2.1227138851318186 1.8749918641383994 -0.6641346260244877
C 1.1619612864683249 1.0713641941061913 -0.7161407230513769
O 0.7693700421541055 3.0455252700740694 1.5950402238527501
C 0.6148866933627438 1.8986532737115975 1.4420854984278204
O 0.19418686501716007 1.4200889204619211 -1.7182488884459375
H 0.584821766941022 2.129326921194267 -2.255198160979834
Rh 2.0272483520739892 -0.8932287157159706 -1.4307422947321395
I -0.05825150457848069 -2.158097868353678 -0.2470432307827607
O 3.1186873223562914 1.0296054866669182 -3.1726855926914093
C 3.4054866683448553 0.12600594764817505 -2.394517803423258
O 1.1348452911098734 -1.4162390493731105 -4.231937085902025
C 1.524767138772503 -1.3236908592880214 -3.138691946074781
