39
## STRUCTURE-ID: 6457182449f5860e49092929 ; CHARGE = -3; SPIN = 1
I -5.833849837586235 -1.4878888347586154 0.8132626564043545
C -2.3731489858429047 -2.61445898701229 1.148084689465837
H -3.242290902253147 -2.7494854968592617 1.786746421277811
H -1.4503849603434547 -2.78915285413601 1.6937314624335693
H -2.422031173192572 -3.2535699676288936 0.27188652899244287
O -0.22678133913890883 1.2940099406348495 2.1455912475429924
C -2.6361891038808523 -0.10690287444391317 2.6260783510099768
H -1.7983721658780196 -0.4554790430212978 3.216909405258617
H -3.5613019948387334 -0.6002127067143243 2.911272085200498
H -2.7253863093860624 0.9699175415982187 2.7205838566574054
H 0.23491670818698301 2.135490276035437 2.290700046106753
Rh -4.434115779141432 0.223164663367801 -0.5511147380437882
I -2.9780439719945857 -1.768764409365034 -2.206102179765919
I -2.237252387883033 -0.5718679129559558 0.5866780699584452
O -3.1059243124510987 2.7071521337040187 -1.5854978562398603
C -3.55989265614287 1.7414878850246567 -1.1650268554539918
O -7.020791390583457 1.105383377259144 -1.752546489132121
C -6.016569169038679 0.7941028702530343 -1.3045000647632756
O -0.6236615048909143 1.7647454736075185 -0.6946917136681654
C 2.6420871920777333 1.1854155074369426 -3.4157995453583854
H 1.7765005586377536 1.7788202807784872 -3.682319606665942
H 2.347824853219344 0.17031626619277251 -3.167648253417055
H 3.3980469227799457 1.199098182081992 -4.19054841690488
H -0.27278417891647033 2.613375021602289 -0.3801709924772154
Rh 4.970586623442693 0.3173978408513936 -0.09831283617823215
I 7.157343737892371 1.8067496124713704 -0.305682250741724
I 3.494968342356523 2.0006521285835004 -1.6093732846387976
O 2.930008514387191 -1.365882479739008 -1.2118738291139184
C 3.3730782528631957 -0.8743261607855762 -0.14830695170428865
O 5.868974091772717 -2.5255455375831497 -0.1504844809605038
C 5.673269112467944 -1.3681788911889474 -0.12425706381546187
O 3.1138317841085907 -1.621206067831194 1.020053543699919
H 2.492201415251283 -2.3317035435922397 0.7976907831679653
Rh 2.01251093150546 1.0202257572036357 0.3545444300150123
I 3.845413688234665 1.6568863847453872 2.205425403246799
O -0.0031183447825142018 -0.2849806714273203 -1.245363215158898
C 0.4044351353823143 0.7419306017339614 -0.697018396443879
O 0.1723484854330024 -0.8085291037220279 1.6025668453180262
C 0.6135441181661901 0.35181379759853515 1.4948331948899334
