34
## STRUCTURE-ID: 6457558a03b857137d670ff4 ; CHARGE = -3; SPIN = 1
I -1.3307194889684266 -3.543505188162768 2.2978020502900836
O -3.0133314420832473 -0.4356471065747908 -1.041597234407002
C -4.425944496816372 -4.3368990716668 -0.2051708187376637
H -3.947708292213352 -5.067981527828059 0.438095081177544
H -3.8689050259931124 -4.190363910858971 -1.1277006342984672
H -3.333647269565161 -1.0625335256311323 -1.7113955594430363
Rh -2.7347171348409876 -1.172442323195212 1.8098432979137073
I -4.717543445755122 -2.5417365484356167 0.7819655487026334
I -4.621008119184085 0.6137277295250737 2.2438999955439978
O -1.6214098005062951 1.157889566171782 0.4585877292924808
C -1.37766042289372 -0.061039118740137656 0.5822277642271546
O -1.6482118259094989 -2.1883570825236625 -0.609475583962483
C -2.056378316411652 -1.0531118737090868 -0.25221061291998575
O 3.4813114598232167 3.582239978127044 -1.8360939210379792
C 0.17380586202261408 3.717223787075512 0.20860865756475647
H 0.5255816096290364 4.657356352611439 0.6169741939106272
H -0.8742775064328354 3.551149798171357 0.4286419499964273
H 0.3394838521850879 3.654073121451331 -0.8622397270466876
H 4.105070911538773 3.923073194466369 -1.169891719188313
Rh 0.4456547370704165 -0.43607617602550536 1.2680994972312207
I -0.8366272151169961 -0.09995803713204035 3.668441196699544
I 1.2596766385590217 2.1135093289254803 1.1121297436849353
O 0.050319558234484106 -0.13556224562413707 -1.5382830794388827
C 0.851976958245084 -0.4374834388700022 -0.6553897758915576
O 0.8478818629970771 -3.09423746722202 0.23236924546209006
C 0.2822371912032203 -2.294295119564805 0.8849686817895561
O 2.0971668561153467 -0.8375112469856445 -1.0228755292233138
H 2.199694253062024 -0.8356569992541771 -1.9955922342807753
Rh 3.4788761127854797 1.261350117050899 -0.015497872216983753
I 3.1694852210263558 -0.4300974915347823 2.138575260933469
O 2.3368709625459307 1.7916049648435892 -2.425284366047571
C 3.1114010614663514 2.300306389207904 -1.6213191886843885
O 6.380174727413117 0.8635548952801763 -0.6525412161157618
C 5.271419966768376 1.0674362766313272 -0.4286708214793655
