39
## STRUCTURE-ID: 64572d0da1ee9a5981092914 ; CHARGE = -3; SPIN = 1
I -4.718358852678603 3.01561382443907 0.5304547150626315
C -1.8828505930991708 1.8351020330077417 2.5602772393873416
H -0.9026809396207404 1.4396656912912538 2.840119056361573
H -2.6313905497969188 1.0322697203820181 2.6508974155858263
H -2.1332259290494644 2.6547155902476085 3.2332707032302537
O -3.132599218850203 1.176795790236655 -2.6663944616361173
C -4.023394591150576 -2.2297475655246446 -2.001757922382384
H -2.951735627736163 -2.279128266630019 -1.8334432881588116
H -4.2544008983490125 -1.915197777727082 -3.012805287493941
H -4.522852130887788 -3.1527789122677934 -1.730871689400422
H -2.910613095144269 1.4228394386730503 -3.590453785301952
Rh -2.9035322593667234 1.2170219245059317 0.0628883804081079
I -0.907725659516527 -0.4883212755661134 -0.15349319060481803
I -4.779253552837271 -0.6781179455151967 -0.6663101568953397
O -1.716300857876622 2.7739434991502185 -1.9569440737157249
C -2.491812447492463 1.866934239179466 -1.7344633181596574
O -1.1400633477196755 3.3740250767607702 0.8470456022707994
C -1.7648001963291422 2.3766394690247576 1.1340506195753395
O 1.4602875446819268 -2.7338694685402563 1.8513282445937733
C 1.629258683563671 -3.01471023259908 -1.7416077944668993
H 2.274251545630439 -3.886451712618795 -1.7729889428042345
H 1.224368930803726 -2.7860414056546694 -2.7252490980948947
H 0.8282883813225583 -3.1135850419704996 -1.0128144799853314
H 2.01102635369468 -3.4279489202684985 1.4456209497313417
Rh 1.3061244984057452 0.8760867388241537 -1.1602702977483794
I 0.546524878922114 0.3815407437342379 -3.638693013549788
I 2.8819336238266042 -1.282859633276696 -1.157194825729243
O 1.2342111414667771 1.9437289467293846 1.5315911803180446
C 1.9024123682306069 1.4318282882594935 0.627196218581016
O 1.5315850687010424 3.852238718990524 -1.0786326562928161
C 1.3783494159196832 2.699768220322736 -1.2524003177909364
O 3.292157756401942 1.4129988137069758 0.8561209502586496
H 3.4972237950448877 1.8797899006855718 1.6883473709569559
Rh 3.904138725081315 -1.2211965717462412 1.249056536311426
I 6.214111920207362 -0.5525846782261917 0.17995239624966233
O 1.510458067372674 -0.6609321143413236 2.6082859246246795
C 2.1358405660314044 -1.5372531601980644 2.0080113446368393
O 4.5850151642460775 -1.9854183269140913 4.052344485958208
C 4.420022317946282 -1.717403658566149 2.929929266109139
