37
## STRUCTURE-ID: 6457a0f998dccb2a85630f1e ; CHARGE = -3; SPIN = 1
H 0.3809188728670251 2.6169971392496585 0.8688779657748327
I -2.1962043616384705 2.3572335090629033 0.963441408633756
O -4.11636675659714 2.72299135047227 0.7362160941906626
C -1.9963186922499179 4.459270982502826 0.42525481787976394
H -2.8328564984027125 4.7548534097169926 -0.1978232411572486
H -1.0742960664333818 4.54769622092668 -0.13664903351927815
H -1.9268865567778215 5.042949888733538 1.334735576320086
H -4.394225740114433 3.5040454317752823 1.242699553398345
O -3.178537051383798 0.40937042967684967 1.5429507144803818
Rh -1.9260652504570486 0.9477297027835069 -1.4061260197215402
I -2.759428771062632 3.0294865817929666 -2.762763730819258
I -4.155211245665332 0.7920795570374916 3.1349153493784154
O -1.7786135124825713 -1.6428754813609339 0.05625926501524535
C -1.3431276403152257 -0.708661417926429 -0.5341521330494943
O -4.441220836371553 -0.648139808791563 -1.1613815226683297
C -3.5354511345704243 0.037498548125213624 -1.3691826294526934
O 2.541311132366543 -3.7668053450917065 2.902516258269984
C 2.3433846229465938 -3.7029598417622287 -2.623273253181884
H 2.4320135816719097 -4.7824889571878515 -2.5350499694619435
H 3.2977827458871287 -3.1958791976977974 -2.4966470561614114
H 1.8577303710939779 -3.402759527616757 -3.550460437054502
H 3.3665822417825217 -4.1811925113261825 2.5910775009717217
Rh 0.47248598263038827 -0.26465126911634257 -1.1260487656949842
I -0.015826550496280622 -0.6234215944747913 -3.730543791504163
I 1.0192010454103657 -3.055952596516343 -0.9429555214078822
O -0.4374071181215913 0.2851927920252942 1.5770597578605061
C 0.545961161353121 0.18051432843539694 0.8189296090844971
O 0.5584585608794954 2.5879511675748463 -1.736491038708892
C -0.11725577934893126 1.657756097632359 -1.4575031405368652
O 1.7629242723818397 0.40749977609098115 1.4247435576053267
H 1.6349448798099038 0.6295251131133434 2.3643314043395547
Rh 2.9666864278364855 -1.70726789012236 0.727421644387891
I 3.153307082866025 0.07315939549694361 -1.384485497432137
O 1.0950378222623605 -2.1507379288931303 2.472705279326957
C 2.185635391870966 -2.672241694725043 2.2143022632100386
O 5.876087370023014 -2.3384313481544745 0.8651344012372291
C 4.7348459965500895 -2.19933501146267 0.887964360171181
