42
## STRUCTURE-ID: 645784b2da82fd566f462273 ; CHARGE = -3; SPIN = 1
H -2.8469662180409707 -1.0881464712775046 1.777486990124241
I -2.1439089758422902 0.331519879902498 1.537592552071012
O -0.3843465345560199 -1.9788495612065542 1.0849876048777731
C -3.1376360693986567 0.7713687497114601 3.6010902738682384
H -2.6984011519179316 0.09220470776554963 4.31782185249857
H -4.201927242816135 0.6117458903474887 3.491680050589569
H -2.913155374127619 1.7998857645959467 3.8492665744440133
H 0.1589965345674087 -2.7617419420613025 1.295566514190832
O -2.730227122542051 -2.7314255962121083 -1.8485854544600548
C -4.93841863875937 2.2490402601251653 -0.12774038207195135
H -4.679455409809393 2.8926147811490504 -0.9607008273910418
H -4.197940655824366 2.3306304526503268 0.6646260075736017
H -5.945643082023044 2.4216361312424133 0.23014038549973304
H -3.2050583604372793 -3.5704369499052078 -1.7013937150335503
Rh -1.6622570629190963 -0.41697013682949363 -0.9211376656842317
I -1.5099314929757355 1.9294930736021325 -2.0128798896596143
I -4.85127426183796 0.18827939721656575 -0.8481753182565138
O -3.051724256577679 -2.584813887450716 0.3657707649586944
C -2.566507347698761 -2.0634898806325337 -0.648863364315156
O 0.07451711641841696 -2.6610850930901098 -1.0035301970840471
C -0.5230408304836386 -1.8176606609633346 -0.28807274611677114
O 1.0535403507971741 0.4421187651340565 2.5987435221529367
C 2.343014783741455 3.4912101123268537 -0.45659382527619397
H 2.3641681966911428 4.0239179140455 0.4871301251154507
H 1.3853468617881661 3.002060858987282 -0.6055600654201004
H 2.5714826374935336 4.14259889320081 -1.2925576869390252
H 1.7461387568078726 0.24342067132993864 3.2507072571902382
Rh 4.373066770236455 0.11145130032803724 -2.317079847211642
I 6.439821710633503 1.4583731336385373 -3.226222396366064
I 3.841176330572397 1.931117604703349 -0.3878569435485828
O 1.556816751621794 -0.23188471131348393 -2.186422520021948
C 2.6483467161526137 -0.7543041772625515 -1.9052835138404043
O 3.3162084542388794 -1.4317849544461183 -4.6340635082767045
C 3.8628672742463035 -0.7855235225274089 -3.8192297833893694
O 2.6485204255930714 -2.1152093145687765 -1.5903820737730927
H 1.7142183910547164 -2.4180249875688626 -1.5045378722975868
Rh 3.2374780053193577 -0.3362267961681929 0.7436763131709654
I 5.735762446650857 -0.993649692525738 -0.007467974294924175
O 0.66581196675018 0.7926365869868135 0.4700470956855126
C 1.4709170204283757 0.3638931560157582 1.288451674790233
O 2.266741935298981 -2.9619123376632337 1.7573443322882705
C 2.712860651498813 -1.9180774113309793 1.4822076796430044
