39
## STRUCTURE-ID: 645708e93efd34414f763467 ; CHARGE = -3; SPIN = 1
I -4.196916511006818 -0.791558754980668 2.964888180057017
C -3.4415964228592606 2.4089150466043248 1.552354806494927
H -4.470279247577245 2.294145885255948 1.2168512765457637
H -3.4307247830667422 2.2910352625189425 2.638784225059881
H -3.051103239684002 3.396787547240084 1.307202950321784
O -0.5262382610511336 -0.5917356263922562 -3.690162150109865
C -2.0410225418454506 1.2928125526934524 -2.435685700388768
H -1.1909850682735865 1.469013899727894 -3.0801568386808147
H -2.014855310047035 1.962061544410543 -1.5818142381110414
H -2.9645945856063145 1.4221695002973516 -2.988291033529168
H -0.2528975484759075 -1.4610563649279626 -3.9807189418947946
Rh -3.075649937150179 -0.5334091268497486 0.6066997564843344
I -3.090709271876492 -3.163491711099259 -0.04664331666863585
I -1.9145503192221671 -0.731850980118588 -1.8151795586339325
O -5.520321223468838 0.31661675691056457 -0.8319595950567689
C -4.579494083274839 -0.0009283408570776512 -0.2575812215260078
O -1.3487980529249277 1.5761174269979297 0.774434468112536
C -2.5324301042275343 1.358729741663685 0.9771426306451371
O -0.9954115836835258 -0.9969428014875672 1.9905549016214408
C 1.1594683317104486 1.294725320124901 -1.317546597650554
H 0.21755379759657836 1.6644727152385357 -0.9339788351486749
H 1.020031241549931 0.31497040866479786 -1.771522109049808
H 1.562354669070618 1.9809495736616607 -2.057924446610414
H -0.9704253626176591 -0.875639303035296 2.9581349268489383
Rh 4.649268270144394 -0.13434461122106453 -0.5071568217732649
I 5.950152513222523 2.1037848959496728 -0.9316320849663996
I 2.483586818911061 1.0637393250378366 0.2688865826611515
O 2.7725729377951494 -2.0072762580566677 -1.605356691291661
C 3.4105939180175624 -1.6798079018867376 -0.593581578261826
O 6.496270112007758 -2.1870596556986914 -1.6129454215774657
C 5.860207082065112 -1.3276598167173101 -1.1580754461042702
O 3.217113370471826 -2.4296748474712735 0.5456677502769316
H 2.636886104997804 -3.1959742516239706 0.3740593815270464
Rh 2.0021220612450987 -0.5970808254666089 2.195365782498203
I 4.473174900017269 0.3316050026757989 2.591009556431576
O 0.25820943346393804 -1.3811543247682945 0.22113373338853815
C 0.27300040759832933 -1.0646731028903567 1.4125561392098747
O 1.49545674593484 -1.950676877019444 4.808014135311667
C 1.6709807421198926 -1.4406569231038284 3.7941714435359715
