31
## STRUCTURE-ID: 645713ff7a1ad333a1374187 ; CHARGE = -3; SPIN = 1
I -3.692652602351315 1.7288769837852618 -3.499351563390991
O -1.5509014471325937 1.9799889815229472 1.3773618025679624
H -1.7915143484405505 2.2249804793554135 2.274186806855606
Rh -3.319922509298803 0.7772353396085779 -1.103672338503839
I -4.382705545410602 5.404196978761104 -0.7603814242134291
I -2.721266639231973 3.2990505424469916 0.08705854281464774
O -2.424132479264633 -0.8368531097178503 1.2516437127491082
C -2.8654162585747436 -0.19538505087133395 0.3887248777912101
O -6.227699847521252 0.09865458713482045 -1.0016566356803709
C -5.116525196674124 0.37300682574175553 -1.0398149786016881
O 2.1483379550707626 -3.7240168301841075 -0.30646799114074136
C 2.2720416764591556 -1.6174011762570057 2.7481932363553656
H 2.093735669479301 -2.601537554956965 3.1637813987269876
H 2.574425245647793 -0.9092633999224538 3.5130018493241453
H 3.005059574616546 -1.6519842889752663 1.948691523735419
H 1.4319016577860069 -3.720473468620246 0.34626271368003797
Rh 0.9424622631549806 1.4466383173318997 0.744727448710254
I 2.2383923985566025 2.2009582958375207 2.919443209913229
I 0.4239947142077014 -0.9293629051382863 1.8854617306851644
O 3.2554602276049565 -0.36828025298233835 -0.1003925522638852
C 2.3426770837871724 -0.323078957692243 -0.9497300182509821
O 2.037926359929894 3.7772088151229903 -0.7094036034857943
C 1.5776286970956166 2.8997777765350055 -0.10148895221473578
O 2.640923261810697 0.3990884941620072 -2.1002420546689833
H 3.5738761086446678 0.6896892101481094 -2.1010916694220567
Rh 0.6076538969843882 -1.3053362541937177 -1.0810239565858442
I -0.6574537203973158 0.9874666158685093 -1.4258125140369315
O 2.7819321616617736 -2.854704190611577 -2.2256157840112363
C 1.9674405131118033 -2.750906453278273 -1.3136694182331823
O -2.1580891178553054 -2.3450150416899715 -1.4827239512788362
C -1.0075897534563796 -2.1532193082715425 -1.3459994479253479
