39
## STRUCTURE-ID: 6457318f0e67492cbd233633 ; CHARGE = -3; SPIN = 3
I -1.7560800646026518 -3.1985770066021626 2.6364264078009585
C -0.8075681915117535 -2.5490380356469218 -1.9835641263009534
H -0.45003960338722904 -1.531909568171067 -2.139191735358491
H 0.03779235545420804 -3.1719728693211273 -1.6795755299401722
H -1.2184190705995888 -2.943133910688857 -2.913684656618755
O -0.8796807917555143 0.8659843375170596 2.079045119250353
C -5.923860446012905 0.20080273320249048 1.237595863142162
H -5.843694336639954 0.730011599596981 0.29426957161897616
H -5.30533134659522 0.6702792024752366 1.9941473241941023
H -6.950431535219641 0.09459260204941157 1.5638772260692917
H -1.0076206912643848 1.5404145680584798 2.7829915048989933
Rh -2.1328975279819695 -1.4219969057737278 0.6738084471095166
I -2.6882709001271663 0.5258989310862154 -1.0634533713267114
I -5.119950557265621 -1.805154876988138 0.9341108399351068
O -2.9548349384084505 0.3589673224587831 2.6864589873008953
C -1.9909791684173823 0.08328361729677349 1.977963603518626
O -2.6883711714983725 -3.5538245784171716 -0.94413006842486
C -1.8656506433870959 -2.6392656004475716 -0.8828276192284995
O 3.0758288051941673 2.98725338077633 -2.468268859437844
C 0.7837872000404715 3.3905289826657024 0.3571928102612997
H 1.2327068876149982 3.961790345291195 -0.4475128652913389
H 0.44064703640080966 4.028088382340402 1.1639026788664428
H -0.020833312510132984 2.770939826044992 -0.028179579870267313
H 3.6632610628127837 3.511270481866402 -1.8949334010516485
Rh 1.6992304897678687 -0.5841751010834145 1.6140074483563411
I 1.5688782140093176 -0.4070666629555552 4.253299731299534
I 2.2770899971276113 2.0380469250647453 1.144252898684291
O 0.6859910373453231 0.1535032145360436 -0.8697665926021034
C 1.5630646204816243 -0.5252198190884716 -0.33420293625919667
O 0.968669024503806 -3.2550333171040715 0.5610898118890002
C 1.0626207850349583 -2.230983075772396 1.122406500510989
O 2.375771554981176 -1.2937783602946529 -1.130363325043901
H 2.21945127320818 -1.047896187952888 -2.06578484246931
Rh 3.944098494700871 0.8994333831775349 -0.5946408456544245
I 4.6162297299602075 -0.6192349597692373 1.547564986201423
O 2.5013498634238545 0.910491091031114 -2.9566511299749436
C 3.1065138932594625 1.6529214258592992 -2.191896906221598
O 6.336473021463597 0.6505552767824789 -2.380506114531984
C 5.4450589503997255 0.7532032068996809 -1.6552772553013193
