34
## STRUCTURE-ID: 645764a612773b5707493a70 ; CHARGE = -3; SPIN = 3
I -3.1274317231088986 0.8340140566568354 0.5168192241302048
C -3.476267566103369 -0.43027219912579234 2.3822905105482683
H -4.534190303444191 -0.7122942280450928 2.312509587657314
H -3.2744472588378093 0.2263917953243923 3.2455637653469585
H -2.824696181298674 -1.31466317469115 2.358672157669995
O -0.7004721976436981 2.2359399228760006 -3.6873216514783027
Rh -1.9902445329834946 -0.010354150380421152 -1.6807853776360118
I -4.078015683965993 0.8923979378302709 -3.167136085808923
I -2.755488902499305 -2.434446733677531 -1.1435169783672554
O -0.6549105932366427 0.03638939634025874 -3.463514197957467
C -0.7576010795944842 1.2019904146653781 -2.9418163488820266
O -1.6491114183575288 2.8815707254193033 -1.4266887508132338
C -1.1021956563722592 1.70121372396352 -1.4836536955536093
O 2.9324878020464125 -2.7725580500309652 0.020041079201966322
C -0.10185539059903807 -1.3523545404146775 3.5508692247567852
H 0.8622856874186287 -1.256967772444213 4.050928291437653
H -0.47132709064118344 -2.3844395738928896 3.510979764551168
H -0.8308237979299117 -0.6558430858713692 3.984745253575418
H 2.830074922709654 -2.787438054795583 1.006639362557881
Rh -0.4844195599554819 1.6714436153073475 0.43603727175460505
I -0.9053651167328165 2.195068989201931 2.9476130989611313
I 0.19512469793378193 -0.8540266080695003 1.2968617918045546
O 0.4056578338120364 -0.9107477032937539 -1.3935766113230856
C 0.8669457108855095 0.20778187199909984 -1.7765797475952991
O 1.084970812980553 2.5664504110178665 -1.8344904763436736
C 0.37458863064580095 1.5471393623801861 -1.429159644883996
O 1.8048648163831311 0.28810457891363267 -2.6854271360373416
H 2.557041365850239 -0.9980966004497103 -2.377576690226602
Rh 2.443709242457268 0.1672534817971776 -0.014073501040754745
I 1.9899299845245038 2.609056310153857 0.9861327250372898
O 2.9538369347270694 -1.8164274679287933 -1.9193678569673667
C 2.790385589372332 -1.6484126175075617 -0.6149498561691733
O 5.3672748996772945 0.6868685355216955 0.1989729464761963
C 4.259685121880727 0.39026743125018 0.23395855161666732
