31
## STRUCTURE-ID: 645701ba5d087d7d1c64e47a ; CHARGE = -3; SPIN = 1
I -4.95261782232868 0.3909935738967803 3.4661045078397823
O -5.5436562478175215 1.72072061153959 0.5692894308408997
H -5.765517649512006 2.4921401333756386 0.008978774477326418
Rh -3.7938996576163553 -0.4192623970336767 1.198483356742168
I -2.132299160642944 -1.2083846084980252 -0.959156176345507
I -5.930737158932136 -1.803594045153545 0.2578065613673677
O -3.6574997964857174 1.7331397123987264 -0.6091099222555167
C -4.345379188889679 1.1926124735833978 0.25330782745303665
O -2.056294125618873 1.7319306110889436 2.090858780539224
C -2.2070369575993465 0.6099487216881109 1.6888264880411044
O 3.194315861058194 1.7812142913753886 -2.686807820520604
C 5.114369525276085 -2.6106185339878776 -0.8323657909425864
H 5.228214094703842 -2.719283399444391 -1.904157724772095
H 4.255855044263719 -3.1596435647231207 -0.4544987355830316
H 6.024927417146087 -2.848626939966303 -0.2939436276275054
H 3.767343315861661 1.0048425536733803 -2.8438163466754607
Rh -0.7270287325867757 -0.7546988164240473 1.3247707170797363
I -2.461254127195728 -2.6083389947009046 2.5732856461398868
I 4.694831535305399 -0.48394745903542674 -0.4446739198348364
O 1.5189323709339033 1.0333587546675171 0.9264911177140005
C 0.3923142068478036 0.6953290972135742 0.45146971821156956
O 0.3839168497465005 0.638272613276613 3.6931675353916438
C -0.0007915217240435126 -0.02178868478353203 2.8265855782722977
O -0.3968021064289795 1.6427313443867275 -0.15810059980931554
H 0.23840064405678105 2.242895264004793 -0.6479347291289522
Rh 1.9213954036521868 -0.11183079313354825 -0.8637673302772926
I 1.3817932670597197 -2.389698845035935 0.6219648627434233
O 1.527619669679823 2.6167253943448285 -1.5550629934231222
C 2.1978259492643266 1.610882586868618 -1.799114663608093
O 0.7954875902682366 -1.1802219948983907 -3.4246845999637308
C 1.3332715082544493 -0.8177986605632025 -2.4741959220861816
