34
## STRUCTURE-ID: 645756a403f55b0309390831 ; CHARGE = -3; SPIN = 1
I -5.337574841401493 -2.691878428952987 -2.1384870773514333
C -7.269955510965522 -1.749970787485786 -2.5663257515196523
H -7.057431727553378 -0.8098478423686187 -3.066855043362152
H -7.760519213280486 -1.574137978404057 -1.6151196628839697
H -7.820776680708531 -2.4348250908342193 -3.1987345869626895
O -3.0228613897552608 0.7610567746020804 -4.5707707824682515
Rh -3.661069432460982 -0.18268816555626322 -1.0853074198873007
I -5.870615484556169 0.7516319237678522 -0.13671326078087456
I -4.33724556622528 1.0062511817611526 -3.2646006622192316
O -1.2374024128275167 -0.6055670285499688 -2.772923624207158
C -2.130510207957172 -0.5281450454425314 -2.039923260664551
O -2.318965423457952 -1.1250805162146293 1.4106587973549634
C -2.954970422432577 -0.8172709380243727 0.49166992267439164
O 5.881527363877171 0.8411968937369377 1.7388639761568914
C 4.405716278146246 2.9299435213661185 -0.6778283155983987
H 4.788073467148902 3.870824042079598 -0.29478895004168304
H 4.0078016595027846 3.0428657274073814 -1.6804061744681662
H 5.150526566777393 2.1412881944922635 -0.6390294953340088
H 5.690129812931121 1.7432039559063086 2.0541309021160328
Rh 0.42007844548169987 0.559785405938136 0.740258654666579
I -1.3858429228004852 2.3436697265682462 -0.14346818908971792
I 2.7192903760005054 2.3197813117489527 0.6450785205660972
O 2.6687409757885696 -1.036504356195838 0.16257652669767864
C 1.7970077046082453 -0.8154966881540325 1.0266425003655997
O -0.1515837053311319 -2.0178484080186823 -0.6367453075179078
C -0.010922632549294882 -0.9087837122274035 -0.2510273421012212
O 1.5449706714733757 -1.838333528523448 1.936430401944481
H 2.1753849153417546 -2.5629511207416558 1.7774535129622715
Rh 3.1111179418401593 0.5658340161895188 2.591114262914086
I 0.5930334970609754 1.42777357575673 3.304441129452136
O 5.1225551414928105 -1.225628903822702 1.741458700267194
C 4.874366880523181 -0.0554763194113046 1.9845965921526274
O 3.8249681561653794 -1.000827439998736 5.035469640591032
C 3.5529577201029423 -0.32384395239411634 4.138210865576379
