31
## STRUCTURE-ID: 645700648340081a0640f1ed ; CHARGE = -3; SPIN = 1
I -2.745754116438794 -1.8669780627141082 1.6854040032221556
O -5.289499956379011 -0.10724674137702532 -0.5250410325948544
H -6.274977629743575 -0.13601085194793328 -0.5114276199847252
Rh -2.7060190549343726 0.47268261012631696 0.42037428732918775
I -2.9915527847060313 2.855851679118986 -0.7464646440176333
I -2.392583508887271 -0.7755523666591853 -2.0065803809871383
O -5.310058966168884 0.8573976734027098 1.491090720275844
C -4.738886428815339 0.4248735357851534 0.5221914611859164
O -2.15049653467826 1.8411234237677327 2.996458011844812
C -2.479199982279437 1.3314757966809843 2.0243597054677673
O 0.22876258251120832 -3.469077837329856 -0.25284385777303187
C 0.6648163131758628 0.08532005758177451 2.196987406672273
H 0.19739051396712207 -0.8308951278193731 2.5472132279660897
H 0.3969427318583824 0.934673791759974 2.8196278072899545
H 1.7424633180624083 -0.027550164789146486 2.1658107099866846
H -0.5519858430250012 -3.5594906928393777 -0.8294806038425636
Rh 1.9235004258153703 2.0495861521927967 -0.6103317114863309
I 1.7728703501236376 3.7647798491078053 1.4000408828679143
I 0.029732727144523415 0.484752746881155 0.22340516113813289
O 3.584086441622165 0.5488898839855804 1.059851949471572
C 3.6062019942192904 0.7681345889528862 -0.1756258614394939
O 4.819695330581059 2.696150750371578 -1.130263847660175
C 3.8056284550320867 2.1074692946309903 -0.8047810207891072
O 3.5962692703551036 -0.29586609629480504 -1.0394264296766862
H 3.250257801082056 -1.0872478191490476 -0.5549925248397837
Rh 0.5357184885712485 -1.0068943549770335 -1.8442377276084319
I 1.1665640133679243 1.444299490328294 -3.156719235675921
O 2.042581222451085 -2.2962198087546533 0.1511328213132533
C 1.0186931880919972 -2.4040856696655797 -0.5340498580082066
O 1.9204208758041996 -2.709728559407977 -3.878274615097816
C 1.3284187622196106 -2.0946171709495434 -3.1034071845490496
