34
## STRUCTURE-ID: 645754b1f878fd55897b924d ; CHARGE = -3; SPIN = 1
I -5.612203004654816 0.9322888047402372 -1.0203236683723178
C -3.2267708454982125 3.792291136493736 -1.5563670791838051
H -2.924627993949378 4.3014914907422535 -0.6463671400141103
H -2.8763419842386666 4.315129740976827 -2.4401305120980825
H -4.2954602775634 3.594956591294748 -1.5996162091220398
O -2.846270273890725 1.236095300079588 -3.119937843524756
Rh -3.4099406015711717 0.6422992847151363 0.38068142803011235
I -2.4563157113209946 -1.783498964749289 -1.1112100665425069
I -2.2076443798555614 1.8925923081176335 -1.5575880841988547
O -1.770664852700861 1.465694503997545 2.7501356112468214
C -2.291895782387692 1.2007842774922168 1.758677886950673
O -5.0920243124846145 -0.8104832710234995 2.3660233407056515
C -4.435502227558775 -0.22872436622604636 1.6337439068395183
O 2.3510198001698077 -3.6813639918967347 0.1209310399563193
C 1.3134445220203155 -1.4131920002553864 2.872557938807156
H 0.761597722546396 -2.2873362980665775 3.1975124366946575
H 1.2832795280011644 -0.6244752846375532 3.61512113867268
H 2.3355947615423416 -1.6552303781277158 2.606024439329636
H 1.5405032184052727 -3.9772415977889564 0.5695043171375362
Rh 1.968778404910696 1.401720293117646 0.057528164536095994
I 0.21720114962833598 3.3978717393038975 0.47626205180154535
I 0.3789247246532751 -0.6463600409730381 1.0812998710088548
O 3.5765214840976403 -0.8384768288210895 0.78642407833552
C 3.3971603360519587 0.06719253595955807 -0.03964241146712783
O 4.426848584144436 2.576062867487577 1.2662979954517548
C 3.402455557590266 2.239540940984728 0.8117089839186622
O 4.311772043100943 0.21466147690164675 -1.0354791968306651
H 4.955548165686638 -0.5194883958611084 -1.0313288502815612
Rh 0.24440478309576574 -2.1073708484891727 -1.1142328901491312
I 1.0025658295101754 0.4661230541862046 -2.4755522752313484
O 3.058063226378716 -2.4185359017351655 -1.548161601929788
C 2.090333592107209 -2.7349200753132727 -0.8729808698509576
O 0.5200585474663982 -4.447742021422292 -2.952542068987924
C 0.3095862665669949 -3.5623560812043165 -2.2289738616380297
