39
## STRUCTURE-ID: 64572405e70b01054c4efcbe ; CHARGE = -3; SPIN = 1
I -0.6863085621964076 -2.3838221969322526 -2.027167696000846
C -2.0632229378063807 -4.177544074526628 -2.4281821887515895
H -2.7617663235775303 -3.8756102968891746 -3.199403561395932
H -2.563690612118537 -4.4291680564283284 -1.4989129128277587
H -1.426215569657165 -4.986789825287006 -2.763321829794872
O -1.7624192430827386 0.6731397557518689 -1.2520366399357106
C -4.373756547574684 -1.2756865383649418 -1.3126827719427696
H -4.449448308794346 -2.3285266188863294 -1.0779346169183461
H -3.941835562944678 -0.7335435611857011 -0.47546346033238934
H -3.7869132126339733 -1.1118578310264278 -2.2075135902701173
H -2.2258462780910535 1.5270947430385235 -1.1816119003175571
Rh -0.8328598372077517 -1.377943920340533 0.39014623788535047
I -2.4711792312612615 -3.135036499823138 1.396890111446403
I -6.322271834854057 -0.5363533873053249 -1.6450738251627004
O -0.3527242208666502 1.8371538062839439 0.019095177901215687
C -0.5267557432915164 0.7489937043891725 -0.5769033113170807
O -2.0235145201656453 0.6361544474432591 2.1598903104946143
C -1.3562609514462398 -0.1445102101912038 1.601807394438316
O 0.764614587090377 3.1570658522784942 2.9309306888825843
C 1.6525338077023024 3.879936208343626 -1.0561087006714616
H 0.6609600642495164 3.8068206301118996 -0.6242606397000052
H 1.6059878639977936 3.7870657873076543 -2.1365482918372702
H 2.148275479517525 4.795876354737838 -0.7574632209460065
H 1.4234296465878267 3.840524484753252 2.721056718713877
Rh 1.112605620571652 -0.22642476120203983 -1.175483572560443
I 0.7663943154524251 0.953448331006812 -3.506522028079535
I 2.8277887081821405 2.2138006586253502 -0.29862212658245474
O 1.4193929346521463 -2.694143256317169 0.4322217145622742
C 1.3870822006594725 -1.4353963228507998 0.43354995358615017
O 3.617096454735497 -1.8255495261557966 -1.4102604051283336
C 2.6757200778537222 -1.1528322999576863 -1.5021726491581913
O 2.2052795936998493 -0.8806392675398672 1.4297943085006555
H 2.5917190200914826 -1.610078066953072 1.9475255901120492
Rh 3.1053482564649735 1.5069184159101476 2.199007404563528
I 5.452512627489466 0.6544629994398361 1.3723077392412038
O 0.5345736868084818 0.96030293801351 3.1254243755890445
C 1.2894841309566227 1.873701616188221 2.7941191350476173
O 3.3272072936602815 1.7993106477874226 5.159022179182508
C 3.3589831271479005 1.669685136754556 4.000860899484013
