39
## STRUCTURE-ID: 6457506958c45e22ae6f2c94 ; CHARGE = -3; SPIN = 1
I -4.434229212469982 1.2978500077791302 -1.58169945495857
C -1.6013069592240805 0.007844100693188907 -3.168423212697558
H -2.3701447365818806 -0.7387216200129829 -3.3842956390314307
H -1.8345609817186577 0.9345776547889263 -3.6948456347061502
H -0.6403331402443599 -0.3679734932137212 -3.527460572451642
O -1.6678783132764234 -3.072057554036232 0.7338419697564501
C -4.018484781392863 1.7840155915345433 2.4211175242719163
H -4.706919020660633 0.9759658911526287 2.6491207552551645
H -4.418410838593991 2.4171730934832603 1.635233122705151
H -3.7562199689454703 2.350708946698026 3.3069806409118447
H -2.2384300872026093 -3.8355904952313167 0.5351737115031135
Rh -2.745050135654364 -0.5587769010561229 -0.5221928555521727
I -2.150630227049705 0.8727214826183584 1.674188652445348
I -4.764042816239474 -1.8464392926572453 0.8100078960448199
O -0.6343691698132913 1.1630160585089675 -1.3212813107420538
C -1.4594663777231962 0.32076090856968886 -1.672057151655931
O -2.2304979161106084 -2.5850471716590886 -1.4345051369900976
C -1.5906405331943265 -2.2057269052221766 -0.3961760219090816
O 3.7926552024265345 2.855573765929345 -0.7724851535721876
C 3.471006060362046 0.9944430517178807 4.151529784797781
H 4.222976328180429 0.6113726479898315 4.83222511456501
H 2.580213584088016 0.3722486096223578 4.131879295411984
H 3.235045192870399 2.0348501149120684 4.339771585402593
H 3.8405878760524605 3.069605686406862 0.17908345364634087
Rh 0.5304185684123206 -2.3972443585419203 -0.35729332408146497
I 1.641872916293818 -4.799637018141791 0.3436085219741723
I 4.33951533940241 0.8863172448666282 2.1368038995349243
O 2.895879814296679 -1.0961106480003941 -0.7529347500104344
C 1.691672859601916 -0.9254423627483969 -1.1348647111564074
O 0.1569187780899497 -3.1095387341857466 -3.2173671059940694
C 0.30172239224145553 -2.840088376650255 -2.0946250919490472
O 1.4800146027775414 -0.5277040205339484 -2.437660327848051
H 2.1698777907337234 0.18179027076918833 -2.602930431616828
Rh 2.1903416162336615 0.6421125251912373 0.2788073759271005
I 0.9538166901215254 -1.1725309995502071 1.9362147187158856
O 3.1325995918911804 1.4385447536111617 -2.290052466775778
C 3.092735586083772 1.7466395279798526 -1.0963234277761296
O 0.4306678454415392 3.0181354272488545 0.7550923509987936
C 1.1110765804947405 2.1023625893695566 0.608793407606654
