39
## STRUCTURE-ID: 64575076a24df90214242a24 ; CHARGE = -3; SPIN = 1
I -4.115038710981968 2.655712530773889 1.6126380653539887
C -4.254259598256841 1.5032674649610123 -1.8327229502737052
H -5.01730311355733 1.5434732677062162 -1.0606502719064168
H -4.349824452211175 2.3557783083893553 -2.505237357984396
H -4.380192289578877 0.585019837414982 -2.408721898252346
O -0.6016103769244322 -1.3750792500101905 0.4135913225464638
C -3.698868601473646 -0.3302046684899131 4.17858391433011
H -4.284771400325632 -1.0380069027944612 3.5997364656355075
H -4.1981848475268 0.6329802503744346 4.217428490422911
H -3.482000290160357 -0.7078384183525416 5.17017067817866
H -0.7869331541493051 -2.255951447645592 0.045247692699675254
Rh -2.3707489764332523 0.869098557112269 0.5115139849368195
I -1.762159245452393 -0.04971899056289255 3.1481045042717524
I -4.131547176408631 -1.1939730758529479 0.3421310520093347
O -1.9521048631972029 1.8897004810890143 -2.0646274323839293
C -2.832171658895625 1.492318922849307 -1.2890484846180985
O -1.402632283306485 -0.9158564522323371 -1.622563956451968
C -1.0370136566427048 -0.41200116075007576 -0.5376097254279284
O 4.3241219694830715 -2.262949259172107 1.450805316811014
C 5.289594519287681 -0.9696653583891565 -3.518348905865228
H 4.277288312564203 -0.8480974330870196 -3.892492706409685
H 5.616986558758174 -2.0016949379992375 -3.549280522829994
H 5.984352437850895 -0.3037773127317651 -4.016483476852156
H 4.671871871223363 -2.6017278787862317 0.6051047236670041
Rh -0.05763252928826832 1.3793325127981928 -0.7835488303022483
I 0.928407655672548 3.8541579519507176 -1.3414315999117978
I 5.245838080037455 -0.36714494127372393 -1.404056941308709
O 2.4757426919770382 1.2322828222435342 0.39388335644864414
C 1.2837307015882593 0.833693188012929 0.5287697613411495
O -0.5771130107130047 2.8963963167999034 1.6383523539615328
C -0.8975637297529543 2.1259915561031275 0.7882538034568323
O 0.8831667637226774 0.5035836189273196 1.8097716298667677
H 1.6869057729482322 0.07788461535813326 2.2404868773267212
Rh 2.559818206006192 -0.8062751325562706 -0.38667525072611736
I 1.5070699879604157 0.20779136756077596 -2.7005563457917576
O 2.9585325903360187 -0.8757311187957396 2.4292247734796883
C 3.3098217217961556 -1.3710290099382856 1.353114616676693
O 1.2871756185577818 -3.4592434983020435 -0.8796882673117554
C 1.8992485054662176 -2.4924973227028344 -0.6831684588131607
