39
## STRUCTURE-ID: 64571489db2b045fb21dbe9d ; CHARGE = -3; SPIN = 1
I -4.217773854037099 3.641558196912233 -1.787814631512966
C -4.538607450070734 2.083114686157128 1.4754034605351836
H -3.9880724479026974 2.834355208483114 2.0309219958093996
H -5.086456598294316 1.4360941538007554 2.1563583870868794
H -5.203691922838716 2.53285763304263 0.7402676614528264
O -2.4472979494726226 0.5356502989092874 2.7925020106262526
C -1.3577854114102972 2.083550754738228 0.9739681032721319
H -1.5521423774542562 2.720667579512517 1.8267759970601316
H -1.0611415797570116 2.677276279998342 0.10618797814764422
H -0.5584844791543053 1.3992683248274378 1.2445294104174236
H -3.0283983549744202 -0.07024751706099837 3.255556415739959
Rh -3.1009361106641906 1.33160524314523 -2.0217579182748153
I -5.489587545083726 -0.17563940152092666 -0.6979544919880366
I -3.0108818457550974 0.8993048814642425 0.5379645904811469
O -1.1352223985448782 -0.9015123416933168 -1.767940136284863
C -1.9281019944690567 -0.0809614320531817 -1.987027307787037
O -3.1796599512389547 1.6847550651277636 -5.000480873897312
C -3.148979332768986 1.528631332071727 -3.8744427974680904
O 3.42496432009879 -4.425290077262119 0.4376025798457369
C 0.4146851769061818 -2.898630764633025 -0.45571640470610236
H 0.9598815486187087 -3.7824792868186172 -0.1467180768583319
H -0.42863636784148945 -3.1516298710137827 -1.0853231548760607
H 0.08328943143782017 -2.3511407998245244 0.4252258608838032
H 3.8997398942423116 -4.667258483040276 -0.3768688872968775
Rh 1.7876012473036846 0.9799473174362063 -0.9642154648814758
I 0.6031969935620541 1.8822943176194011 -3.1646175903031417
I 1.7523374220270087 -1.6062848001826606 -1.4763662281879284
O 1.2286525706699343 -0.22073739478949697 1.5529067490993997
C 2.127282281553944 0.22863249884544448 0.8212742065874512
O 1.653012405574723 3.2814441132376686 0.9174315907797925
C 1.6985939145487168 2.4730531322132285 0.06857481291320068
O 3.408518433744998 0.20463032926694677 1.300692833842909
H 3.446678183776462 -0.2247935350252064 2.1776478901572918
Rh 4.165697824310353 -1.7670838888842202 -0.5519677929976913
I 4.361240253027587 0.25967269496650514 -2.2999904600726393
O 3.0557667499624266 -2.7382145377097684 1.8139641698407252
C 3.5394876011699505 -3.0876311289247 0.7403534851220104
O 6.954305104141996 -2.393740689881332 0.3285224034187272
C 5.896926615054199 -2.1550880914583566 -0.06543037572646213
