39
## STRUCTURE-ID: 6457314890b42456255a851a ; CHARGE = -3; SPIN = 1
I -2.5531622826755638 -4.107023588437532 -0.8436396441050852
C -3.1413701173568835 -1.5056955675863342 2.541897977495973
H -3.4816933291181393 -0.5213405577730928 2.2297292875089982
H -3.970904316697532 -2.2081977082899056 2.4747240930216137
H -2.778122857702825 -1.46898432812048 3.569944444910243
O -4.6401635574330955 -1.5088783910212182 0.10918072555914915
C -1.422040393042147 0.8443993164176402 -3.4651075816965644
H -0.5838004361276792 1.393182411618435 -3.048949182873769
H -2.346167118768995 1.1185090958845854 -2.9681130838972565
H -1.4848072512030162 0.967538083180444 -4.538681404323544
H -5.515092532996656 -1.2066917905606531 -0.2177240111386891
Rh -1.8338884195777885 -1.6431310781145652 -0.25458967210204975
I -1.1461457051485158 0.8246452157722839 0.4876591414991538
I -1.088821339779316 -1.2461364918081421 -3.057662238503589
O -3.869806928417779 -0.4256501576251577 -1.6731975179677205
C -3.654163742329939 -1.10480002664953 -0.6854208756603751
O -1.1530776162708811 -2.7513604888511067 2.14099754766475
C -2.0263046043202575 -2.0437210588801924 1.6672583454413155
O 1.7767150071083178 2.2887306033234487 -2.2561342277778866
C 1.4233008705740355 3.7482759346039307 1.0823162606869403
H 2.059341280683157 4.582326257758275 0.8099895045283348
H 0.9147808277095135 3.9299927464617435 2.024275157264081
H 0.6990250586773762 3.5126219486961285 0.30725202852576133
H 2.4507337753035303 2.9866762101436892 -2.191560877752267
Rh 0.9550023357577899 -0.024611657729194752 2.1238942005052506
I 0.1744198282961116 1.3687099193667553 4.238836908137306
I 2.700443975994846 1.9916226914103803 1.379811809847454
O 0.6552160035883985 -2.0300322051574478 -0.005690953860624478
C 1.391627154435542 -1.2685440861813488 0.6389051575018438
O 1.74179356148998 -2.6726067692119364 3.255581843413436
C 1.379944690242095 -1.5969856855416336 2.9575894857417877
O 2.752861572706085 -1.4360016414314507 0.38398016613281877
H 2.894264967867658 -2.1598627050817174 -0.25601762155167435
Rh 3.831396382091724 0.8718594958060124 -0.6810425661658641
I 5.860090767849296 0.40491040795098393 0.9405004157947554
O 1.3837270084112276 0.16967882390171207 -1.7931837512785642
C 2.1864476409023643 1.096970744742146 -1.6932747471246998
O 4.893394918747941 0.2911007221284776 -3.411912689156542
C 4.565004920531169 0.5385053548868421 -2.3224218542448503
