34
## STRUCTURE-ID: 6457556e0bcbcf6d3d28a804 ; CHARGE = -3; SPIN = 1
I -2.505687132572569 -2.3322665232540083 -0.9036976947497571
O -6.153511612690888 -1.3723693955363696 -1.9266639797762188
C -2.36055621398107 -0.4142555605563455 2.725447478640451
H -1.341957962903821 -0.5241851895656632 2.3036254674207917
H -2.7955661305523187 -1.4285336059215337 2.72695113063316
H -6.980720790247957 -1.8619933146396412 -1.7153914323269888
Rh -3.871085501141255 0.09226679025089436 -1.2143245769242135
I -3.49107602487503 0.7352226075100516 1.3912132001156363
I -5.649417888656503 2.0302781960145024 -1.0886166281905232
O -3.599031515571795 -0.4878438962677585 -4.132275590495447
C -3.8750864334437938 -0.25131132070257667 -3.045691733404762
O -5.770908448910199 -1.3478340932473512 0.2737405318203432
C -5.475945635949908 -1.023708602781197 -0.8507274988770196
O 5.402088550752837 -0.1158242566010857 1.4362486119364701
C 4.7493225312578335 2.9939263461644257 -1.372245817755274
H 4.694965130419128 3.770799970508911 -0.6187045629564311
H 4.524058227240372 3.380341922746357 -2.3600698956313186
H 5.689524685249885 2.456562582782079 -1.3525483043097097
H 5.429437635156505 0.8455779532181326 1.2748612483453616
Rh 0.22781260799965053 0.5275991958047056 -0.5603378344645572
I -1.642650289934083 1.9540841620336549 -1.910572138590678
I 3.0606842106225014 1.479356214802229 -0.9077829786907197
O 2.2682200184121446 -1.5645876837341892 -0.36564071478435395
C 1.3739333559971232 -0.9363146768946866 0.24537119153204134
O 0.466858646518332 -1.4999504309064742 -2.720732385506537
C 0.3242454449364612 -0.6808976567996003 -1.9038647895524894
O 0.633222488053445 -1.7203180012499677 1.1609154994974038
H 1.0264557618233567 -2.608600711018653 1.1923522472077162
Rh 2.550305862046539 0.5362498955248611 1.5349966764970204
I 0.3542460033244546 2.1761400138300657 1.5220797965068487
O 4.081945681682693 -1.8118579603353775 1.8965348309510097
C 4.143215024753444 -0.6158489016125942 1.643587444288836
O 2.1594517381306155 -0.4226119206589499 4.334684199995091
C 2.3532079770538434 0.04270785109313031 3.2872790015988302
