34
## STRUCTURE-ID: 645756217b019a06612726b0 ; CHARGE = -3; SPIN = 1
I -3.7797569844096524 1.4170255017757531 1.91563253300744
C -2.627746973088357 0.9624970720245827 -1.4651486171891008
H -2.1766465138026385 1.8093191338573809 -0.9653304710622441
H -2.3846481462534403 0.9173722944293089 -2.5202090961841423
H -3.7028384456706838 0.9484193505661415 -1.3185138874956628
O -2.4240905019856838 -1.8358773638294876 -2.0160739949462076
Rh -3.1120875673542203 -1.3474103389026257 1.5977768583133498
I -5.27731153670137 -1.9623836393025766 0.15956331278096905
I -1.9130996131673912 -0.8234303051747379 -0.5921817349121434
O -0.9454893471715177 -0.9878368307546905 3.568649554049966
C -1.3889172908789151 -1.2451120540047695 2.4998397519558724
O -4.043390648822583 -2.683061042402752 4.1027355579434595
C -3.7146007468056848 -2.1950667000923074 3.108608517545241
O 2.732923655757164 2.6360269435641697 -2.357768627882917
C 0.3555774739352763 -0.10139759009126734 -2.634496334549187
H 0.7741843154703697 0.29883294731568605 -3.5523643922905763
H -0.04909250676777605 0.7162926446719038 -2.0379687118052536
H -0.42273525746557566 -0.8212807479805436 -2.8684575127852443
H 3.5456875263041243 2.2666102499266274 -2.747085211497198
Rh 0.14055206622575087 -1.538573242706034 0.8977006012612838
I -0.5561307077232694 -3.9483734040837772 0.06647481093858784
I 1.8501006392153114 -1.0050324524769008 -1.4748889894573294
O -0.5277340371265372 1.1232940419274036 0.6605263661247369
C 0.38291099381606036 0.400652821716294 1.1083754625755107
O 2.2444690815143775 -2.0700779907021003 2.946803186971582
C 1.4815730209623217 -1.9052116332732543 2.1170440742674157
O 1.4945968391355633 0.9653789596882517 1.5735629028341316
H 1.5043100549300588 1.9302384159170802 1.3463949949508782
Rh 3.5260690063504843 0.642613440067909 -0.41448107002144197
I 4.483554121748812 -1.8201757851785396 -0.09571103130048231
O 1.6071562489139184 2.7476061045691997 -0.4636263382162835
C 2.5323354256778123 2.2024189347845997 -1.0682866238411493
O 5.5723743042575125 2.5253605754603914 0.6833073369412136
C 4.817942050980522 1.7803416886947803 0.239596822974803
