39
## STRUCTURE-ID: 64572d3d26c58d6d214d91eb ; CHARGE = -3; SPIN = 1
I -5.253703047434625 0.21389708967381368 -1.6333442642219247
C -3.386059371450296 2.3323104304912006 0.42149941515770173
H -2.865038491176732 3.012317144576724 1.0934718996555253
H -3.704040577880929 1.4389203020175079 0.9579014640309875
H -4.268521980276348 2.813157123460284 6.798476831933536e-05
O -3.2489693611512593 0.5169970491055543 -4.445613852002304
C -5.220634306835689 -3.5297797834641162 -1.0608859684263936
H -4.547491492571118 -3.4632724292836246 -1.90553670419023
H -4.692709242944335 -3.2859010942078597 -0.14817811903408423
H -6.071895217416801 -2.8775485913688374 -1.1974020343664515
H -3.4136815618944842 0.9656761760112559 -5.300578127858199
Rh -2.6996678529501263 0.40183081881887167 -1.817399923655564
I -1.9441328429922655 -1.4750850368623702 0.21407199930037185
I -5.913351174216728 -5.524591509936043 -0.9282031390368719
O -3.1315994808176018 2.586694934266405 -3.5874857951754864
C -3.079335545734599 1.3870998891625403 -3.4417875582233806
O -1.454750206337592 2.5962322057583767 -0.9991710889733815
C -2.451910012321787 1.9966305200626449 -0.7024707058499039
O 5.920273290320942 -1.009281672265107 2.8181935368118167
C 3.7589686088263714 3.932072254676043 2.5701451937708506
H 4.129912746311579 4.873067899819221 2.1818888627202204
H 3.9664915217894534 3.815000683044447 3.6267418915521272
H 2.7034691864353424 3.790543970496282 2.356252193555571
H 5.801129911482394 -0.255958100419354 3.421954735041788
Rh 0.6644666345422429 -1.2177861824538918 -0.38889866186868577
I -0.0800383950819662 -0.19061516350320104 -2.778332417713911
I 4.843753849822199 2.3294936989050665 1.5106016510723335
O 3.4025328839415505 -0.2517943909706645 -0.698027049122108
C 2.546206893375422 -1.1184904224028518 -0.943604019936474
O 2.0035361294859366 -3.3911507845941227 1.16387645643235
C 1.3993186620868978 -2.5210196627217796 0.6457877960958405
O 2.9415113700614497 -2.1153237828906835 -1.8133359840318144
H 3.8809536773401287 -2.0062376041409107 -2.061009854895045
Rh 3.358388073475595 0.056635281525952194 1.7887937382682706
I 1.0321965926017602 1.282178788030768 1.2398616610416884
O 5.059850695469777 -2.0131518062039095 1.0513708847329044
C 4.907144427253973 -1.1152673677615175 1.878007905345971
O 2.379024069485557 -1.9029203921670175 3.831858012149535
C 2.7284009373755587 -1.0755804822849198 3.078917987079383
