39
## STRUCTURE-ID: 64572d0da1ee9a598109291a ; CHARGE = -3; SPIN = 1
I -4.519382390108082 2.165943420893823 0.7961670399540953
C -1.544804084173561 1.7812888145039856 2.493402936557655
H -0.5492637708551269 1.3971741222937715 2.731213221983627
H -2.2739824835483216 0.9839692046698875 2.642164664694687
H -1.7531334077083813 2.6044712423459173 3.17875909017542
O -3.4952538738926786 2.590344116855608 -2.4077847616721386
C -3.5595529844156073 -2.470669124875298 -2.466934306043144
H -3.081860132872671 -2.9712857054907333 -1.6304713948765819
H -2.876500341517262 -2.3534473375819727 -3.3034469635262265
H -4.492760462711957 -2.944490151434458 -2.7514778416853183
H -3.4713346438829253 3.2199071922884084 -3.157282448217607
Rh -2.2905248829982825 1.183429678848314 -0.309992590120863
I -1.073767296293168 -1.1463621627762248 0.6260035048183753
I -4.087140448306107 -0.4413872095512753 -1.7725002133770595
O -1.4298864622090846 3.311164595040893 -1.9756090483135436
C -2.355638377364842 2.556098784828195 -1.6935600194792362
O -1.2041593427905652 3.5198497809253735 0.8955074931260353
C -1.5183530765832085 2.3495296033903714 1.0649933980835045
O 1.5954117629016697 -2.5488977555647208 2.536499949675135
C 1.3479893797291542 -3.388968620738516 -1.5209694980335822
H 2.0681570600069015 -4.201037030654054 -1.5242745333939771
H 0.9015114128761518 -3.2432579384216305 -2.5033598334221003
H 0.580393291472463 -3.5162332807752894 -0.7605833353551353
H 2.0709741354825257 -3.3143037515315292 2.1656684311505923
Rh 0.463801351638867 0.5743083735873904 -0.7679438680906475
I -0.4941661510041358 -0.13091928304318448 -3.112106285879165
I 2.478955881107195 -1.5286149312693258 -1.075591921478351
O 1.261033542533939 2.297191453163869 1.5342572216590316
C 1.5345703314952062 1.427888557030884 0.7010730146702946
O 1.5033051732194653 3.2520953472292584 -1.5198192625757536
C 1.0205744380759996 2.2023385508896203 -1.3419116995134959
O 2.9277092602527497 1.251125583634942 0.5067997878825397
H 3.413385289900124 1.8820520010328967 1.071727186486901
Rh 3.8040861474732712 -1.148424391909974 1.1771516602902936
I 5.94661048284819 -0.5024470216308256 -0.21515035660606932
O 1.6067454753201584 -0.34591390127846033 2.681735426095961
C 2.1853232842940145 -1.345122304086143 2.2349668967670646
O 4.826195650660471 -1.5582239013718988 3.9485748967150367
C 4.534731261947761 -1.450164619467502 2.8241043608737133
