34
## STRUCTURE-ID: 6457523fa829f41c182c50b4 ; CHARGE = -3; SPIN = 1
I -4.791087575310315 -0.22339625609790775 1.701827389337247
O -2.9547535498244053 -2.168360313561354 -1.259676837654987
C -6.061630170430977 -2.9054334162880453 -2.129192949374909
H -6.07100740685391 -3.4823026073987697 -1.2115540966357705
H -5.268337496204474 -3.1994826341243003 -2.807294516238545
H -2.499119452959509 -2.9703962551823637 -0.9533442478774616
Rh -3.8554171388914513 0.44261592142104916 -0.7583458504742192
I -6.008863246644435 -0.8622357351833906 -1.7499641334350005
I -5.301444168817251 2.7163969375435 -1.0671770573596748
O -2.121384187083695 2.004859740295422 1.082669909841752
C -2.3377849080436577 1.4004234400702122 0.08609092398285922
O -1.873350336055204 -1.3360886339599607 0.5166569470172876
C -2.6099812691667257 -1.0824529812604262 -0.4670935561217893
O 4.078308972152008 0.2274699761766765 2.6607862271759335
C 5.943937482751579 3.0043474694860985 1.2514425613278999
H 5.697383708654093 3.6516928180512203 2.087160939400363
H 6.6007916578033425 3.5037871452236447 0.5433291887781482
H 6.3431932238905695 2.0440469083444235 1.5619100794608494
H 4.029906015033284 1.201832608620354 2.738022171509185
Rh -1.1643789564242106 0.36762681314546075 -1.1480127225121415
I -2.74833925102325 0.479638166627205 -3.395517172198002
I 3.9926818947332765 2.626731317449435 0.09642583192719159
O 2.6412622221799276 -0.45570685290254154 -1.110492282055992
C 1.559947776285548 -0.9341680476527686 -0.6295554489099906
O 0.0030711948215992354 -1.803194046768998 -2.167254271331598
C 0.2864602511204574 -0.8327520141813538 -1.4612745942937186
O 1.5395563374655272 -2.15798195799969 -0.0062707872070893135
H 2.365455180332369 -2.208729975799077 0.5555979743929284
Rh 2.1292072397593724 0.7096524515216235 0.5645723534983332
I 0.6545162925648658 2.3075045652887 -1.1932114423828777
O 3.4450880077788635 -1.573149727740925 1.611905391561341
C 3.3197272627925765 -0.3612366059925566 1.733588470038212
O 0.08685470942792402 0.9308476317451354 2.748662292066942
C 0.9495296841863141 0.9375941510842684 1.9745833147472913
