39
## STRUCTURE-ID: 645751051bb3c2132275cc2b ; CHARGE = -3; SPIN = 1
I -2.085309374566712 -2.1163120928179877 1.7674703644883898
C -3.433575184014667 -1.3836743217448937 -1.4064603513179315
H -2.9411744318374486 -2.354106333750104 -1.3361557534239663
H -4.234527512229033 -1.3500738802520846 -0.6723580812555078
H -3.826263964151251 -1.257960640419614 -2.414887745863847
O -2.5686405537405865 2.7793596688186435 -0.5032568051020007
C -5.159664997680886 -0.14197200086203698 2.846733760798118
H -4.553580405646155 0.029052182034447253 3.731359557244053
H -5.140120092037251 -1.1910303333764856 2.5665471909721167
H -6.171313211041661 0.23120450499620343 2.9718678666710434
H -2.353578297039267 3.6156636494919185 -0.9619564171512766
Rh -1.7862596983970565 0.2888783655689932 0.6242216234887913
I -4.260901262936884 1.0307940083037292 1.1978308625865888
I -0.8637342485917489 1.4714047091041762 2.989168444211637
O -1.8189563357761114 0.18797486708316508 -2.1482675819123096
C -2.3704239653243593 -0.3176466566155946 -1.1754045619936635
O -0.3633113311116946 2.5046313269001694 -0.5533728469975543
C -1.4524064737213627 2.03875591739904 -0.22085847326370214
O -0.14090181353505135 -2.1321035868245466 -1.1806540421763176
C 2.5930623480829764 -2.1028936085203553 1.9734301666996417
H 1.9560049300131777 -2.9632735388838842 1.8021652017977499
H 1.9980847125771746 -1.2040770533618288 2.1131985833605778
H 3.250957149178452 -2.2544348591447974 2.820576746437566
H 0.2833632515039278 -2.792814198058063 -1.7541907667450638
Rh 4.866943470436662 0.6477352987182187 -0.21571329832778124
I 7.304411681165397 -0.1918633436898199 0.27580408063369716
I 3.784575985161381 -1.7523558421564251 0.2205548936702832
O 2.3856073836826077 1.2549614224072783 0.9495108559058912
C 3.011502364681774 1.3224929051130638 -0.11918083743480519
O 4.924303026231876 3.5714654908304535 0.32939409212412873
C 5.053032576401596 2.4312326558520083 0.11105835689046148
O 2.465406974563893 2.0961774241800915 -1.1368222228987526
H 1.5711761014044023 2.391818055608484 -0.8749276669125635
Rh 2.4169342276837305 -0.7948812491944448 -1.7659720320321273
I 4.762045587677035 -0.4665761186482306 -2.953051945433713
O 0.23950254741214572 -0.2551341188790222 -0.05876283198601936
C 0.6821083448372265 -1.0575311724729743 -0.8729187589169811
O 0.6319192117635242 0.35302257661975356 -3.858982618259756
C 1.3437012789201155 -0.1659100793571462 -3.1067370085748287
