31
## STRUCTURE-ID: 6457042fa902ca7163374184 ; CHARGE = -3; SPIN = 1
I -2.5639983981659897 -2.0429101759795194 0.9069189746951202
O -4.373289840222937 3.1227561147441767 1.63798453976115
H -4.148943887476831 4.031882716328272 1.9280615191980768
Rh -3.6568735685743747 0.3849574466218335 1.2774712202325098
I -6.284860112070097 0.2049888408408162 0.3473198181685801
I -4.202385956170745 -0.016934570024116146 3.8417204386721653
O -2.237916010198921 2.739095091389252 2.1285321549766043
C -3.317726795329538 2.2773572015918586 1.7576717850985264
O -2.787641382661579 1.7587098781558839 -1.2132061105545504
C -3.085788038322157 1.1232770597999497 -0.2688101111623733
O 2.7602192033449344 2.025697395910193 -2.0996779109061148
C 4.398974433793691 -2.3488376733486196 0.5461014570198035
H 4.225890360844035 -2.8560853641881914 -0.40022124413192506
H 4.096501978395578 -2.970115371992283 1.3885795373994105
H 5.417022672150556 -1.9810662559617018 0.6497723075983669
H 3.566825672173108 1.5551371666612543 -1.8108369000479223
Rh 0.2988203304375148 -1.5599505584670461 0.8801103678852292
I 1.0814025075021982 -3.2527129412994937 2.7561766488791974
I 3.089590553773888 -0.5458408956154018 0.5720002241487668
O -0.031244173910410396 1.1196301437513887 -0.0979435697860014
C -0.11461121847526515 -0.07429374317057773 -0.44810121305606015
O -0.4225666963032979 0.4801342179063257 2.9249169246675892
C -0.09472521398111436 -0.3211467574098715 2.1592645813858393
O -0.912211561650785 -0.3629787159133791 -1.5552220121456746
H -1.22959104599462 0.4730643962646683 -1.9420206270747886
Rh 1.5653927412359059 -0.6598692077303647 -1.8672888829726255
I 0.8462532965095289 -3.1860257319676526 -1.1490598652599373
O 0.675232136178753 1.7513252109588526 -2.7841787722782985
C 1.6878599472456506 1.2444600001310258 -2.325642448963224
O 3.151891594602957 -1.1383328428720567 -4.365607799673275
C 2.602496471321428 -0.9753720751154729 -3.374785031773212
