37
## STRUCTURE-ID: 64578ba9ace45c5e77399e3d ; CHARGE = -2; SPIN = 1
H -2.0098097312043963 1.0714714127885807 -2.461469454811318
I -2.589565309793332 1.319133337312922 -1.0089094583495581
O -2.725145109228838 0.09000984817330705 2.00553091215256
C -4.3240451831325455 2.3190075696204633 -1.9702293142222338
H -4.980257851588304 2.653368534473889 -1.1686176343522523
H -4.832174686683863 1.591776036980112 -2.60266263867569
H -3.9543611654924886 3.16621600647651 -2.54104706343647
H -2.2308785758113276 0.33605730814293044 2.811550887519947
H -6.654164284245878 -0.35415968816199944 -0.3708916114785527
Rh -3.2461738185709383 -1.4554760716320987 -0.24508977412746105
I -5.511729383860856 -0.45700569377354533 0.7749199455390299
I -4.288202374471368 -1.6966358605641458 -2.6435771046738625
O -1.0882406518291408 -3.4445787126038123 -0.7873403305738905
C -1.9283608091033082 -2.6449035820364424 -0.6043868726149254
O -1.4486238951930122 -1.7470219524091117 2.0984592075576343
C -2.3250962081728432 -1.133476991587626 1.4762229561243214
O 0.1264029346493826 1.9610715453685028 0.051660616546860355
C 5.333024595668758 2.758489150799147 -0.2201641731513344
H 5.099040554690597 3.770952513783651 0.0879833098783694
H 5.434693613392965 2.6651640162592116 -1.294715265109358
H 6.206216538468585 2.3641427543496523 0.2875805005272587
H 0.7908392059257544 2.5196745623111916 0.49410062193716536
Rh 3.8626197386603494 -1.0542344789853049 0.011033907173526472
I 6.367882369804476 -0.864801877786874 -0.6577520500166865
I 3.5437450852954147 1.4866783662050052 0.42674807022351025
O 1.4885114929803285 -1.4737386192132853 -1.3873730447257067
C 1.8505309824231642 -1.5719309257723877 -0.19016141715445592
O 3.589109640592507 -3.88788942782926 -0.8218232843963802
C 3.7742543412465666 -2.7976564426561006 -0.45451797244815406
O 1.3239153536425605 -2.6999570612038637 0.4964021339105985
H 0.6490481402037672 -3.1193874737664284 -0.06472817080272371
Rh 1.5279794711170638 -0.2668232575737402 1.4517328798486995
I 3.362582060357368 -1.3888065097573585 3.0517323748270466
O -0.6004811314485343 -0.004744959845863209 -0.4554431134912611
C 0.25199448204230157 0.6004512861825612 0.21091623318294575
O -0.3540797775099486 0.8691642668296066 3.456666678350907
C 0.5089993461791492 0.5204010711029422 2.7576585133094174
