34
## STRUCTURE-ID: 64570363c4442561f819eb63 ; CHARGE = -3; SPIN = 1
I -2.356071299077293 -0.27269096690429984 -2.160627519907231
C -3.31728291278151 -1.9832960555847141 -2.697714004068726
H -3.091534131067891 -2.900861272638582 -2.186533053266858
H -4.149508662018218 -1.9151688522056545 -3.3739304658969482
O -3.05940047859904 -1.071290612263034 1.0982137338304863
H -3.0151936249568085 -1.5098905528677087 1.9710466129617707
Rh -3.5454477324069282 1.3563294812977893 -0.3782194911407238
I -4.396666802505492 3.2660869043358063 -2.044436010252451
I -5.856201870453632 0.16600237643931412 -0.26803620998768
O -2.9286617371273085 0.7926808867918158 2.3162471321733853
C -3.085145507452173 0.28132230073297987 1.2070403806158658
O -1.0424590090210304 2.9888669377751746 -0.3342149256643239
C -2.001101252150198 2.335036521343737 -0.27099752288179796
O 2.635988327449489 -2.927133895703254 1.9329662565882675
C -0.21103101085400652 -1.6578298364266497 0.349886637779632
H 0.2553459114712779 -2.4182746041946417 0.9661345385906488
H -1.0680223553091899 -2.054377974010632 -0.17997085021774534
H -0.5061802840387518 -0.8239254022561489 0.987585175712233
H 3.160015760519507 -3.4348541595194377 1.2881924438123187
Rh 1.2375819246693416 1.7159830960623768 -1.358136090814864
I 0.2921610523722816 1.6548205770257454 -3.819482305081045
I 1.2277473743613927 -0.8679765860585095 -0.962236258170205
O 0.5454876300045548 1.4413456049343456 1.3778057445943848
C 1.4939342577797956 1.6167067282928622 0.5942157982784644
O 1.7653164711392202 4.571704601768265 -0.7175552614155809
C 1.5778971535086455 3.4902150639747727 -1.0963423476312237
O 2.753492341241993 1.6936404473276128 1.1190000295707148
H 2.7399347194703543 1.5614323325632815 2.0875103308605616
Rh 3.555045367396597 -0.8141112223961815 0.14082725982582087
I 3.9009649667592954 0.2235236376934374 -2.2991767704173482
O 2.2381131803498 -0.8670786729740779 2.6245923758631533
C 2.782138399908236 -1.5636707013624478 1.7707550458169121
O 6.238696332388209 -1.0735323316925678 1.4342280011410329
C 5.23004749902963 -0.9997337993006336 0.8813615887991573
