42
## STRUCTURE-ID: 64577f894a99fe2c9c2eaac1 ; CHARGE = -3; SPIN = 1
H -4.626020480913943 2.310023111045986 -1.3785703287298723
I -4.226063405199109 0.8754307301486253 -0.7254141156995434
O 0.06643700922365912 1.573505820040243 1.3182850390062997
C -6.590537599730882 0.8919683957676119 -0.8797764152190415
H -6.941228906965104 1.7297647874277524 -0.2937177637143214
H -6.951040247401007 -0.04629029569078717 -0.4821947068705849
H -6.8287402577934735 0.9950148367518279 -1.9295043866646822
H 0.24278143840981914 1.3608864632735773 2.2509188313594675
O -0.31172849050391177 -1.2601347051737843 -1.5567416603089173
C -3.915264964694483 2.507031608776683 -4.114743065737034
H -3.9068364117742096 3.4332592702686773 -3.544822618821543
H -4.751292447978449 1.8619043902601617 -3.857956156444345
H -3.865515416207003 2.7027319408372183 -5.182186437313453
H -0.47289530581561673 -2.2152157531829255 -1.6676952066902748
Rh -1.5782438686160378 1.3018019607419735 -0.9934473338003604
I -2.0254908093381245 3.89436931319166 -0.6584107442073459
I -2.0050978466042797 1.404808417509929 -3.6144390163205458
O -2.2961015331634362 -1.4472938470578824 -0.5385489042670517
C -1.4774615862097837 -0.6357365367671238 -1.0011765973117819
O -1.7840419786062567 0.39455314193185076 1.7892389413031062
C -1.1832032818366436 1.0227991434503343 0.8919354022010837
O 3.0798967562935737 -4.437458634561957 1.8213610480506561
C 0.6740049577460542 -1.8800010626989456 1.3407806443626746
H 0.6494928991405875 -2.9606663722806053 1.4550784057949926
H -0.3070795080409931 -1.5213141897679043 1.0437208643036187
H 0.9329335051442904 -1.420886140053573 2.296294538788244
H 3.5485572160959666 -4.857367002709906 1.0779472224324886
Rh 2.7466180324050433 1.1735125712385581 0.1373297402272897
I 1.4547283871216417 1.7306330744424634 -2.0279333431191544
I 2.14676471547557 -1.3252571944011076 0.00954957030078315
O 2.437428271299472 0.5408703106471279 2.917622158484725
C 3.2423244464553154 0.5852393241913555 1.9660417335419647
O 3.4456371596251887 3.81801496984083 1.2895314755830214
C 3.2161904928498726 2.8322056685128985 0.7117782261906522
O 4.520393862801164 0.13776682614544408 2.213965256799197
H 4.632523641152624 -0.1332820796480247 3.1462321410731904
Rh 4.469708994896061 -2.1673130972626855 0.6440738924652182
I 4.743384250184596 -0.6704262050641611 -1.5407470173892865
O 3.104806862473768 -2.616705237809462 3.0799768395844147
C 3.535146280444408 -3.1428968232357697 2.052474636210912
O 7.068813798218361 -3.400848670533836 1.457500437882005
C 6.085311369935674 -2.939002228542302 1.07638877268321
