31
## STRUCTURE-ID: 6457020329b6de743f623184 ; CHARGE = -3; SPIN = 1
I -2.224713976186135 -0.5330781464955989 -3.552041316449572
O -5.312452652926797 -1.0695894685660357 1.1954688195267926
H -5.491640623646271 -1.2724233353796128 2.1367372304682517
Rh -3.515560182465342 -0.941519018454035 -0.9822528900210541
I -4.494528506928445 1.5552765788639267 -0.8296842763179035
I -5.821960787310907 -1.9759593051949962 -2.0487226194730783
O -3.20996571361992 -1.5441771909602366 1.751036442609039
C -4.016667570879259 -1.2281377730792127 0.8799094484386618
O -1.5945465955490432 0.5160259349958451 0.6280522163089698
C -1.808563829531054 -0.2630205381557851 -0.25252981431242677
O 2.7565308725777693 3.5663232714766453 0.525180148081048
C 4.680410953234416 -1.0496767930685384 2.308998505009128
H 4.709517353325056 -0.4811623225669708 3.230625784014063
H 5.607260459991627 -1.581099251637156 2.1249842568848263
H 3.8165840899258114 -1.7075387392251846 2.2644329246481667
H 3.2792108911946567 3.1401929709585397 1.2308598973081655
Rh -0.5348648253134852 -1.3229035542711316 -1.41842285601972
I -2.271415288902676 -3.488468156592688 -0.9790485597600543
I 4.442987592226216 0.39394870124554854 0.6712843264833451
O 1.697200185938275 0.4507221105805032 -1.7747834328357117
C 0.47221163691199775 0.4149925758538225 -1.4988738011686964
O 1.3818725868760975 -1.6177896230875317 -3.669721608309937
C 0.6889995408827615 -1.96974921769686 -2.8127230088539856
O -0.3417702935875177 1.4510421165069964 -1.8513258615380417
H 0.20676819522386067 2.2876594294607693 -1.7670661334008686
Rh 1.640204553729627 0.8679866352977863 0.3430589044068853
I 1.1067435345059857 -1.8114586759206337 0.6334731360791026
O 1.2927722689853687 3.2928764999233255 -1.0718476726757666
C 1.88018076970405 2.7717321901964054 -0.12254654963802164
O 0.1742268217001041 1.7347787484940793 2.8101495754821366
C 0.8049685399145069 1.4141933464968073 1.8973387850263401
