34
## STRUCTURE-ID: 64574a218b193458167ccc04 ; CHARGE = -3; SPIN = 1
I -0.8959440049055012 0.9855344218746184 -0.5121335086648579
O -4.88165972779496 0.6214644553628266 -0.8196056266896284
C -5.045906003095832 -1.6008465084601242 -3.2153011039892787
H -5.549550325492274 -0.6722242730876734 -3.40908170844947
H -5.607343840227844 -2.502837536385665 -3.0511066905488424
H -5.544800597692637 1.3212229280777796 -0.6432233592378772
Rh -2.6984371522148276 -0.9924060663567473 0.16804511324011587
I -3.1559879914436966 -1.49361758002496 -2.435048784431329
I -4.525108702233358 -2.7865757220117056 0.8376054528825018
O -0.8775425221158228 -3.4495545536535674 0.16717807718634756
C -1.2377651442369693 -2.3236105756741834 0.23819290356359185
O -4.339679328116702 1.0195560663482761 1.2976801649799967
C -4.129924216611714 0.36747285537224406 0.2795742138884422
O 2.935707327323793 3.0824160295457115 -1.089642166193584
C 0.9636403146527933 2.8212175005396025 2.1422262787600843
H 1.3446195888642316 3.6157755402058442 2.7711288512514836
H 0.0023619208507135903 2.4745728134878773 2.506525708017675
H 0.8725509022626761 3.1428955903133065 1.1093319296551285
H 3.623859539679334 3.5208793053148013 -0.5597659463253608
Rh 0.30708335956593064 -0.8779376860427296 1.0585821247204723
I -1.4738940192975898 -0.38853853430369684 3.0637227411064054
I 2.364787602260782 1.180093466228272 2.207461854293501
O 0.9792097534426494 -1.8503483747889282 -1.5385229699803475
C 1.4457736657632871 -1.426858153005656 -0.4798457495532497
O 1.73885464000077 -3.1949678591501014 2.249270795176013
C 1.1956367541365418 -2.2410450135738103 1.8813070918764343
O 2.8028771810405497 -1.5062097190492565 -0.31747004604141194
H 3.2225965684853484 -1.8779971906357935 -1.1189630385485714
Rh 4.117973316034246 0.7935336441809787 0.3230463061913035
I 5.2455781469224485 -0.5567239378551302 2.291599079335042
O 2.1890355208601715 1.0840753413517665 -1.6727485800261492
C 2.9890185969761167 1.706597562821748 -0.9780025463480261
O 6.182590923350408 1.0561916733845798 -1.8193537053248783
C 5.439787953006874 0.948800089648953 -0.9326631557709911
