34
## STRUCTURE-ID: 64575ff68145d92ef45c0b0e ; CHARGE = -3; SPIN = 3
I -3.702130943146814 -2.384627509764317 3.447309093201066
C -4.601690889918462 -4.290902931237021 2.8177199498472665
H -5.468108875269433 -4.054402750066779 2.2073318292729027
H -4.868863018557926 -4.823838892934618 3.722685122008187
H -3.8504500344698602 -4.8180124776050794 2.2377369344927405
O -2.822997181684141 0.4443418548210429 -1.3552553989041949
Rh -2.9366803464120417 -1.018804100327716 1.0898367580560138
I -5.472454700011009 -1.3781294949239407 0.04394151055157828
I -1.724078915827033 -3.156433620602583 0.05446467207545969
O -0.8939900172178437 0.30773251991343953 -0.2478070486531704
C -2.1076144198281184 0.06235679616893477 -0.4146209615825992
O -2.9710377088731876 1.9177074503718214 1.628598888478625
C -3.041402417640345 0.7395037635157499 1.586761396545096
O 2.819494707408745 4.115528016497873 -2.5683539003792406
C -0.12663049894084102 3.023191923124867 -0.21765836687650175
H 0.16253146661441778 4.068142712991711 -0.20848862243449556
H -0.9960383610903971 2.862354936635154 0.41488350668379764
H -0.3648976468733525 2.701201831883675 -1.22879885219248
H 3.600667948166944 4.502538631392422 -2.1329030717855586
Rh 1.4077272770706113 -0.8455176601551141 0.6545339993995872
I 0.230593093834239 -0.7394777448669952 3.055608464537421
I 1.4282013760598886 1.8234618011840633 0.4620181541296746
O 0.9132357004016548 -1.2374652848661236 -2.088279948778547
C 1.8032782662349984 -0.9475159189367747 -1.2990106227721308
O 1.9315265648447333 -3.779403884707259 0.7175522559878885
C 1.7011515178297796 -2.658123671566828 0.7003156478364921
O 3.0498888249702376 -0.6974533250411922 -1.747419205090814
H 3.1469165045840306 -0.8712556225126401 -2.707422750000627
Rh 3.625991609140392 1.7987603147007822 -0.9237276187453528
I 4.0504115487808665 0.28628405024241055 1.285003291774599
O 1.7403774580438336 2.2156096232058875 -2.8772791683118664
C 2.670698012905411 2.789176793714253 -2.315124094446822
O 6.362756634564521 2.0430525589367305 -2.1120242641268585
C 5.303617464305597 2.0004193108142405 -1.6821275797970996
