39
## STRUCTURE-ID: 6457149b9b93400699159873 ; CHARGE = -3; SPIN = 3
I -2.2421997479345417 -1.6864932435002615 -0.3307995751346359
C -3.49218838015742 -2.005312244179246 -2.074850852341136
H -3.241319025157637 -1.2413459384049585 -2.8038968850868145
H -4.530192908488556 -1.9054713006115689 -1.7753556748015036
H -3.285839128238578 -2.9980900271136406 -2.4552776000942607
O -5.201946597323538 2.5159398517125378 1.8508389992103713
C -1.9747576412701742 0.10679983113740006 3.2826900905610867
H -1.6083830473227712 1.1370500206670033 3.250284490272186
H -1.2817656656683711 -0.5234998915101909 2.726756229443609
H -2.0106021548547264 -0.22758067077032426 4.319475474682201
H -5.240295003711858 3.4109031055056405 2.245645791348987
Rh -3.628062857620213 0.39436734836196646 0.7604202669859139
I -6.060924043140407 -0.9398322243357449 0.6423481823932919
I -3.8838387947386823 1.684511173605091 -1.6378285771131276
O -3.010767767416716 2.9333210912226844 1.847619948727575
C -3.924695974119298 2.1365297539882264 1.5865147622748705
O -4.3195749096333484 0.0011291994082076684 3.5047175223617444
C -3.397405329194516 0.08994683662613484 2.6929604842027266
O 5.748044822889263 1.901898140133604 -1.6176050006652576
C 4.40687186088388 -2.4459045418499388 0.7533578805875708
H 4.4742189892864985 -2.7386156376480297 -0.2904798105117009
H 3.655048974276889 -3.0314290493616705 1.2769093093744546
H 5.36633423802379 -2.4580717489012276 1.258829841935857
H 6.1496607449928 1.1504580004736904 -1.1408965540909433
Rh 0.6193777594403891 -0.6169847206273695 -0.000550872065915011
I 0.3786394666599773 -2.679769289502171 1.6655513349167927
I 3.7076719987336038 -0.35886647187814735 0.7889744425598842
O -0.4275176247999625 1.1874894484157286 -1.9167603541856801
C 0.5788579472638907 0.8404402838147623 -1.3041616136169245
O -0.013494371823217605 1.9449855914635523 1.3701780325324546
C 0.18387287631676832 0.8532907194963814 1.0004974885473492
O 1.7397817438388903 1.5488037817317095 -1.5225121661970964
H 1.6131111268200053 2.2918179047911 -2.1472338479965436
Rh 3.562219754038124 -0.016670370984607465 -2.073981002000498
I 1.6069806442041605 -2.006064313058794 -2.032465208637429
O 3.9801592317343437 2.5415440978706494 -2.778155593133014
C 4.577146352702509 1.6555688614311064 -2.1930513093677115
O 5.572054250612431 -1.5381848834769112 -3.678879416282441
C 4.855718189895977 -0.908608474142844 -3.0498286595962485
