34
## STRUCTURE-ID: 645757773d62e80d3633a734 ; CHARGE = -3; SPIN = 1
I -4.610212331417757 0.017858789672889213 -2.7873897241737113
O -4.962061929886083 -2.195835118310086 0.23560437160809647
C -1.0936398963123342 -0.7224378665550668 -2.2156346760745502
H -1.3304544728372252 -0.64678810034015 -3.280367898534186
H -1.6732783035709395 -1.5322842137195731 -1.7690176713053871
H -4.893123729297444 -3.161984635314684 0.37768352437139724
Rh -3.948491236404839 0.3210544102078868 -0.27755159730367623
I -1.4923332576376989 1.1580143379692711 -1.270693881550057
I -4.760123620032652 2.8451594393693083 -0.1506728350051912
O -3.0949727989243456 -0.10663712347517623 2.5416206949180595
C -3.4541889421132432 0.17997817568368743 1.4665421892612096
O -2.77726051642953 -2.4078281794674306 -0.10735011731172459
C -3.7527860674689957 -1.6375372032954751 -0.08418148596664844
O 2.6610274583218496 -0.9480111132098447 2.964245351449335
C 4.9546909818669125 1.6720138150202526 -1.3335189583686833
H 4.659577588676974 2.6293654299374785 -0.9041393128604055
H 4.820158649361536 1.6703440023741962 -2.4148205187127934
H 5.960707132532773 1.3757992654912718 -1.0419308796918325
H 3.432711090784929 -0.4881698740385292 2.5787190833163485
Rh 1.0873634258893952 0.7165982187421386 -1.2079657080795867
I 1.4007946228153159 1.3474825852850532 -3.7062180834263807
I 3.5782752294212234 0.10932795214020406 -0.5000531600024866
O 1.3551539288951175 -1.6509070796855103 0.4610436820040337
C 0.7023550386684996 -0.582967347612972 0.4508526440746853
O 0.9504733402878931 -1.9704709663503337 -2.206242798483173
C 0.38620524808328416 -0.9190771567034798 -1.9788622754228475
O -0.6739417726508319 -0.7256397261299704 0.7476257676758573
H -0.8640228237436614 -1.6390677385542498 1.0070140380309471
Rh 1.416020641804625 1.154075324712235 1.419113534452633
I 1.5167705351776806 3.284632517790049 -0.15547663132935283
O 0.47412051749055734 -0.8912435551263015 3.203706918979093
C 1.4478121484654607 -0.3853236287809096 2.653348587767794
O 1.161759227653276 2.2051125321322083 4.188258849697964
C 1.4149148925302584 1.9253938301415476 3.096708975995158
