39
## STRUCTURE-ID: 64572405e70b01054c4efcc1 ; CHARGE = -3; SPIN = 1
I -1.0832552893591356 -2.197444112612418 -2.280363171525466
C -2.1880007766990492 -4.153642431936041 -2.4711821074379694
H -3.068336417241455 -3.9744748116845705 -3.0768984768274503
H -2.4465552622405804 -4.470307298855867 -1.4657586171111823
H -1.5136287638794101 -4.856290750933944 -2.945203045090789
O -1.5414497405429755 1.1167792596211445 -1.455512396050554
C -4.469107957458002 -1.3983065964595607 -0.905143050064458
H -4.310049734128889 -2.414717110080589 -0.5720859327026221
H -3.9673564641421053 -0.7075744293710019 -0.2360856164613091
H -4.1195248722612545 -1.2554902806604777 -1.918655249118858
H -2.0647892244056503 1.9357133886744393 -1.370561129166389
Rh -0.4932484975612092 -1.3713357192521285 0.5458004547575634
I -2.0205685534177316 -3.1936735439419 1.6458808191332168
I -6.537448115844835 -1.0035680228619814 -0.8498632663737199
O -0.2371203267647196 2.245447214863872 -0.04557934985899493
C -0.3597418431028601 1.1968929657403933 -0.7069763790419612
O -2.4467520248063495 0.7221889878694091 1.3152142963307805
C -1.6676024796346636 -0.06811737060852305 0.9302125115241999
O 0.45417105812500025 2.8127727566546117 2.9126057027716623
C 2.0634228569481983 3.916239334819802 -1.1500857887891094
H 1.0119739259954041 3.881548421528404 -0.891336034653932
H 2.197207385579562 3.7971073412757637 -2.2202073319219187
H 2.5270936745450165 4.826395021978507 -0.7898578579783416
H 1.072915210414619 3.554753049715558 2.8092658098205137
Rh 1.1618015683597107 -0.01509709155920868 -1.1310169129338992
I 1.1296939974073075 1.0518574215017542 -3.5387966942365487
I 3.0557915478296906 2.23798703968155 -0.17429184208433618
O 1.2477700899743642 -2.5021796260200477 0.4798750804429346
C 1.560821569793127 -1.2651438235316053 0.4330995846045028
O 3.340358075114317 -2.030296065900001 -1.4711744737313797
C 2.52433690678186 -1.1968109646048024 -1.4400122432904305
O 2.641326031599899 -0.9320701708586546 1.2376094790330154
H 2.975431047975698 -1.7281934480399639 1.6907934970139482
Rh 2.990814311625158 1.4278505678556155 2.315029680474109
I 5.527964205138063 0.9047595333393872 1.8879415380219506
O 0.3476281592088021 0.6015188528802494 2.8136597665753786
C 1.0741478643469367 1.5871399369806725 2.6684421958504894
O 2.69683076505894 1.4630053052214818 5.281145593937775
C 2.933036091670462 1.4547772695719103 4.140070956159903
