34
## STRUCTURE-ID: 64573af199e7eb7fac2fdd80 ; CHARGE = -3; SPIN = 3
I -4.091733411549399 1.269840998949072 -1.0562483542259269
O -3.7699585660967347 -2.3686979153727283 -2.7288386316261954
C -2.5747291802694683 0.13174517703036281 3.5347729084133737
H -2.579367456397982 -0.8283519598982788 4.050214123584873
H -2.878756595398866 1.06705711947495 4.003296609851
H -3.763158076381421 -3.016298368548209 -3.464607389106905
Rh -2.5860331832680377 -0.9363776443900313 -0.6141064395790299
I -4.37789877894597 -2.0581324130284884 0.8358896049204585
I -1.50432540386004 0.28293545233029077 1.67958138491424
O -1.5674091084162003 -2.727913038340329 -2.6190471931362214
C -2.582192493822649 -2.1958137104653797 -2.142222770644517
O -0.8184640074915825 0.14351712678698642 -2.760855978948337
C -1.2498135792498593 -0.15468716696535315 -1.673990986798682
O -0.9504614937620908 3.4390977457109155 0.22086464211112242
C 1.5930525295121594 0.8612303970164742 -1.9600759426377874
H 0.9973897559531678 1.6436007363691643 -2.4323425232426104
H 1.6532746491534138 -0.009249366266955689 -2.6241272036888565
H 2.5884870248408283 1.246901699122775 -1.7468343456440023
H -1.4810640747441408 3.368336454661406 1.0444855185581454
Rh 1.6984680852869363 -1.9499090214415524 0.40707659972683613
I -0.5426311158813737 -3.163225968491427 0.900709843694012
I 0.690177027941466 0.26232895778731874 -0.2538265949860552
O 3.5766174030407245 -1.1241982211766928 -1.6228731632847009
C 3.134409209411004 -0.9445422156228681 -0.47191325912885557
O 3.7078705133793326 -4.030632212700947 -0.27174059381939747
C 2.8535354433557734 -3.341646465221295 0.12207336508688506
O 3.7472093049027992 0.07441890558429598 0.25825501739392426
H 4.571250836746232 0.38675329745771325 -0.15605020040473144
Rh 0.9093925574323188 1.7938289465129333 1.7640196477423584
I 1.7683121769324703 -0.4576069613349876 2.9866868651787586
O 1.0996495338726449 3.351121163790577 -0.5924960051612093
C 0.3484651439328694 3.0718961463881156 0.3558812875017673
O 1.2951458399563085 3.8438757210711754 3.9182570663977203
C 1.0852894898850938 3.068796603221047 3.1101330909888096
