39
## STRUCTURE-ID: 6458cc99faf80f10c96f9e14 ; CHARGE = -3; SPIN = 1
O -2.4243483365075797 -0.9255316762414748 -3.558833171537464
C -1.0209392109246005 -3.3517551454945167 -0.6721746327572719
H -1.4873840913504583 -4.0945612858535965 -1.309521468759628
H -0.46376183397523607 -3.819323183282412 0.1345800646626689
H -0.3725327553569305 -2.6933807270246013 -1.2446868752186346
H -2.9446667024636923 -1.7468054443918306 -3.5105629120926163
Rh -1.2973162720876077 -0.602043195515304 1.889404596683044
I -1.199800185275084 -2.35045614660316 3.799515036896437
I -2.5786290356542843 -2.130141902265414 0.2076125277657253
O -0.4882870268431364 0.2694587173480289 -0.6284288383774413
C -1.3301198024696648 0.4601857623285432 0.27054713085923016
O 0.2255754741543416 1.8852195111661878 2.3539167101479928
C -0.5130947992391061 0.971586064831207 2.410286182626065
O -2.337162547701497 1.3497070092681624 0.05682561759925487
H -2.2485010408052757 1.6962247238191208 -0.8607822514969508
Rh -4.009260785800892 -0.4133403465757106 -1.120323225187306
I -5.42306080732064 -0.7172081101572904 1.090097792307464
O -2.244535646477217 1.0943774024704447 -2.678732262048352
C -2.780434460665932 -0.01642091913097214 -2.585992695201974
O -5.846949372440401 0.8282195935973107 -3.11879340317877
C -5.213159243864211 0.32759355433777243 -2.2880184468014657
I 3.228765115713451 0.8040988097217319 3.6728681425639236
C 4.315377955043189 0.8125063550940834 0.45624286299654376
H 4.488458957464119 -0.25047234483568565 0.647834924036646
H 5.095850143850904 1.3997724370295215 0.9487365177817707
H 4.357603020062071 0.991582565180736 -0.623128516454311
O 1.364006630521094 3.728935571497783 -1.679361721474288
C 2.555726683350214 -2.547589879975705 2.2215926274249953
H 2.5924952048563066 -3.503899692209527 1.7093642464458119
H 2.0009020562636257 -2.6276552194945495 3.1539094338739853
H 3.5513119916048534 -2.15861675497563 2.4098747211266427
H 0.8400385571779684 4.5521952900849225 -1.7436633232562486
Rh 2.4400827110949463 1.3498698096637047 1.182381210432086
I 3.127769696260306 3.896615450379423 1.280477075286536
I 1.4706937332557501 -1.1341835942101666 0.8873560705720442
O -0.12856381614598889 3.1108682477930496 -0.13366846876708446
C 0.896118195607715 2.885300247926531 -0.7619475875430347
O 2.0235579280948692 1.0071296347802998 -1.6385777891307343
C 1.7781737189935576 1.6619388099190795 -0.6262259028054061
