34
## STRUCTURE-ID: 6458f6ea3ad3501e42015e0a ; CHARGE = -3; SPIN = 1
O -0.5564637275466667 3.9285087615623517 -0.9115148927005994
C -0.6632673861781315 0.93495748822751 -2.293054279167238
H -0.16954728932981228 1.8992434658694046 -2.3614333168919996
H -1.7227519469169703 1.0429434604205599 -2.5158088374844367
H -0.20838677530116528 0.21494071338569415 -2.964135682016598
H 0.2155582310689321 4.153738619509635 -0.3601391381934087
Rh -2.006830428366199 -1.888666683739553 -0.22115561759446448
I 0.2477108540392821 -2.9984088799619752 0.7385005896283768
I -0.6357813710247046 0.22831464155531836 -0.36418588019463094
O -3.6365177746066863 -0.020229801987490463 -1.6837972457876857
C -3.2700639371198092 -0.4357148202674807 -0.575920247063897
O -4.586140332300744 -3.0751408824961577 0.6754977426152134
C -3.4816575064158064 -2.7819794269349662 0.4309230492630204
O -3.7065043752881652 0.27947184798113633 0.5314608070121725
H -4.287708948030968 1.0153996571151176 0.26415024577020346
Rh -0.8794185144826775 2.088755548166997 1.3309001238655966
I -0.39321025612383725 0.06633690156093651 2.9609094378472385
O -2.5032203761730556 2.8709783444440005 -0.8619337806297929
C -1.4363871423396088 3.0614524893543256 -0.2657106404165756
O -1.9352311815434653 4.492737883253435 2.744429947224196
C -1.430264352603207 3.549792469028153 2.3055308840479842
I -1.4528549078069923 -2.6707465422605488 -2.9253332029672037
O 4.015565104173809 -2.7099269547625964 -0.11046345352229028
C 3.0516147754617853 -1.2334422774716798 2.26546231764952
H 4.049946033099 -0.9482544273610356 1.9314056460445614
H 2.796843572121911 -0.7212357216684088 3.1982340876266058
H 4.856937320479685 -3.2178958680395735 -0.195198768217268
Rh 1.5856330907750265 -0.6992414148614012 0.9201683079926763
I 2.272042810683164 1.882871224570644 1.0026480697260407
I 3.1785093352812233 -3.2823544225532726 2.7813103487815636
O 1.852802128019516 -0.7113676333320629 -1.7877454604238066
C 2.4696720134607375 -1.0627855043792236 -0.7951173470512569
O 4.548990963956499 -1.4717634216851698 -1.8988935540974956
C 3.820382296877969 -1.7812888322427713 -0.9899902606743537
