36
## STRUCTURE-ID: 6458e8559d7f690db53c3b93 ; CHARGE = -3; SPIN = 1
O -2.205921692551353 -3.0847937253037516 -3.690276908477237
C -0.6058129427656461 -3.2925356165465858 -0.2638897975882147
H -0.9392640676184827 -4.323223315074732 -0.2600579546268671
H 0.15713000318037873 -3.145257423697413 0.4946456238556199
H -0.20539679737297267 -3.0259240953599242 -1.2379094688528869
H -3.0030150812370127 -3.6341990822604053 -3.592187077344143
Rh -1.2970447854431137 0.27371106445763205 0.9609567904535627
I -2.12693700856809 -0.1540669743197147 3.4483713225576555
I -2.2597396664250415 -2.022920034340605 0.1348186804173339
O -0.768360341682575 1.8012014978020252 -1.5072078443433345
C -1.5771710566068529 1.1452261189410538 -0.8629009885191852
O -0.6908022881328718 3.0019225304274832 2.002875797199893
C -0.7957558384936904 1.9322584323454046 1.5736461274540607
O -2.8572827068443547 1.0801613185347125 -1.3069044434852566
H -3.0071669897158584 1.6553842916606856 -2.088509188263641
Rh -3.7673537399465262 -1.389372773454015 -1.8509287524918743
I -5.097553602771869 -0.7371716592803721 0.3652940849129465
O -1.4011882023438698 -1.0755539636394837 -3.2329860966364348
C -2.3400575608713234 -1.8555903876804838 -3.092280317231595
O -5.705617915371431 -1.2346160459439446 -4.127420590434975
C -4.98485284226969 -1.3037770894949243 -3.2309716164431888
C 3.387231609836988 0.1518051141957771 0.43311225186217034
O 3.459227180628874 -0.47711384678924396 -0.6030609796634381
I 2.1779121179944543 2.939215871501754 -0.2812835511314709
O 5.199938786963513 1.5780987466959309 1.0160502462574021
C 2.7457358819261604 4.104531444020462 3.594308639728771
H 1.7762289843525016 4.473490010129349 3.260815053206965
H 3.5394538354787044 4.514611861131644 2.9755121977079715
H 6.016404870599225 1.7212820521734067 1.5440378791973244
Rh 1.7306284739795152 0.789862302678642 1.2396010250869525
I 2.755827912554977 1.9912067690636466 3.431008129067628
I 1.7583320185821014 -1.5192834526089638 2.558884796990729
O 0.6539619945978786 -0.7849657678937535 -1.0226691344715437
C 0.558417572111284 -0.08892097910304338 -0.07267761018773915
O 5.082884800105266 -0.41727170785896867 2.0249889162257566
C 4.636979084140882 0.4125885148906466 1.2651947580102678
