39
## STRUCTURE-ID: 6458cf0cf1f88177b80abf7d ; CHARGE = -3; SPIN = 1
O -5.919572125636392 -3.6614369154306847 -0.36432142369893195
C -2.78102394660299 -4.588446999096941 -1.7872351950304295
H -3.3328349464237457 -4.991577597832445 -0.9391683272254592
H -1.9883959191276184 -5.275579460002922 -2.0794242800221387
H -3.3829391281974925 -4.307007152730857 -2.6525747453386583
H -5.9533059611346655 -3.768102040330268 0.6424076053851107
Rh 0.35801867849028507 -0.47043602938635337 0.13930719814371506
I -0.19969156083616144 -1.959525408399271 2.222990997547172
I -1.6733983534722339 -2.608964533072069 -0.9895947444953805
O 0.8630907754041051 1.7073921849765217 -1.5615016282456078
C 0.8769947483343593 0.27837038726671737 -1.5579713885001842
O -0.015586742541218794 2.2795403535974272 0.5267184933266357
C 0.8659265303019031 1.4930114876289546 0.0027806728194543296
O -0.08163198164132816 -0.1727642271776032 -2.55547671925717
H 0.17548355329615553 0.048310626343697115 -3.469211786898976
Rh -4.006300737852006 -1.2967423654772443 -1.030014114301495
I -2.068441456908996 0.4372487481686583 -0.12522834953501227
O -5.147445862307758 -2.5600933052269137 -2.207918605609248
C -5.348639371223156 -2.9114487158202706 -1.1026379342687889
O -6.118907934043239 0.8231837965851249 -0.7336263655557355
C -5.378756620325855 -0.007289081820904767 -0.8439424350411797
I 4.8916252671528255 1.3892694515769168 2.3710682952215305
C 1.629772992220466 1.0200227065282574 2.494223905141566
H 1.8953440119977782 1.7595995559941777 3.2994315918568553
H 1.891162188366597 0.035194169235340945 2.982369090130422
H 0.4971453516771555 1.0589182822509455 2.552209480646301
O 2.1750807378896377 -2.295017391179959 -1.0356422152993678
C 3.9839044984152197 5.717298506896503 1.8338469152727257
H 4.391635296919213 6.089612829228339 0.8987727257357372
H 4.733767450839329 5.179282364473429 2.406564014590251
H 3.497887186451048 6.4966626067004825 2.4147572658024
H 1.572075665608 0.3721033098945099 0.4990124342510631
Rh 2.6658122655037664 1.4270066753353563 0.746404334720285
I 4.244409173593435 2.0952395812619637 -1.3722255668378198
I 2.3507202865425563 4.225002852355884 1.298263567770306
O 2.1640503771551067 -0.18338910341965867 -1.986533581838782
C 2.092924225501147 -1.0232691498323312 -0.7586871525501095
O 3.073460410432702 -1.3346943774029048 1.3398044859393257
C 2.50658097618262 -0.5164866226583156 0.48200348524915587
