31
## STRUCTURE-ID: 6458e4220d01935fef7862e4 ; CHARGE = -3; SPIN = 1
O -4.462515591084907 3.01100486922404 -1.0278651882717316
C -3.6998075667038357 -2.343562898194865 -1.5986480799773484
H -4.566366673894981 -2.990629292966441 -1.5661346769849893
H -3.3189733226780307 -2.1413064465770777 -0.6033509409064081
H -2.9143038484478323 -2.7353898285326315 -2.234040593281659
H -4.56949288368931 2.671658184650578 -1.9328989140861632
Rh 0.15411334680120942 -0.8387431416113794 0.9669743364200897
I 2.1593558814704648 -2.691140618513014 0.9786174979381991
I -4.314080248237094 -0.46250049559149226 -2.4306018454393117
O -2.5800301451056065 0.010590671373796915 0.6958030761030815
C -1.4087972902489432 0.3411722794246399 1.0221804162939674
O -1.278087692103013 -1.0877335615045713 3.5716812993636307
C -0.6055098632444645 -1.1130556251999524 2.6090122221362657
O -1.2311479507492396 1.4885773636584105 1.7453887244296562
H -2.0283971243178596 2.0720778330712544 1.5958795412373905
Rh -2.150499922884804 1.1834812771940242 -1.1463094296041156
I -0.3063322349703973 -0.7574405351060207 -1.7173889227146864
O -3.267097507117643 2.9090946163013767 0.8001767334057535
C -3.3746705666811665 2.521032101442248 -0.36864827605443595
O -0.9646371683017444 3.3468690675239046 -2.822641938245682
C -1.4937667709208642 2.488711770196503 -2.248313157900193
Rh 4.19998679543319 -0.8262944072938492 1.2202503204752986
I 6.119762026133477 -2.639880406489617 1.4006314210516706
I 3.9564230577391553 -0.7016406496204908 4.010628268862929
O 6.297857645334055 1.2419571630439086 1.5307832259185625
C 5.492021342355856 0.4381874106509153 1.3900462929171629
I 2.287642894420227 1.2154847680474428 0.904444025611629
C 4.445305127401352 -0.891106373506693 -0.8973497821623724
H 5.257567955281062 -0.24417456454223127 -1.2388320717013155
H 3.5198789425411 -0.5622974522824254 -1.3827347677066237
H 4.644599356470769 -1.9130030782702367 -1.226738817128012
