39
## STRUCTURE-ID: 6458f14969074348f2378234 ; CHARGE = -3; SPIN = 1
O 0.0193614414867929 -1.9921977228573597 -1.434298938876608
C -1.9142361062127593 1.2803611720059411 -2.9334443275150304
H -1.9377864315430806 0.7808705181228759 -3.8943069743761023
H -0.9285009043211396 1.2012904384455139 -2.4852610925802594
H -2.1796498245880813 2.3265566102133746 -3.0349665594692667
H -0.4291574250563051 -2.619627560013662 -2.0257051130328163
Rh -2.8069809554548466 2.310949290887288 0.575704180515467
I -3.3530588181829946 4.346475035621359 -1.0392160773930634
I -3.335433719361189 0.3325893897199298 -1.6217912192013815
O -1.914833008492122 1.201377973854538 3.068161013587307
C -2.4696993258975706 0.9598483428214948 1.9903499129430422
O -5.286163240842197 2.2225205474250482 2.216653021504868
C -4.3924316307071924 2.308700335444513 1.469746027841295
O -3.0068199054940643 -0.3169557892853085 1.8733016760584926
H -2.8726236473817583 -0.8095262855162672 2.7065406103747653
Rh -2.721455358189269 -1.8479583581070413 -0.3396025351497119
I -5.346230770772971 -2.0017337918615454 -0.3887944837942552
O -0.24731887694446092 -0.7330644261276633 0.3567227675037539
C -0.8063845232808813 -1.4832834722670039 -0.44722677929832005
O -1.667717651275451 -4.379981468154033 0.8156094454972748
C -2.1844369953746545 -3.4576100636091156 0.33562703040847786
I -0.16985414029754045 2.611081963927835 0.18020609046782907
C 1.8700413959801314 0.7410655208474697 -1.7894997398813017
H 2.8666471029190155 0.44125050412313166 -2.1282882350989127
H 1.677515140742253 1.74662221553477 -2.179854931190428
H 1.1449648166423643 0.053977235617562874 -2.2410691577971615
O 5.09925626088363 0.6967835262360177 -0.5418901704346355
C 2.2592163271951713 -3.1212502889525395 1.5912835627369346
H 2.7951639122238574 -4.051803558295629 1.439822181853627
H 1.1996904880487178 -3.2340977613184494 1.3832037109095905
H 2.4087606352786763 -2.719656563215628 2.589128282591755
H 5.995207893573499 0.3230006260607891 -0.38846417988829174
Rh 1.7049593566650882 0.6438588866618198 0.3163428887743288
I 1.7519484711011124 0.4946047421339388 3.0545872517772965
I 3.059701009648195 -1.6719518730848124 0.18498720538757474
O 5.1709182192123215 1.2523941408969685 1.6183554452544437
C 4.591197321194861 1.2355623319485929 0.5587886270764407
O 3.1400224738270395 3.0706246165575766 0.2492981646898663
C 3.2162009930480426 1.858333017557924 0.33926141722316777
