34
## STRUCTURE-ID: 6458f64839645d2d2c33f3d0 ; CHARGE = -3; SPIN = 3
O -1.008980969327964 -2.36089949991692 -2.867941735190207
C -1.41121763428469 1.4330896485609643 -3.3085763351263995
H -1.9381178473215555 1.0341548176481314 -4.169151637537643
H -0.4318435191505182 0.974472159648525 -3.1865323832862136
H -1.319228040702658 2.5129941153421007 -3.3708589438152323
H -1.7588249596200558 -2.5569053084404443 -3.459181126972953
Rh -0.8637493113972625 1.607314567643589 0.40070966609049385
I -0.7113773004930128 4.019625960265481 -0.7100227532993807
I -2.5926334031317215 0.9792369769850263 -1.5561913602432538
O -0.13855632574411683 -0.7591354114540422 1.9408777589100483
C -1.012835168875824 -0.1919342395587838 1.3001334192170713
O -1.8864959289816348 2.210604468468154 3.126819631110514
C -1.7828502355997191 2.1217062582356236 1.9739176830241252
O -2.2711202938022987 -0.7112294286901584 1.3287689191832819
H -2.326442864105452 -1.4974216691272941 1.9111749950900754
Rh -3.1958257236766223 -1.4841673581194086 -1.0676158203326394
I -5.355214338871516 -0.27659812350613433 -0.21108651269430112
O -0.4971309480831769 -1.717366075152503 -0.8138400890726689
C -1.3829831693166295 -1.9567367290655968 -1.6345751801873047
O -3.7958557831490634 -4.404783487847704 -0.83565501472307
C -3.615100150554417 -3.2739025515871414 -0.9618867410027092
I 5.0402356353104 -0.37712558521415585 -1.4081314109157326
O 5.179404849222642 0.30967737662192923 2.168756475772851
C 0.7562491218862137 1.991604684413438 1.5419390094517242
H 1.3888731362365516 2.87177895429806 1.4373789903720833
H 1.1568389872109368 1.2851818847765448 2.2743191127589824
H 5.634108348023358 1.0872558566020225 2.556389566988308
Rh 3.249239444961015 -0.8220251551758575 0.47793362998217215
I 2.6803041409966744 -3.3026388830564324 -0.38448393089593547
I 1.3728245341172765 0.8317907309945689 -0.7650250309862989
O 3.7872621059052576 1.8643608218651966 1.3933871002731975
C 4.110244014785179 0.6819243047964578 1.4138167012604113
O 2.3523515000190605 -1.072819940402344 3.30434830632911
C 2.5884480975153754 -1.051084140850756 2.1600850404673158
