34
## STRUCTURE-ID: 6458dbe34b91a13a510c2d7d ; CHARGE = -3; SPIN = 3
O -1.6580859666583212 -0.8630980406378839 -3.0993053055167623
C -2.425921259130188 -3.713045696355816 1.5015106789543762
H -2.7667612401293074 -4.513530221822253 0.852094484569498
H -3.0707762441086928 -3.5665535101011057 2.3635531985328644
H -1.3867084143290982 -3.823868400801598 1.7958821078648444
H -2.074846250881105 -1.6242798389531998 -2.651348141535165
Rh -1.511327473062953 0.2458509260596864 1.4752438383996207
I -1.951570218441588 -0.7978285556348998 3.862756188406025
I -2.5691762610548303 -1.8203180859219057 0.2381435926931465
O -0.04771121225930031 0.8031217264021103 -0.9081755718864084
C -1.0752437727865871 1.1846879570002804 -0.3271383796330994
O -0.7094757801318237 2.951052687765622 2.4092176953846756
C -0.9541943062144411 1.8620890152984118 2.09351288205415
O -1.408229376785428 2.544354137390412 -0.4774344148109029
H -0.7792507218707444 2.960680810711794 -1.086555011427846
Rh -3.0726717383718207 0.6766314884576895 -0.9887712128195278
I -4.262324696007862 1.5289285400987616 1.247242397961727
O -1.599462191318146 1.3419110541294947 -3.2062967721922067
C -2.004357677953499 0.35476781130458823 -2.603643427596608
O -5.229291833404204 0.4047296343621482 -3.037937169057025
C -4.490771211861277 0.46227405447112946 -2.1575362702169008
I 4.811046560275641 2.713381791509643 0.22982776498785074
C 4.632748106744865 -1.3045163784825673 -0.9014341119385005
H 4.66917640194138 -1.641989035765108 -1.9360135517165589
H 4.34610435534393 -2.1241581687363165 -0.2413665598441334
H 5.612152376239647 -0.9431446609226567 -0.5841329597845
O 2.006133692922733 2.208579965706077 2.4066214412166596
Rh 3.147259103100013 0.7268155248272195 0.8469455448277835
I 1.1447880801771881 -0.9944935904112775 1.3311294203096096
I 4.79982460534703 -0.45762305398845327 2.5719140422914664
O 1.328867945734514 2.883645235989925 0.33183432725966533
C 1.906818835214386 2.2495708431277417 1.1878225955608857
O 3.008514704369514 0.2727887933792064 -1.7342781640371234
C 3.6347230793504957 -0.18741475945695188 -0.8038851772618535
