34
## STRUCTURE-ID: 6458d93d42d7d54d9f11e563 ; CHARGE = -3; SPIN = 1
O -1.4391929545529518 -0.9381583387047691 -4.025995416549378
C -0.7625171836084392 -3.126243284846956 -0.7886532713060099
H -1.0668661814208182 -3.796738909256788 -1.5844443410299198
H -0.42301408688961656 -3.689911900419816 0.07569602266358387
H 0.04900831846506014 -2.4964110812671767 -1.1452740758546684
H -2.2809726509586086 -1.238847391482539 -4.410406706055209
Rh -1.908695700510983 -0.2470448796177604 1.744774411134401
I -2.453169186418823 -2.105580997847584 3.5209174175508533
I -2.3722683083915572 -1.8896307778122865 -0.24275840212194888
O -0.2206330169110946 1.7966279579121383 0.41382731739604905
C -1.331875845063894 1.2266856458062851 0.50101596935538
O -1.932111045672823 2.1439471978717846 3.5074559597974413
C -1.9197938919667232 1.158348426348416 2.9033175833201046
O -2.321677243330473 1.8184955205665534 -0.2268160408120868
H -2.021288977548773 2.650498264940987 -0.6490646793816146
Rh -3.2849447869105806 -0.09802432112292783 -1.8494984247474888
I -4.985859774905108 -0.21546476582183505 0.20894926216949256
O -0.61553995202302 0.2960245845203935 -2.3810752617816413
C -1.6317179839849456 -0.20804269251242777 -2.870186067578586
O -4.522193983524499 1.4880050312520055 -4.063206093972948
C -4.093449795161633 0.8710604943883935 -3.187664153057279
I 1.876071460436098 2.036670687107071 3.4947029200769477
C 5.0482880019257035 0.9634328856159098 1.7601427338907125
H 5.4619790986152505 1.294375682603945 0.8048058451546768
H 5.76830780844578 0.31765753161108534 2.262197553863639
H 4.8479933612255195 1.8547269957883774 2.3554475169498654
O 1.7359492492845086 -1.4368611807978362 -1.5985918889902937
Rh 2.0572687782098114 1.0486620470922101 1.079443473304875
I 3.060189814448664 3.1520271233691353 -0.0948072030413522
I 2.224234369866212 0.3509209403048919 -1.411780435138967
O 0.658265019379219 -1.5521803923179485 1.4461834723937033
C 1.1919295247472648 -0.5266652121440449 1.4243175156741639
O 3.7907770035738113 -1.0550311696917964 1.5219262911744036
C 3.817520741132474 0.15267027856491525 1.5051011955490396
