35
## STRUCTURE-ID: 6458afefb74563313c0921ed ; CHARGE = -2; SPIN = 1
H -5.896095880605853 -1.3915566065984575 1.9265996712393922
I -5.223644349581836 -0.7739574662500729 0.6288263470637198
O -2.6369847927117913 -0.6981762432495743 -1.4283948973440432
C -2.0083435017841285 -4.008062568464209 -1.8696409382079338
H -0.9981900237604602 -4.322240170769149 -2.103820396889296
H -2.333396719581231 -3.1751653043162276 -2.481112167265167
H -2.5687256335330177 -0.20454628953175036 -2.270091854156007
Rh -2.1137461097833437 -1.1486776273694672 1.2428530518241527
I -2.9530430622199146 -2.464825300915482 3.4195096681296886
I -2.2058749610536585 -3.5657683076078825 0.15226287818756162
O -1.0877939054727097 0.7434806239062091 -0.7789943643159147
C -1.7989007474936174 -0.21720196363944777 -0.4790339942231582
O -2.1205270906746247 1.676563183875664 2.184192053341808
C -2.1373937095210493 0.5474758126201313 1.9424834752721163
O 2.805408064453583 3.68862645397645 -1.8783288754261327
C -0.13607741539467927 3.3260364388934467 0.3098635971239244
H 0.39194524681894344 4.258235624696607 0.4762346678176966
H -1.0881359186800488 3.3208381072712756 0.8268837233299022
H -0.2767355352421474 3.135474083671895 -0.7481592733336044
H 3.4369930168510843 4.0846078178822 -1.2546873984151627
Rh 0.6420736558812036 -0.8637492456833836 1.5920299763951395
I 0.3728583822233321 -0.24553032590199872 4.197614147339463
I 1.0888783003095437 1.7595538209257087 1.0860442330652051
O 0.19089745383157086 -2.0080878833712794 -1.0911282753571834
C 0.8937965924996305 -1.2949661276659903 -0.3781182083343629
O 0.6083653249636533 -3.7647712905675874 2.214253238085634
C 0.5212367104788467 -2.6487695949711076 1.9540700669633149
O 2.000164630210011 -0.7744838423179995 -0.9650073771526243
H 2.0634977954340297 -1.0310161213371363 -1.9070884389031904
Rh 3.3149998005305257 1.3249380993590285 -0.19192137719710342
I 3.5253328372982993 -0.4937532591461033 1.8481921868317381
O 1.9018004372468484 1.7713930837781444 -2.4909999169716888
C 2.644401316390555 2.348535974458849 -1.707413179258186
O 6.133242917560047 1.599216451260691 -1.1778777621708492
C 5.0477168741129566 1.5103299630974165 -0.8000942870890169
