39
## STRUCTURE-ID: 6458f54a68b6106c123c1d94 ; CHARGE = -3; SPIN = 1
O -4.171414638458863 3.745361990392522 -0.8244771133947001
C -6.602786763142133 -0.8365747151101698 -1.8592720810757006
H -5.817818613295931 -1.5862987137234799 -1.9234702715325083
H -6.769304340700665 -0.33790352955898245 -2.8068841674598946
H -7.518515218154348 -1.2304712381898846 -1.431074626814048
H -4.7285754468084935 3.3295095178964362 -1.5118061269469505
Rh -0.5402112095171024 -0.9441345901324765 0.26909313866832674
I 1.007055694856834 -3.0933479857082284 -0.21688444748092664
I -5.865029389630883 0.6989255237213443 -0.4522125454742379
O -2.729695808375791 0.5166334087213145 1.467460820134239
C -1.599618059603298 0.6332421456642827 0.9013421265003297
O -0.4970177857031185 -0.6640448395321731 3.2333016811851745
C -0.48501989509161314 -0.8624408741063655 2.0794280155717626
O -0.8182979503215334 1.7123561731997878 1.266448886836667
H -1.4422011159631685 2.480488778999212 1.3548430772091204
Rh -3.107488850590253 1.03432691834432 -0.6406764592731022
I -2.8083934531948036 -1.6957473761077666 -1.003889835425538
O -2.708948678930774 3.4387862201855106 0.770001541029568
C -3.3149547471617837 2.938777743959194 -0.17412212038355027
O -1.3259609275709823 1.9421320949643655 -2.8496870904082896
C -2.1717275955141915 1.5899426419593106 -2.1312512795462584
I 4.751814103363814 -3.758232937953329 0.3347940412409093
C 2.7843837915815786 -1.7801556090016097 2.3517392429752375
H 3.678682205579932 -2.0664499387094835 2.9263082588240854
H 2.0026957211925396 -2.5181983506397487 2.6179717713020176
H 2.4338545099905122 -0.8176344590384027 2.783007037135603
O 0.842380420238645 1.670776209615776 -0.8980868775882245
C 7.150014564558469 -0.8129266028881976 0.16040235844632625
H 7.92369034766266 -0.10118045561560171 0.4268125167289083
H 7.045703320582463 -0.9154046569629057 -0.9161787877537851
H 7.306296789446917 -1.7840378952132476 0.6212778913231368
H 0.3274051974751111 1.833953340007747 -1.708629251960011
Rh 3.1597253130847123 -1.5818666306938167 0.2669689634714758
I 3.6600441963736365 -1.0430504831330285 -2.349355398635818
I 5.236031246589129 0.012748343831392464 0.9329114803556511
O 0.44068356721307433 -0.4172276138300182 -1.6413451015918286
C 0.9279830570962996 0.28730989238200616 -0.7049225890184344
O 2.3266646427394733 0.9710128310343432 1.0123386106202896
C 2.0178717981036733 0.011045720969862978 0.2677747122051195
