34
## STRUCTURE-ID: 6458ece092428e3ba1196844 ; CHARGE = -2; SPIN = 1
O -1.4669777716645487 -2.3144033596163194 -1.9707318942592111
C -0.6851937329883628 1.1136011723763835 -2.3180200432161846
H -1.0346200326642534 1.4652033360124452 -3.2836034205839777
H -0.2505520038960908 0.11935997071784653 -2.3883020077284915
H 0.017316389166411997 1.8212413666812495 -1.8787783706417496
H -1.8259581310567974 -1.9958467718488673 -2.8185894516975036
Rh -1.5388631240057902 0.8795653033125015 1.7381387514309998
I -0.27565336559830356 3.181181279805129 1.533912377312159
I -2.470181647073817 1.0283766920900779 -0.9705977063381699
O -2.0290895277216925 -1.6454691432894282 2.999906460288598
C -2.4272272688429433 -0.8033903530966472 2.176525502020784
O -3.3544320222438673 1.2156048842590428 4.08013498660477
C -2.630477424284799 1.258875424039558 3.1462769305094325
O -3.752179823641855 -0.9990958606998669 1.7271623997204448
H -4.117889838439316 -1.794214107207074 2.152526144203802
Rh -3.966020252694171 -1.1282433152321496 -0.9718186563106209
I -6.118993534503862 0.4155940403888912 -0.6596245161286869
O -1.9355919961533696 -2.650707474958814 0.15425737677730242
C -2.3322976415239065 -2.1726658375068815 -0.9122259596445611
O -5.078614705612922 -3.7871014657810895 -1.7620429835880616
C -4.7166210189454505 -2.703692718450645 -1.5230370602987615
I 0.45112476894232967 -0.46117804556506126 0.775468995574534
C 4.954054614641741 2.041072295293395 -0.5940243233183964
H 5.760260057496879 1.566353102169901 -0.03808672529740691
H 5.095350610260664 3.1255484535940288 -0.6188913910797136
H 4.963893034006743 1.6643944917412925 -1.6257312378389412
H 4.514770147965706 -1.219494943203655 -2.157450458455129
Rh 3.1873873810136986 0.019751137134084083 0.9639443181292261
I 3.021885694567916 -1.14675503597179 -1.3566742818020767
I 3.023161198939808 1.0352613676045699 3.427458317980705
O 2.5774635873503673 2.3255048492704793 -0.1878835880429768
C 3.61533164033225 1.7969242054272365 -0.0745431446103903
O 5.900124132186967 -0.8327349717682941 1.8213314807422787
C 4.925311606684716 -0.41841996772145035 1.413613179585933
