39
## STRUCTURE-ID: 6458f4095c027d76c776fbfa ; CHARGE = -3; SPIN = 1
O -0.45680414459979807 -0.45948539891464546 -2.401286369816228
C -2.305909437901618 2.647135570840844 -2.50767067085165
H -1.6856033980538152 2.2746289721198893 -3.313543354875755
H -1.7103592020369185 2.802810278962585 -1.6121793787596908
H -2.8167999152214773 3.560394961953425 -2.786863601902788
H -1.0632810381610078 -0.7672943217784982 -3.097531299187371
Rh -4.932650563634056 1.2142872781956353 0.3896165798045863
I -7.187226811873947 2.2523337105937133 -0.5068069139518286
I -3.7762461151457845 1.1661630331817903 -2.011421081394367
O -2.2065179703365794 1.7132172713244829 0.8986893581637099
C -3.108543595515339 0.8766093364896392 1.0692127457060576
O -4.823756497481009 2.1072566436843108 3.2280161360159414
C -5.004598165768105 1.7813158829828273 2.120620745991785
O -2.871042143311317 -0.1515796450710967 1.9637780488657113
H -1.9845089132311968 -0.05045090822592663 2.364905233379913
Rh -2.89899487057532 -1.02451111486723 -0.8869843445131111
I -5.485515713760589 -1.526309175208648 -0.5175557601595985
O -0.2654207275434247 -0.26345415026515945 -0.2053223898032246
C -1.0226141636345487 -0.5248135383698743 -1.1333577634921126
O -1.383386571907975 -3.437432769454404 -0.024391990462512735
C -2.0878738222229676 -2.591883032515863 -0.3867297284431708
I 1.2448925447004995 2.9077795825806936 -0.16990582757990844
C 2.811636347415666 0.13933657818838985 -1.2847432533313605
H 3.596915225541112 -0.6233454359512111 -1.2604604934623918
H 3.2607773056920726 1.0605016518007113 -1.6674889104811648
H 2.035418666247874 -0.17727434828183494 -1.9940853137025831
O 5.028180366887612 -0.9999155344331616 1.643112283177299
C 3.496051418934546 -3.348225717727819 -0.10097119729223586
H 4.423851604966723 -2.785637185297508 -0.09869943791789067
H 3.101616931247158 -3.459620659275136 -1.1050969292418602
H 3.6074450761690557 -4.310143556425222 0.38844079531280784
H 5.489974931615399 -1.5728909486202955 2.2942776072157027
Rh 1.8955268818236342 0.41982046435748815 0.5820562871940212
I 0.6566495750138988 0.5974767503123185 3.078152597959613
I 2.0300488576850086 -2.2003875281910554 1.082698403647527
O 4.199126226404396 0.01617699622917047 3.4461756124999408
C 4.286607165692226 -0.07735635406004557 2.2438597524558594
O 4.271887446136704 1.9156970179728303 1.0186526804993827
C 3.6410472097435616 0.8990693411640702 1.2608311427327035
