34
## STRUCTURE-ID: 6458fd09837c4b0d8053d21d ; CHARGE = -3; SPIN = 3
O -0.10135493067757978 -2.6806352522673795 -0.39412159263070284
C -0.37206429723898243 1.8569590105933729 -2.941604252046465
H 0.4544648974641821 1.3464618119956389 -3.421393981970006
H -0.061481399486855506 2.220534696126137 -1.9665938532413123
H -0.7282714476410247 2.685044944969872 -3.542147704431081
H -0.5363435310847274 -3.1451386006632127 -1.1354290008826073
Rh -2.7616829572590387 1.3307796083728036 0.19622700415347913
I -3.5083201504992427 3.7649770005688112 -0.6041768804115271
I -1.991183772734004 0.4956115652642011 -2.6378648811729137
O -1.7279696206841226 1.1568620895472863 2.8159317575375247
C -2.468525550722848 0.591367449669513 2.0122061954027957
O -5.547170193032927 0.34078741552160113 0.44430696908920514
C -4.460727816196317 0.6937940277222715 0.26783353364890217
O -3.2036852246870473 -0.4583145899401701 2.4625317504412254
H -3.043449212551182 -0.6183532474041875 3.4175710961597527
Rh -2.534183919235828 -1.3170565230139368 -0.8472885106404218
I -4.450174789103362 -1.623363170025001 -2.6232491935814024
O -0.3065776670458302 -1.0301037366834784 1.0545060687449264
C -0.8190360254435122 -1.5939387151832625 0.09642010199265358
O -3.2519223201596956 -3.2269643445268295 1.323878692495187
C -3.0264608215347013 -2.518156263252123 0.4433193081379019
I 3.5011749438518693 1.7225783785002389 2.7822440619273934
C 5.6273505143881115 -0.7395232242541896 0.6421089910158806
H 5.915493236714767 0.06860436849778756 1.3160565306849343
H 5.892457046025776 -0.4315444051976817 -0.36861270066177976
H 6.137199210531028 -1.6634699744810364 0.9082621680662528
O -0.781275217016563 2.012024765599688 0.18525431651080715
Rh 2.7676750059211104 0.4888534704821281 0.5510064822657199
I 4.153275042847722 2.1031013550203586 -1.1535824509182047
I 0.6926419557856678 1.8888432091811984 1.4004888124900803
O 0.9731814001024724 -0.43055423336819926 -1.6366218701174304
C 1.767645839199176 -0.28683217411421097 -0.7852080603256429
O 3.656000464210554 -2.0413011494400495 1.0091450252363507
C 4.143301306992891 -0.9619355638179328 0.7285960670305186
