39
## STRUCTURE-ID: 6458f6e0a2676b1db8196850 ; CHARGE = -3; SPIN = 1
O -3.938305880110475 -3.3196292302466484 -3.150843655954869
C -1.7412197009962076 -0.5400927323080685 -3.829279594767504
H -2.43765450982122 -0.9252335085253985 -4.56374663983832
H -1.1183031709927882 -1.3451823477614773 -3.445550134496742
H -1.1160112393924735 0.24206383340204712 -4.245435062157001
H -4.693020123434155 -2.81406570597372 -3.4987041815682485
Rh -1.0526502385459708 0.8080651939316792 -0.2374014647304226
I -1.5278656040916807 3.427465131368909 -0.49945886938676665
I -2.831866733449928 0.223248852784422 -2.167002720716997
O -0.5705087024432 -1.8520110676135415 -1.0999324473448877
C -1.1342011830852776 -1.1494367104396719 -0.2495275606425935
O -1.2112488051251158 0.7639189453846627 2.7516506555412885
C -1.0495358703650326 0.7852488314928104 1.5896185535873943
O -2.081274249350603 -1.7564571567629628 0.55255822884889
H -2.1878471228027667 -2.6829448700362346 0.23424375893639535
Rh -4.421894654376481 -1.4030543483533788 -0.9867006026906562
I -5.1816927066285645 0.9324973358357131 -0.02002007805643687
O -2.8060295947185248 -3.7029764525969266 -1.2925763799572092
C -3.6411510577952204 -2.9807139543241905 -1.8393464630306366
O -6.388747387095108 -3.418253733138935 0.004706693826143972
C -5.686444465116465 -2.5777965979886854 -0.3697278916617034
I 0.9235635872122737 -2.216555626581114 2.0094841726036705
C 2.6888324610028116 0.4011012782369402 2.962160522336392
H 3.4838874720576336 1.1448297984627502 2.959071569436383
H 3.1213780437166165 -0.5630164155506681 3.236252919007073
H 1.9290764790262604 0.6650971026977734 3.7109291025551316
O 4.800803396571852 1.652619103573746 0.8192706795601924
C 3.225943914726051 3.874058627490825 2.559077798626849
H 3.3388594305243777 4.9054538198671995 2.235959835576176
H 4.16857216584191 3.338835712624834 2.546843609880694
H 2.7382314567815342 3.8145176305187194 3.5261949532050245
H 5.483128337689682 2.2687616845998666 0.46651863670393684
Rh 1.6428474324266866 0.2962058903879925 1.143638194122034
I 1.2644140218995779 0.7983498191819477 -1.9970745885647336
I 1.8718067537092093 2.9447172554211667 1.0575131734457783
O 4.8342757307141495 0.7654807576035937 -1.2211714212886284
C 4.393929014113316 0.803932526097374 -0.09805561247614795
O 3.561835739303148 -1.3856356805905081 0.07728154781624512
C 3.3460875624213093 -0.22341299217166835 0.36858076371437687
