39
## STRUCTURE-ID: 6458f1f41f61a252f6143964 ; CHARGE = -3; SPIN = 1
O -2.935826988267939 -2.38501288205263 -3.9148161006263305
C -0.31267296369225506 -1.9012312886988338 -1.7875546197599772
H -0.472453155861137 -2.1131070387267523 -2.839665260140154
H -0.6748414668252093 -2.741090787010894 -1.1926298693212718
H 0.7456090078238129 -1.7523155608883834 -1.5939215351140945
H -3.138562651432799 -1.5815239152646163 -4.424959484519622
Rh -1.6339700529833383 -0.30031330252093885 1.3776522129005755
I -0.4365883570210475 2.0404913663479616 1.679656090339296
I -1.4801704507922784 -0.2579022542633467 -1.227829377736175
O -2.1094270864289086 -3.0743618632195098 0.9153797858931608
C -2.612488276921759 -1.9431095959894167 0.9442532958201438
O -3.148887560826772 -0.9424918014302668 3.857376958449992
C -2.5429748726968544 -0.5228658851670144 2.948072653387971
O -3.957045754590908 -1.8473471966206119 0.6351570074027048
H -4.313185715344435 -2.7307126357086893 0.4192049591981695
Rh -3.918955623779988 -0.5634692313943837 -1.872014222127215
I -3.768591450078387 1.8905077448785383 -0.9071306655138786
O -3.282345639022555 -3.3319476527303262 -1.9432978423151293
C -3.3942452997708497 -2.2947003969649384 -2.597000212270383
O -6.635883952421138 -1.2187609632755536 -2.9224536357646334
C -5.607244840187227 -0.861300716300017 -2.5262403208461666
I 1.0611369111050688 -1.5805247588254019 1.5607445077672797
C 2.601207935314079 1.0647939992960977 3.357652584836127
H 2.1382308306720295 1.9782978893819059 3.7382292357663323
H 3.6646248498197798 1.0602244506861054 3.601458021969113
H 2.136143840083072 0.2086230015210621 3.8555207672821186
O 5.185709002110256 1.1109899233895266 -0.6471270183484825
C 2.180669938387243 4.788338187719185 0.237263584457518
H 2.6983949879731637 5.735986193438777 0.35189651149271406
H 1.2417085032784112 4.746081257548793 0.7835671721121585
H 2.0421666069881765 4.5067402297560095 -0.8020591596594908
H 5.568926598716684 1.1309100976417903 -1.5499059997784488
Rh 2.2784383051218904 0.9476305609900099 1.2801236907533708
I 1.7308336513188776 1.1072144383514426 -1.5202060040383898
I 3.4829927067275555 3.2676635917179064 1.127939744434125
O 4.5301730163523795 -0.9964065900792836 -1.0468707236771893
C 4.5664933101155665 -0.004103326939039108 -0.34475313731278423
O 4.545378716593489 -0.6445361663551924 1.9220605085236402
C 3.9775234404447146 0.004642877761533672 1.0672258960830383
