32
## STRUCTURE-ID: 6458daab1acf12654212510a ; CHARGE = -3; SPIN = 1
O -0.6636956677387991 -1.798872621395084 -2.94427544064753
C -1.4546253727108522 -3.558932846802527 0.5135874594121447
H -2.05702898783408 -4.280228205446993 -0.027300758781816432
H -1.3751684052825068 -3.8157648003375897 1.5662143188401454
H -0.4672393955697408 -3.442621668350534 0.07331657961855048
H -1.3794938394502811 -2.4575148200441865 -3.001027814133176
Rh -0.29478980478008643 0.12139371779498562 1.4710626934818567
I 0.04771038477969041 -1.5737810209235263 3.460396966249484
I -2.4902825331969587 -1.6395135174060635 0.407065366352739
O 0.335731291610046 2.3252060478188414 -0.3483054858312436
C -0.535007175838194 1.5366953720267622 0.04170644390424627
O -2.269774519519022 1.8180916940310443 2.9077402029428883
C -1.5217928960883391 1.1131074252260262 2.3956731711418455
O -1.8099738934062581 1.7840749172087624 -0.38244807899046973
H -1.8455116528381978 2.5665141338818214 -0.9692827507547341
Rh -2.8972274306718497 -0.26929973281398206 -1.7756972372661746
I -5.128774975270091 0.44756011267820456 -0.6132136526189483
O -0.2528198380704258 0.298391567713413 -2.354085453949748
C -1.1014644933363549 -0.5939403519525777 -2.4350562271761484
O -3.066088157904541 0.4726921516268672 -4.660732852757792
C -3.1285028066935565 0.185856065101898 -3.534091905893359
I 1.5939447755648368 -1.1289753907766913 -0.06314139950177064
C 3.94187535730515 0.4511249663546151 1.9141695272157293
H 4.869979601139521 0.364470507769556 1.3345005119852575
H 3.643725097774734 -0.5436748803774081 2.2605953614597376
H 4.119062283653725 1.081124656076917 2.7880507163121435
O 3.0125851110384363 0.4885043866011624 -3.108756359379219
Rh 2.533471820281966 1.2919038098340365 0.6189091319739397
I 3.59617282740362 3.659085122517247 1.0524808123189144
I 3.569990260451055 1.70907376057471 -1.788980444133512
O 1.1540566111342634 2.0285128457967665 3.081942521561772
C 1.3209564240629503 1.3597365959937144 2.118984077044259
