39
## STRUCTURE-ID: 6458f24c1a3cc46a8843dd5d ; CHARGE = -3; SPIN = 1
O 1.055837269588402 -2.7128277365745173 -1.073439460829392
C -1.4412190591491054 -0.11895784974527307 -3.392244267095424
H -0.8407376313178029 -0.8853626521916803 -3.8675591989168043
H -0.8027050188417681 0.5982857122379084 -2.8826411503913554
H -2.0577087524879296 0.39999196602114245 -4.117339208348677
H 0.7213529759935735 -3.5090196027839062 -1.528576386328907
Rh -3.103764459767697 1.5931384742913315 -0.5024403647157534
I -4.515483451152883 2.614419941808981 -2.474657753586021
I -2.731154208174946 -0.9956905727266153 -1.9302148966949855
O -1.5306728403396397 1.803347159951235 1.9363944380089795
C -2.09730562622237 1.0473284031099444 1.1232093647662098
O -5.140018288218748 1.198572932945658 1.610902773306383
C -4.449746246604674 1.2916264210068846 0.6672443133514794
O -2.1550871554829887 -0.2863608811830847 1.5400034443659798
H -1.7871263292343873 -0.3721403923839122 2.440831905904992
Rh -1.7254794141502232 -2.4711688099405684 -0.04880721365653674
I -4.26074777698718 -3.1112171910976607 0.047730792681354245
O 0.5850777951609317 -0.947901714779303 0.12296400678611334
C 0.14735291128606792 -1.991535501263935 -0.3869004918402076
O -0.5578438591759045 -4.199372690301199 2.0705179269446896
C -1.0628956403624297 -3.604454105568469 1.2188675199686574
I 2.688917409080353 -0.2694145429949492 -2.9962424187675
C 3.187632368327258 -0.8112621937354917 2.7693891400282675
H 4.244842271122155 -0.9783344917668259 2.5633494629599416
H 2.6637664571655617 -1.7659093795144825 2.7054547402738036
H 3.0610365170843106 -0.3884135888288439 3.766604776979295
O -1.2332172969723236 2.394710092550856 -1.4110841231146305
C 0.9152332469075127 3.4239564998650214 0.2616334985393579
H 0.18538146279771905 2.9831739350120756 0.9313001766409928
H 0.46102417793918277 4.262929791215438 -0.25631567380242726
H 1.7866879461545038 3.7448399526907274 0.825298652483993
H -1.4472693280341693 3.0312646306469913 -2.1034097661938005
Rh 2.697954298147991 -0.2441022384490519 -0.21770918002865222
I 5.0951354608911945 0.8477347733022758 -0.08793773377365713
I 1.4483624250632188 1.98870841753338 -1.1296704121144265
O 2.0626753994672584 1.1776803916042144 2.0634991342663573
C 2.6079713563096716 0.14031319359958536 1.7552051086914895
O 3.9027084640540735 -2.9547538246983405 0.013654523290557193
C 3.421232170135802 -1.9238227288657768 -0.026866000039604668
