39
## STRUCTURE-ID: 6458f600255d484337785f1a ; CHARGE = -3; SPIN = 1
O 0.6911100505022701 -2.084138399779714 -1.3801245437579328
C -2.0479310159937625 1.2109182749026113 -3.5544108504354655
H -2.285599764307747 0.5838234888556894 -4.406690282105829
H -0.9800987037956774 1.2021398297977817 -3.3510542715265488
H -2.4018153604748487 2.228547738278168 -3.6970494332004997
H 0.5093121483432826 -2.9208570486005137 -1.83544871472992
Rh -2.740936996947351 1.9944203124205562 0.24728548099212255
I -3.129951349097417 4.119199795405181 -1.2155806435343885
I -3.0960381438242757 0.3986296498441194 -1.8173267882152087
O -1.3638830558281034 0.5681410859748501 2.3183701097705423
C -2.229633179964813 0.5022052028391266 1.4383145141952995
O -3.6600137620482562 2.7983270373498104 2.966472099383289
C -3.3186366119788513 2.6172283944230488 1.8674585363220906
O -2.923509912863301 -0.6938555690131304 1.3600766217230105
H -2.6345785735051983 -1.3014529933522763 2.0697065713361926
Rh -2.3279680986432956 -1.9570726663168192 -1.0066063505682679
I -4.856842578323438 -2.5804066723605232 -0.8936325778023901
O -0.21622426058903202 -0.190537210348749 -0.6888124749299558
C -0.440504520803532 -1.349886769533188 -1.060395932642352
O -1.2678349742574124 -4.564033475617834 -0.04709501032587256
C -1.7149415022257237 -3.5815570566994346 -0.4679891341690773
I 3.7067426090401163 2.1705219647979725 0.716092322672512
C 0.3653385886389843 2.4998648018333807 0.11520740550019273
H 0.43043145614207223 2.9307102939246366 1.1264040759449763
H -0.697696162564202 2.171135681655062 -0.022319085966586955
H 0.5863438241069651 3.29643608376268 -0.6095787802755045
O 4.921789806657259 -1.6868147126294335 -0.595233883254023
C 4.189320971875472 -1.2711630340757851 1.9549929042076206
H 4.479880069776769 -2.2679415516727888 2.2631363382815355
H 3.610833310388032 -0.7668590771380597 2.7224671105083162
H 5.0558391936535 -0.6899236789668699 1.6597855107205495
H 4.953018035801532 -1.920546585898644 -1.5273180811620815
Rh 1.5844236222120616 0.8221799384064868 -0.0634744294817888
I 2.1565662393305263 1.1351711829349667 -2.6466461479271315
I 2.9257779556508505 -1.469069527931541 0.2575619381441018
O 1.559349706206181 0.8119620362497761 2.912677435302081
C 1.285474988445603 0.24739052727773583 1.8662525919524555
O 0.1708344287080217 -1.885266744449476 1.4974992482096707
C 1.1522515225587464 -1.1275705465470223 1.5270266008435354
