36
## STRUCTURE-ID: 6458e43789d4ba36b40db80d ; CHARGE = -3; SPIN = 3
O -3.520029141976995 -2.9826284739691675 1.8038401106075237
C -5.407912521771823 -0.20848994154397563 -2.4879870940162188
H -6.389863639391843 0.2558368883469264 -2.4359685227871437
H -5.422201826825285 -1.1601500284216018 -3.009950409399516
H -4.639881499337259 0.45550453968592236 -2.880927162191824
H -3.953353135058117 -3.291459388161865 0.980262536405586
Rh 0.45459821740899303 -0.548256227547764 -0.6810064454749355
I -1.601716368794093 0.591861207548921 -1.9492946215482059
I -4.831026809104019 -0.6398843699301932 -0.3921150235951412
O -1.9458804885186185 1.2702275131440237 1.3888646086192418
C -0.8283400020743222 0.7507039420265083 1.6077581608316385
O 0.7781167298813806 2.050421836176047 0.46322656421258146
C 0.23742122240256155 0.9462850033004314 0.5367604716825435
O -0.47731962832082625 0.20190639887041115 2.6952790091401924
H -1.651842699989229 -0.8156616863025545 2.8917014056738806
Rh -2.2995439652555176 -0.9351043775783212 0.1066154830629582
I 0.7610201508745932 -2.5694886410985855 -2.406595348747584
O -2.3334924879348016 -1.561669837255378 2.8882440329068495
C -2.746426903220254 -1.9170266951176806 1.6930955619319041
O 0.00017913794578042135 -2.4831073666513523 1.2793629651920015
C -0.5740000405118467 -1.7416997157694984 0.5567343035726496
C 2.4005590849826786 0.13516627947210078 -1.1410714702164528
O 2.6411351212373697 0.7757269632058844 -2.350956082924508
I 3.423315668677029 3.26640089354075 -0.8933545764975904
C 2.25388295179309 2.072825288606832 -2.418541426001058
H 2.4940219159667563 2.469901270622763 -3.402273734166554
H 1.2179621647884296 2.2672862567196423 -2.1204821573988877
O 2.6205702345977504 1.8620573892995227 2.5458007114847003
H 2.0614131477208835 1.691723014659085 3.327473794785011
Rh 4.032776967522515 0.7798533403654586 0.2844993857722186
I 5.760037997539615 0.20103765002067447 -1.6831967723553307
I 5.91077814473814 1.1742209577006746 2.111273016712018
O 2.2579194854995968 -0.3117867141677648 2.125462523463082
C 2.788743590795428 0.7526918445221453 1.7816774755544225
O 3.3767878356138774 -1.9614884895558986 -0.19193509310401996
C 3.15159138809836 -0.8437365247631118 -0.6222761811860351
