34
## STRUCTURE-ID: 6458f6f5dd494416a02323fd ; CHARGE = -3; SPIN = 1
O -2.9211260581522605 -0.36006040353097263 -3.9175397009827164
C -0.546037164106599 2.1505704667940666 -2.0049618293631046
H -0.9622390244928198 2.5857568372028026 -2.904867315211279
H -0.0923935744438378 1.1902527175145525 -2.2378263951920325
H 0.19252379926964 2.8131771849557787 -1.564933644393159
H -3.800191813355832 0.03402625686483666 -4.047845456319968
Rh -1.4796702647954934 0.8289125994968874 1.7530768124881175
I -1.33061301131766 3.202255649474085 2.8866772762004134
I -2.1163905559504537 1.791133036374525 -0.6186742550182598
O -0.03998444910143908 -1.4392341083750755 0.5733783523200451
C -1.1374951728859268 -0.91824219558764 0.8436688823905583
O -1.316940896041945 -1.1239775659218147 3.9865894519928857
C -1.381561135550564 -0.26775904428764286 3.2042961453505208
O -2.2377926561538137 -1.6835608244865374 0.5598533307442644
H -1.9848351708785745 -2.5495164200460976 0.18434153336504652
Rh -3.7783707700812834 -0.12946537622228677 -1.0935804760777823
I -4.683825051790745 0.9701094399043299 1.1835474557115335
O -1.582095010654582 -1.1950403072955416 -2.3705333212994333
C -2.6678666133636875 -0.6685886075003753 -2.6032341491649538
O -5.900912000324838 -2.0436465602174247 -1.9773894877815923
C -5.114818240022171 -1.264289358584832 -1.6419964876229092
I 2.7645989857303763 -3.5866465147704036 0.9028141075564128
O 5.329514186379737 -0.5273755400872187 2.493015788702412
C 1.906154049410093 0.9546747389810298 0.6487901763626471
H 2.6237468705289833 1.7615682200448972 0.48581893185836456
H 0.8928222242638348 1.2962164096393471 0.40007609128352484
H 5.740860056894425 0.03571048308544454 3.184817871184675
Rh 2.375436048485741 -0.9937882421600678 0.4181948515548437
I 2.1715249416520677 -0.9090071786032571 -2.2062896852276865
I 1.914274035641468 0.408171735857285 2.731957332608486
O 5.065229536972622 -1.1669406656885497 -0.4605855375117801
C 4.29869243527047 -0.723745817207708 0.3646765868448816
O 4.934090736975188 1.366936673091863 1.369107868666519
C 4.865690725989886 0.16141228129172824 1.4755588939804625
