36
## STRUCTURE-ID: 6458e43889d4ba36b40db813 ; CHARGE = -3; SPIN = 1
O -4.217561473664377 -2.525609758100096 2.479555259241197
C -4.284276517863117 -0.8442794455390348 -2.9548401658926218
H -5.240709845182339 -0.8463692287369173 -3.4647927687671376
H -3.548405800972433 -1.4812146261094066 -3.4333033001994373
H -3.8918855229394267 0.15788605068595474 -2.816924392228069
H -4.5277588561277495 -3.076879838639407 1.735898590338218
Rh 0.32938916378649846 0.5218523488782878 -0.5184973675640512
I -1.1666743641512687 2.082356455420348 -2.025123983514465
I -4.622340699325516 -1.6755529969005902 -0.9782277942077087
O -2.3320067194555096 0.5504533529198632 0.6597683778870213
C -1.147785505739936 0.2535364910672935 0.9267028961388185
O -0.07937234303847224 2.760518730880716 1.4051011105924158
C 0.12637039847431045 1.861591919654105 0.6983771366847485
O -0.711771255633639 0.13515749241810646 2.216200096423472
H -1.5050562338696094 -0.17965991218528138 2.7636119719697483
Rh -2.234590291129889 -1.6994865164999453 0.5102893128226128
I -0.6719106473872318 -1.626233668570366 -1.8202064101801285
O -2.8234162820872846 -0.9923001752066539 3.1651393508813572
C -3.1723810798364513 -1.7299095150121893 2.2441018575840492
O -0.4694287930081325 -3.936848775122091 1.4440721743050107
C -1.2539830117651511 -3.165518714431679 1.0963058412512523
C 2.016348149716485 0.0955851925397832 -1.8116673869092945
O 2.389693019552109 0.33104603003711114 -2.9622175899538616
I 4.012577440871387 2.8940557869320007 -0.9365154264689474
C 2.18147613415765 3.72330512193683 -1.4467223657595305
H 1.7485916096925003 3.150050027328326 -2.2696780590926307
H 1.5163380618183167 3.718249509017979 -0.5782244249189684
O 2.86183081235175 1.5799265307939558 1.752586547470643
H 2.6911081620139825 1.609376538054658 2.714225168910488
Rh 4.342226703241501 0.35755925464427846 -0.3511755223664079
I 4.776220444125203 -2.207471902724327 -0.9062997820135386
I 6.883211007481118 1.0032807346073338 -0.09105964435304778
O 4.117883427898268 -0.17609784456822405 2.3502534890682907
C 3.745333984933197 0.5740602131263511 1.466207783278837
O 1.7257714994310616 -0.8810594228589633 0.32525871375628407
C 2.436945223632214 -0.31535543973809615 -0.5881792942145955
