37
## STRUCTURE-ID: 6458d5fa4c8a811d88469757 ; CHARGE = -3; SPIN = 1
O -2.4542770446546474 -1.0728790201172203 -4.06306243067822
C 0.08762645510477818 -1.4394212846519971 -1.171893917696074
H 0.4454241619506405 -2.2651529736780267 -1.7813839286191255
H 0.8541411437462816 -1.1810665441435717 -0.4478063282766929
H -0.10338111733123924 -0.5753730425106054 -1.8113988921729387
H -2.8538585497682423 -1.908961575345126 -4.363524846499097
Rh -1.789074950857129 0.4128752473845064 1.0717067618057987
I -2.6965981000026553 -0.5740771577783782 3.250296864490119
I -1.663859536428454 -1.9305837521695874 -0.14945271218564843
O -3.8326376558858084 2.12758280291465 0.11288489126912418
C -3.577961339269664 0.9785407306775702 0.39113355161691593
O -0.4493205549851099 1.9210053185354081 -1.1122479300191759
C -1.0227700043755181 1.2597652305576819 -0.3556203005831154
O -4.461078956342146 -0.004593408882001961 0.29181977204279236
H -5.398074957852094 0.2857488596109331 0.15854800905025396
Rh -3.8105450952859634 -1.8915556244074607 -1.559649917442476
I -4.219415467808217 -3.248459033306165 0.6682149838979141
O -2.484058644930538 0.38567987873988757 -2.404309422875989
C -2.888997789112895 -0.7102330737635133 -2.81678880098819
O -6.242645372125684 -2.3011915949406236 -3.2585162650090793
C -5.307402285510188 -2.138268564470921 -2.6212805933480112
I 4.010876982586446 -1.4405161960962585 0.45462296287547627
C 2.7641021200173412 1.3167458246614847 -1.003736570166096
H 2.413001622295854 2.3635894404367326 -1.1353860088370415
H 1.9293733279432184 0.6850353216125443 -1.3758153060953413
H 3.5835357644106964 1.1623193982151216 -1.7255467860495246
O 1.2470534465269885 2.0719579941888617 1.5355363721333577
C 6.015965835527383 0.2714870314299921 3.788179518275063
H 6.232924844741243 0.1749296075389861 4.845951283370802
H 6.578773411977402 1.0767240552136976 3.324951235732565
H 6.164216318457322 -0.6633004042312062 3.2555675119645606
H -1.6438624821731804 1.7612027330714217 1.7981722857683613
Rh 3.2596330115279475 1.0354605967907247 0.9917205865060827
I 3.8734576229963933 0.7827541816834185 3.6257693301914116
I 5.469554581985239 2.549620698630198 0.5519388634649639
O 0.5852829537189349 -0.10891115925083457 1.6003874199699815
C 1.384876299188976 0.831519457855486 1.4400187531088962
