37
## STRUCTURE-ID: 6458fe277299530cb73c1d9a ; CHARGE = -3; SPIN = 1
O -3.933663780590145 3.131415602047665 -1.2602427900751079
C -2.720651194300506 -2.1020509003741625 -2.4272905828029585
H -3.4452709414303984 -2.7500033579233696 -2.9013723716319086
H -2.862703121753581 -2.0731387916988204 -1.353960627930816
H -1.7035699133495812 -2.393138919865926 -2.6618819145881703
H -3.689003321566923 3.025222015853891 -2.194345974491344
Rh -0.49509425368403825 -1.5061376308394006 1.611039623504754
I -1.1508239103993272 -4.045591512515241 0.7657077902956585
I -3.0145534160821437 -0.11509538134347437 -3.159013998636592
O -2.6573154099042 -0.27672933817664014 0.3640022439975679
C -1.9688937839541885 -0.2557893954206119 1.4100519694526659
O -0.03619354676886041 -1.3674596844101528 4.544195444338755
C -0.3905655160820873 -1.318469197453258 3.4274526850917075
O -2.27056624742955 0.6623719131929129 2.3613929215306437
H -2.865650262593284 1.3596476984629327 1.962995924907273
Rh -1.6090500978889877 1.3309735390378552 -0.913697096366348
I 0.3687130031517595 -0.5524858367937765 -0.8395117103533186
O -3.452918237056542 2.548489072264337 0.7940178122266535
C -3.121448471257231 2.4758494945107428 -0.39257292303045777
O -0.18617419211230457 3.7290829505523413 -1.9877381726185614
C -0.7524433596379746 2.7996293517755717 -1.6010471403686122
I 5.392453537603443 -0.2670873262843001 0.9782510365097701
C 3.664350391036286 -1.0926751475112075 -1.8694149852829665
H 2.9930543216099843 -0.813006575220968 -2.6910469876992282
H 3.7198508858871633 -2.1839428815240214 -1.8266805499994248
H 4.661906440413892 -0.7022997351421625 -2.0931677531079855
O 3.5368177417677424 -3.0283739013564372 0.41305012423848275
C 0.6193302401852425 2.549415401985038 1.832114718335197
H -0.13714747786257853 2.1214055236182077 1.1604802610854885
H 1.1418073565920717 3.357053710406843 1.3285833419200204
H 0.14590984314283972 2.886602458853813 2.7457131576337637
H 3.3777252511612303 -3.8456002107440073 0.9258311883091784
Rh 2.9566691925959367 -0.26323522054027826 -0.08286611174656305
I 2.059226408023116 1.038500232579323 2.343083700610419
I 3.1976807584406863 2.218839638826285 -1.1975195465953712
O 1.9073951928356099 -2.258677706018072 1.696297136256418
C 2.72080989125826 -2.0235099528109988 0.7891101570833504
