34
## STRUCTURE-ID: 6458d8047c0ecc17b176d46d ; CHARGE = -3; SPIN = 1
O -4.731989362567196 -0.35306519096669176 2.361124363500805
C -4.061798145532688 -0.33795372189708733 -2.5814347755312967
H -4.047308833295112 -1.4224969657721183 -2.684728503395867
H -3.5374506555683234 0.13508942727750875 -3.4107407989937655
H -5.075312076432804 0.04443832915431011 -2.483944754169783
H -5.231704198978422 -0.5602226343038664 1.5478182333170105
Rh -0.4965636194980723 -0.7975923779191761 -0.5508298563329284
I 0.3636823168265441 0.24244194863611693 -2.923967091749692
I -2.971267112098592 0.2219690039633763 -0.685573991256335
O -1.4447164636572567 0.5848815863177069 1.7024997038397889
C -0.9872581015445843 -0.5236607970664512 1.3460155034920194
O -0.4120925365017425 1.9655569041900482 -0.238317209016383
C 0.2584369617490584 0.9346999183235574 -0.2141262672387473
O -0.31829228061255155 -1.2470104350439875 2.3328760078619335
H -0.5041484537304134 -0.82052978210191 3.184355545268082
Rh -2.730209685570767 -1.9204279312267079 0.9276363990732672
I -1.6640623802235879 -3.243485200418927 -1.1773272802202457
O -2.926677748124493 -0.8226248937927231 3.52950597024927
C -3.509458344445262 -0.9573413215637052 2.459511603584229
O -2.8013240537148154 -4.078039136636086 2.979505579095187
C -2.876108889786501 -3.323852045229152 2.106078454740538
I 2.4565516045203757 3.7877625638443218 -1.6904785029864
C 5.57599733232918 2.3627110977301093 -0.7966499749946758
H 5.433141738918101 2.5611803045821007 -1.8583097557611017
H 6.503279901215223 1.809909210355369 -0.65176294669707
H 5.626313702235248 3.307310127255621 -0.253086372822073
O 1.2578295245261748 -1.653161544022664 0.23789864187224788
Rh 2.813378070524169 1.2607506126566659 -1.2575806327847805
I 4.781936451111513 -0.42664660380828734 -2.822425592777967
I 2.7573356872078048 -1.2505006339696816 -0.879155045623275
O 1.8601747985022952 0.9466168290399777 1.4710544910545298
C 1.6436076610214856 0.9850198135096165 0.25663877968070187
O 4.530020441017971 1.0310084191127102 0.9026413319084124
C 4.466056750178291 1.557265119790417 -0.1847212561855992
