34
## STRUCTURE-ID: 6458fe22c74a874d736f68e4 ; CHARGE = -3; SPIN = 1
O 0.9831104367193709 -1.6950337272614877 -0.5174077492866085
C -2.4933020141289943 0.5344364080658478 -3.858128736390217
H -1.8619529622688593 0.20594967990522933 -4.6776043572883
H -2.8636507265464934 1.545411322593066 -4.012124216941881
H -3.3188792038980894 -0.15321212860157507 -3.6830856398468637
H 0.5849932601486776 -2.3076450129280075 -1.161030633904414
Rh -2.8229791400086914 1.2247140040891586 0.011086247756196885
I -4.34334444473191 2.785228015492308 -1.4445538811800165
I -1.2025865052164966 0.5507630911625269 -2.030221635640164
O -0.40099998561589417 2.143499486863203 0.9318263368467166
C -1.3556429747929355 1.4356586078038989 1.2861777713252813
O -4.558990588836258 0.6095763200604329 2.3359638183622935
C -3.8871944037467308 0.8989222763709152 1.4323128505096359
O -1.4883188391428153 1.145733767837712 2.624393039873721
H -0.7428352394036288 1.5048725983785485 3.146368668275807
Rh -1.843113210989458 -1.3598207648994114 -0.07799936593441745
I -4.275052181253534 -1.5653706225327033 -0.9991925609795895
O 0.4868455905013584 -0.40290218955896695 1.2342575585008582
C 0.05155486388174868 -1.1368836689781727 0.3508304542875616
O -1.6094053493363196 -3.9601423744808897 1.360709787247399
C -1.6732502437543872 -3.0069178988301144 0.6903568569145043
I 1.9762739925423305 0.5766130846787956 4.267709884676207
C 3.788759164964015 -0.23686287003583908 -1.3118236679447854
H 4.102117568034279 -1.2024245735020933 -0.9143626586243245
H 4.637910875714501 0.44594228511149137 -1.2460630341062129
H 3.46895041599724 -0.32940150283430925 -2.3492102780663693
O 1.1281978897941167 -3.0631567333788503 2.0018449702373102
Rh 2.5768919488608253 0.2726004613938224 1.5149610284517165
I 5.174359552657851 0.27420830529729406 1.8268352365090972
I 2.8388801917351496 -2.3160354255145346 1.8398494542225934
O 1.7118051384900583 0.8941859133608211 -1.0597167156896825
C 2.6513374999330854 0.3462873566563306 -0.5197104076649597
O 2.2403181791291886 3.2419244933006865 1.529169808531145
C 2.3391914445677533 2.0992820149147513 1.4775817669606928
