34
## STRUCTURE-ID: 6458d37cc781003a434e4124 ; CHARGE = -3; SPIN = 1
O -1.699142120589699 -0.6220585724925999 -3.5278922857798825
C -0.6095990652715196 -2.9738067175590848 -1.1791634073067263
H -1.3074283172344432 -3.6561444997614747 -1.6489878089178691
H 0.11097510164440097 -3.508938873938887 -0.5728744122431996
H -0.10641363130460953 -2.3570372315497474 -1.9166679567429783
H -2.38336559296103 -1.3113175957564895 -3.5559042044018954
Rh -1.040974551437479 -0.10992619197933726 2.133439822435073
I -1.3452683666511804 -2.073104803243357 3.854097039563422
I -1.7437170838231895 -1.6668472226613809 0.1135636754360389
O 0.14563355707482395 2.142560026574847 0.6142268931265146
C -0.8561872052803663 1.4375511687821159 0.8680630352630245
O -1.9823459927961595 2.3194769076418336 3.5631444381088104
C -1.6344346148642805 1.2869391405098116 3.153460278894528
O -2.0181773098664975 1.913134891143946 0.31636098659301415
H -1.8478475050215035 2.7040974231772887 -0.23413179024628686
Rh -3.266848385957616 0.028638749791332768 -1.1143431036787192
I -4.715309575140697 -0.23157781570954314 1.0870092056114327
O -1.1955164438751078 1.2738694638102008 -2.497047893155605
C -1.9359658507051036 0.2961934582534766 -2.5084476933100763
O -4.968334443949479 1.3819593090812028 -3.1617676711018667
C -4.39162968920004 0.8368953925531106 -2.31121678339701
I 1.8643258863280985 0.46573810298690793 3.035197801357385
O 3.4999686331312683 -1.572451499223579 0.6323224697819544
C 4.375842160551268 1.3544419583107403 0.9138624609011543
H 4.7430491983795084 0.7529462166984752 1.7440680292571173
H 5.077576121320165 1.3722130212307762 0.08131874941218341
H 3.8022873482793313 -2.3867328236173777 1.091096547311781
Rh 2.4108474726884586 1.4588401214297488 0.6011626274832086
I 2.8504950317057216 2.322970860523575 -1.851358957020292
I 4.155640558676514 3.3847498547737325 1.6333547084435578
O 0.7342596033915126 -0.29783873296753366 -0.8509297203057534
C 1.6777992114432958 -0.19345082682706718 -0.07566968660986077
O 1.4111559950185002 -2.3081984028672022 0.9852915789773721
C 2.188649866297117 -1.4637842571185022 0.5853630262603976
