39
## STRUCTURE-ID: 6458cfae2380c743020921ed ; CHARGE = -3; SPIN = 1
O -4.185179247723736 0.16637409275000634 2.8500527805874922
C -5.997887318339303 -0.771802743581294 -1.9724953644428407
H -5.278771189049753 -1.3075540618879056 -2.58542894363371
H -5.830407276543649 0.29943915252712844 -2.0316113843131753
H -7.023835993077252 -1.0438507697747794 -2.1921974046847876
H -4.657477811744921 0.37198156281759776 2.0202882513670093
Rh -1.5009356327845957 0.45434589185365226 0.06967447244322535
I -3.1269163335843375 2.272346184228469 -1.107741041788725
I -5.626946249140285 -1.381011457388999 0.13429758778403228
O -0.29228779030066554 -0.9587525059320374 2.3927802214635725
C -0.8002578318165772 -1.0598929393918695 1.2463987582696012
O -1.5698503075429453 1.7723323041199477 2.7233482209446405
C -1.534436911973066 1.2659409857601849 1.664227817312347
O 0.0010194034867954049 -1.9982269535312542 0.4134732258877672
H 0.717706807691363 -2.325073839189683 0.9761644144194636
Rh -2.846988081165416 -1.5768930978145879 0.9201925736437498
I -2.1387323680879207 -1.568272973832269 -1.642921673118751
O -2.6954264384211646 -1.1766164027247976 3.7620022996796827
C -3.202287195183999 -0.8425965895076364 2.6959978534871643
O -1.8819066371596238 -3.928703407592573 2.3902215518232843
C -2.592053999186432 -3.2839314256504917 1.7168935952779738
I 3.53769835412098 -1.5009291121158614 -1.9526518344144563
C 5.258344234891324 0.33410687227257935 0.1314376760429942
H 5.942665929842911 0.1350785299468879 -0.69435306268806
H 5.3230771571321105 -0.49430935752812366 0.8435680446247942
H 5.547499073457627 1.2648307187451815 0.6329787745119315
O 3.2521464345197524 2.188137586251972 1.344592087141106
C 3.4282742881623007 1.5537838838764135 -4.417107076059034
H 3.7312925236863608 2.2846843550159535 -5.160137651984003
H 2.3505929920511854 1.4946308300980073 -4.2976709958067385
H 3.866766342876956 0.5742628265510051 -4.580981178125171
H 2.9484285896101943 3.0937591425943816 1.5652697044757662
Rh 3.2850889894420146 0.6431860895534031 -0.5222508900958605
I 0.6924048992822677 1.2476135754408404 -1.2734427530668009
I 4.197488990491813 2.262764978695045 -2.500511825965695
O 1.1996799113020347 1.576541178184708 2.0212540273473274
C 2.298150025127029 1.2503148852699366 1.5748026763019896
O 2.5262467255425802 -1.1675513359782945 1.7224994721232354
C 2.678012940108158 -0.12048665313091853 1.119086993227621
