39
## STRUCTURE-ID: 6458cca87a45292be56461c1 ; CHARGE = -3; SPIN = 1
O -1.5323876460154877 -1.9001353164087393 4.0997824101870615
C -2.872013622500466 -3.0336281339180267 0.972005150816652
H -2.630244694055035 -3.53940745039646 1.8996322919592072
H -2.9043288035971786 -3.7306715860135617 0.14337409440086493
H -3.8156250274153996 -2.510099667308996 1.0730156597044296
H -0.6129246683998504 -1.6487687759138445 3.9126851001146488
Rh -2.6595395903420003 0.43420473598371356 -0.7320728413625901
I -1.277454024633206 0.30327167469259614 -2.9842600580987617
I -1.3424864698821308 -1.5849032286652402 0.5845851713202466
O -4.663828800082395 -0.45629857944080443 1.1267723934564406
C -3.893961071187152 0.4734433479386905 0.8216800021814128
O -5.441710097106491 0.932248830294529 -1.6680171044318413
C -4.306389533552506 0.7426689398944653 -1.4470178105278917
O -4.265830142248417 1.7359197419161123 1.2926531963085204
H -5.070945104003699 1.6516382771839362 1.8339705823697228
Rh -1.8414593890507565 0.3645719908556262 2.3078374503160632
I -0.8974901403835447 2.2443187961271045 0.6267540175516026
O -3.6306280657581222 -1.3027004671443567 3.790558536535708
C -2.467807643490822 -1.0484126381403152 3.514029951057034
O -2.4314245547251567 1.9799388928419714 4.74475572761495
C -2.1339167098330103 1.4127402805545122 3.7751695938215835
I 3.6733195484715386 2.2016554508502644 0.5090063849269275
C 2.124313499907509 2.247805105839882 -2.4057570675181146
H 2.740258470630922 3.13893734623528 -2.5434348806660614
H 1.2311639668102181 2.5393472495821756 -1.8411572126025009
H 1.8074212184794012 1.8566521095271544 -3.3831115955972613
O 1.9574123532711971 -1.0202365489300416 -2.928946771358315
C 6.954946258371011 0.8789606348501194 -1.3945021125723305
H 7.888557187545323 1.1338977535371118 -1.8825409910393076
H 6.923936130784238 -0.15298523902310857 -1.0587816249921478
H 6.709612534591331 1.5591652083026415 -0.5846078539060666
H 1.7204934171935724 -1.640999967118832 -3.6452880771459384
Rh 3.056279068359222 0.6504229061566359 -1.4878101420050438
I 3.914975764654457 -1.7098810851970794 -0.4526579268965888
I 5.37306944538154 1.1082874737589627 -2.8940502878432133
O 0.6532565364857437 -2.3083346398106235 -1.631310924211842
C 1.346131934856975 -1.3130166848339608 -1.7691490746566307
O 0.9907314892945189 -0.36339436351820414 0.38467869993660075
C 1.6265169731660964 -0.3262223751478954 -0.67847205714702
