39
## STRUCTURE-ID: 6458ef1572857d64a653d234 ; CHARGE = -3; SPIN = 1
O 0.1124076846795837 -2.7857416434036093 -1.059360993794065
C -1.2581004309438824 0.372456282150224 -2.7760158399176493
H -0.38314403690946136 -0.21464867184679293 -2.5148074725410856
H -1.0866687631966834 1.417510698552938 -2.544762441183622
H -1.50154253623947 0.24639691096767113 -3.8238294172213587
H -0.38470330477163434 -3.3545960015666747 -1.6716270627649856
Rh -3.440384759998904 1.6713250238936317 0.13433906620583314
I -4.825090873889353 3.0387985389944405 -1.6435268849507054
I -2.908595509173263 -0.2768058092832069 -1.5619791094225028
O -1.45183234333735 1.0950639581724186 2.1098655983583354
C -2.463456978428476 0.6910947761415511 1.516628159102171
O -4.666077152431562 2.3290006185942955 2.7690457286960233
C -4.308603980461542 2.1546094943492524 1.6655045633177064
O -2.96538660499949 -0.524012405897008 1.9500912689984347
H -2.4724081724941867 -0.8360300285838137 2.734785615817811
Rh -2.608894344628905 -2.3466007469889734 -0.04683637673276488
I -5.227702205038458 -2.1395054178932167 -0.29200155664835653
O -0.03499208533567248 -1.548333919111082 0.7519499157073245
C -0.6653897023795949 -2.224356824373592 -0.07112382957196108
O -2.0499294670266086 -4.931347316362821 1.3330713532023304
C -2.3536261952868447 -3.9584945498508715 0.7832117134922314
I 1.9484958145518967 0.1410200143963964 3.1869540575248303
C 5.285191666073701 -0.27892243710791054 1.124490087066119
H 5.484181763872321 -1.0911322388313383 0.42567693512663385
H 5.160867786234668 -0.7009986228157306 2.122194185438151
H 6.108238452220758 0.4341210069165468 1.1203824789693921
O -1.3578577693338418 2.8339753600116726 -0.6887671733897691
C 1.5353794806731313 2.5195657687300517 -1.5338352260291483
H 0.9666220474913507 3.4337015579086954 -1.6561392540563267
H 1.4997538260766248 1.932860886319815 -2.4465289572734172
H 2.561781914743977 2.7335128095041688 -1.2550940141465496
H -1.3433058769969217 3.752445341409118 -0.4131234936996847
Rh 2.2926540484007867 -0.5344920621933951 0.6357240710436688
I 2.7991642510654358 -0.8478738872902621 -1.928744950719881
I 0.6122108933590842 1.445506567049118 0.07770269637721956
O 3.9548726649097814 1.6087765589017673 0.46714392728934123
C 4.035660595950087 0.4400229903862964 0.7306028690774654
O 2.6080355759500597 -3.40865186383513 1.2371827128962447
C 2.792174627048887 -2.289220716114587 1.0515570503565543
