39
## STRUCTURE-ID: 6458cdc44afa69725c2ba054 ; CHARGE = -3; SPIN = 1
O -6.615836287432884 -1.63718039073594 1.6172837213350746
C -3.068245317892946 -2.6781125571763718 -2.550790973127934
H -3.439820927943699 -2.786366819918477 -3.5615102852873743
H -2.242241175298053 -3.3471191439036687 -2.338551164494147
H -2.784369975354809 -1.652527205485464 -2.3405723010349773
H -6.4284441865145325 -2.584809713086345 1.7077561199892188
Rh -0.8541510793549495 0.3856575203858721 1.629784892419787
I -0.06118442773578414 1.697372364102478 -0.5571665005077256
I -4.665341283979853 -3.1800246635217615 -1.199066282140725
O -3.1273073193562677 0.04062786652910209 -0.18049779066024899
C -2.6928450471237126 0.5270497307735518 0.9074238364001451
O -2.5607088801678968 0.1379546254644905 4.06571173081041
C -1.7840402551693875 0.20549239300298255 3.1812876635528755
O -3.4219847821645004 1.583827251909064 1.4296980686437795
H -4.348909620421727 1.5097233519038287 1.1056419846432384
Rh -3.6967344784165808 -1.6296442772031086 1.1903137327102644
I -1.1630147716113013 -2.5030701090504097 0.7341778683317677
O -5.765975509015784 0.32125774252337475 1.1429545240109409
C -5.504470789472075 -0.8619258774793904 1.3639487314533136
O -3.7337662427333047 -2.8720822282008647 3.897211742468492
C -3.8313987978122603 -2.4753073369442573 2.805086853009046
I 1.7029258034226722 0.3544289131575759 2.449360983049595
C 2.2728767097808493 -0.9805796178906685 -0.8707895208412921
H 2.867519041068853 -1.3446285725467055 -1.7165892325809702
H 1.2193371009821725 -1.1228306319567443 -1.153099248973478
H 2.4578130575137775 -1.6465221171426905 -0.015873709090761367
O 5.1324234586638875 2.443357847919492 -2.3191322021526775
C 6.553288121254703 1.753626016239187 0.7961722802657588
H 7.523174318152941 1.4957668080365039 0.380214620937554
H 6.52217777075328 1.6545670915811126 1.876558522944526
H 6.209364831423453 2.7367721634179496 0.48735791790839195
H 5.6995637226491835 3.1974084112436567 -2.5960435705406226
Rh 2.652671158032599 1.039118423279393 -0.3664236269321337
I 3.2157614911521306 3.568257664439894 0.37770524960478974
I 5.120953691676025 0.26915877785057535 -0.0280291689776612
O 3.4351449626675983 3.518617186406184 -3.29582268286538
C 3.87349859753741 2.593322247986303 -2.6500977956522718
O 2.373710840602005 0.8471128528110544 -3.1514837377857337
C 2.9585864776389066 1.4222540112799658 -2.254111250843113
