33
## STRUCTURE-ID: 6458e4524fea567c0d7d5dfd ; CHARGE = -3; SPIN = 1
O -1.272935359528557 0.6278449574173153 4.399130993944792
C -3.070335311720119 -2.802209043662774 0.39749963753658335
H -2.810137940200391 -3.820085094213023 0.6769501192402516
H -3.6460070668861224 -2.7747597646831745 -0.5267255848733926
H -3.5512361513682005 -2.267416039780892 1.2113755176161598
H -0.39892080414169334 0.9349423427448461 4.679771510354289
Rh -1.5467357458118618 0.3307750299676051 -1.6413816271629689
I -2.8618040872451735 -1.1569861820017118 -3.317524801395305
I -1.1424935412161143 -1.7740059449526775 0.0009512919272017367
O -3.8540567042397504 1.923059492901977 -1.2851564690439878
C -3.382229549270966 0.8659800943768523 -0.9732154576042439
O -1.5363737767337424 2.517608875127923 -3.6623125517390234
C -1.5685774464400244 1.695967358118756 -2.8790168183101805
O -3.9223323040843643 -0.05025662855786339 -0.2314203339785503
H -4.846742425254676 0.1510568827066653 0.05087198643413248
Rh 0.20339718123555633 -0.15427388411493267 1.9778272865838946
I -0.5923464325187655 1.9433980904648553 0.4143016831044054
O -2.39548319002349 -0.3170794608565765 2.756313810423205
C -1.316018537776904 0.044700514536957586 3.17733878822237
O 2.453090682931152 -1.3059687931096022 3.545133655493993
C 1.438407367988726 -0.8867970397429493 3.1518853494152967
C 4.665047927310546 -0.8089853580632783 -0.8837962111767714
O 4.526672253477378 -1.5055281475038707 0.12476467837518242
I 1.1335801152820626 -0.37233461744849566 -2.8328198838118923
O 2.8994316706312553 1.4064837270433919 0.9796525716328623
H 2.4633104564012864 1.0892953366955218 1.813298527081783
Rh 3.0796417645893106 1.1513147360358933 -1.8193099257771728
I 5.150082622275339 2.602643779799591 -0.941536362067093
I 2.1113513057234026 3.2699330259086383 -3.181882038325298
O 1.8208947567311633 -0.3920363956255145 0.2242354486515657
C 2.5523781041281426 0.5720196429175413 -0.04762760059149375
O 4.851918667970597 -0.2289060622180173 -3.2471452868400954
C 4.365561497785014 -0.5093954302289772 -2.1104319033405115
