39
## STRUCTURE-ID: 6458f67e6b3cd46739466204 ; CHARGE = -3; SPIN = 1
O 0.1176637160867104 -1.3735826960912774 -1.7251547533988338
C -2.2325390573712625 1.7052442121820275 -1.989806258555165
H -1.3621086358225083 1.5540925419444318 -2.6159819196784744
H -1.904826445828756 1.9007306188044726 -0.9728087900608583
H -2.8391873631516757 2.5253580245713905 -2.3529846316919913
H -0.32638493809988606 -1.6731554822225536 -2.538045312331715
Rh -4.8541260177625745 -0.19827259558250315 0.30878667400812454
I -7.019452570590017 0.7707383643053526 -0.8289883606950477
I -3.4102757485035142 -0.04760293429991055 -1.897558328224689
O -2.2605632030186262 0.5363229022641341 1.1905833869852758
C -3.09520083265584 -0.3865269177626338 1.2202631998350797
O -5.546487844750282 0.11194450923154219 3.181837413498114
C -5.384648731441777 -0.02591721330375949 2.0387193702186166
O -2.8635392286532846 -1.421107721423276 2.105023527927018
H -2.033192342770841 -1.2797961103386448 2.5956816907083584
Rh -2.5074595833832296 -2.1991098463864454 -0.7532164410194668
I -5.035159112338731 -2.892225833054658 -1.103866297495316
O -0.09889808956038608 -1.2838937142134268 0.477135781621033
C -0.671153485638306 -1.5517500161741533 -0.5760058543126745
O -1.0881456542863692 -4.661380207842874 0.1415806849341638
C -1.7253921543410145 -3.7692968748540596 -0.22721196892028106
I 1.5834401893186185 1.0583932121696167 2.7066903587561293
C 5.0757573417126185 -0.11206308533271665 1.8521109187506444
H 4.56829027328611 0.04960553290075507 2.8009470893731563
H 5.914500826875307 0.5740896610299266 1.7456875246570043
H 5.444157999148361 -1.138844692954207 1.8428234009720783
O 0.5680972337678462 3.012124994943062 -2.393294323754475
C 2.6594313003336785 2.949691319683604 -0.39891167502830266
H 2.2405041171205 3.8257529174019695 -0.8756105206338476
H 3.6603073798971253 2.7370623890355845 -0.7555715272415998
H 2.6441618962549285 3.0523283796237375 0.6811461667886319
H 1.1410167855966122 3.0924778457808255 -3.158469490352154
Rh 2.2667523043854567 -0.5632370780265618 0.7465296136764609
I 2.6762895028365494 -2.736493704979286 2.3391522607235764
I 1.4001977038525684 1.3088284316623846 -0.9474413838790492
O 4.57229333428916 0.5630315919948223 -0.3657422630482364
C 4.1660755801310545 0.06396954282275136 0.6621898274745717
O 2.9026561244336886 -2.4133728519955193 -1.499585180961687
C 2.6571474306418135 -1.6641574155141676 -0.660633609624253
