34
## STRUCTURE-ID: 6458e97f27e71c3f2a738a64 ; CHARGE = -2; SPIN = 1
O -2.9004726753618626 -1.7385028568054612 -2.9803771371204264
C 0.24539827130097483 -0.11490078947070785 -3.0351569417746425
H -0.06265255448318587 0.2725295989192773 -4.001882290040678
H 0.002894349418982818 -1.166763910056189 -2.9200775706846014
H 1.3046713221371298 0.07285310205088623 -2.870623332314722
H -2.8315079632615445 -0.9733258905388188 -3.579036302829015
Rh -1.2795976058825915 1.3025843095510503 1.1802591062947712
I 0.6792795732404338 3.129886424936672 1.3407509164296008
I -0.9006414867576275 1.0573050384849028 -1.539936408716502
O -1.5713437591127755 -1.4936523756625237 1.002567221792736
C -2.2010091600634345 -0.43469934905454055 1.183351208921924
O -1.5309124312043159 0.5523664767717794 4.05981955903282
C -1.3061923562992368 0.8634377564682699 2.9575140560899005
O -3.465849917499971 -0.5414782366386215 1.6989066073323957
H -3.7283135380561814 -1.4793766672435351 1.751891789299025
Rh -3.4077057224162024 0.43619310419503604 -1.0854818052674746
I -3.4674124826716124 2.8697466333187402 0.1474840813312851
O -3.455188107648393 -2.3552052314797582 -0.9386398255955016
C -3.267848179807647 -1.4171989327762042 -1.7031490682842239
O -6.304404533851589 -0.28877117852692397 -1.294626987546292
C -5.204306896264842 0.06660931645896206 -1.2336100695024341
I 5.11825919597083 0.15752126863772206 1.4045823042657806
C 5.709082583886941 -0.5827411206273525 -0.5805207099348499
H 4.898033172819442 -1.219390484235012 -0.9266105376953236
H 6.635000258033593 -1.131587262269767 -0.43738962348634247
H 5.830654928577702 0.2849694165271295 -1.2235924242973113
H 0.19033420365120576 -1.578393488413708 0.5683439206799981
Rh 2.7352989043218128 1.309999432883263 1.2530389483997642
I 1.643245160505476 -1.5932342453554857 -0.023634376524421876
I 3.1834415084903718 2.1094323315150367 -1.2039877866665611
O 3.225804675132958 2.1047641939513633 4.079728294410515
C 2.670870852829197 1.426708874742835 3.241078856727907
O 0.9513240240067574 -0.3631330814685483 2.921476226197999
C 1.8617663863192913 0.4554478212102885 2.7875401010748906
