34
## STRUCTURE-ID: 6458fc74bb3043105d59ffb0 ; CHARGE = -3; SPIN = 3
O -1.9548034787200452 -2.644940397264988 -2.975533778138485
C 0.0604623468308885 0.4149847379439396 -2.7420481013569344
H -0.28290398944780454 0.8186550505688556 -3.686668626747241
H 0.22711031633268094 -0.6565094877597755 -2.8173332168604293
H 0.9770890216589385 0.9052855526405303 -2.4309983688814216
H -2.619320720709066 -2.177178264292631 -3.5133287160015456
Rh -0.9114260254427053 1.2722723202695172 1.3865183969352155
I -0.6423048882179473 3.805756618038268 0.7951201216824816
I -1.451529680840972 0.7407454094319463 -1.2746805208729717
O -0.15947090595852226 -1.364637282778621 2.2338823445503224
C -1.0726869257769283 -0.6835530923712618 1.7674830509543489
O -2.714852464131336 1.3204842288257277 3.7575235384046133
C -2.031762495088071 1.40935275857568 2.8427271421812565
O -2.2724652727926524 -1.3039965875577644 1.53835291020087
H -2.243505461888571 -2.241771135887778 1.8103474213785684
Rh -3.2770170608581384 -1.042603407287214 -0.8990908675886121
I -4.313149320364742 1.153343479747745 0.1682043415038905
O -1.4598673747730002 -3.1386551129109614 -0.871053241125214
C -2.1458383638550367 -2.455242632771863 -1.6233471159794997
O -5.453545107172136 -3.08344575475113 -1.082277027839516
C -4.666790033146272 -2.245153265153903 -1.0182607661198209
I 5.3309267719102555 0.2684271593486117 1.9344184028639029
C 3.677254525201935 3.1266596121129164 0.4380126896014295
H 4.750068473599494 3.0934000960877888 0.23794528482596752
H 3.5429996795376755 3.223696677145833 1.513374690252816
H 3.2291962061936115 3.9716439252851954 -0.08479159686726957
O 2.0523642988796897 -3.557523153587358 0.8744249927637593
Rh 2.909870948269426 0.16868198726668832 0.9806350890859393
I 1.5198931817919403 1.4069975110928779 3.0967836816133825
I 3.3680729444503466 -2.369502715290187 1.483440969623474
O 0.7462804130294649 -1.244478194147475 -0.510699381053338
C 1.483808306288409 -0.526841497705299 0.05216084399745183
O 2.709221148181231 1.7774532512542802 -1.2710435479971307
C 3.088620987028053 1.8581916058817347 -0.11020103899029421
