39
## STRUCTURE-ID: 6458f11681194a4c7b6c9d3b ; CHARGE = -3; SPIN = 1
O -2.4653324910758982 -1.4323817529633738 -3.001777791674494
C -1.6297030676904185 2.2458269165403695 -2.2860540178659767
H -2.174604779462682 2.5349817837293394 -3.176396599412472
H -1.0336135553928276 1.3573537266828413 -2.475013110369124
H -0.9783997359788648 3.0461151403456683 -1.9516358205393105
H -3.3485677988983675 -1.4256364981996503 -3.410044048728637
Rh -2.0987524532840096 1.5992608772768184 1.7476132905425024
I -2.2602253942713304 4.163103722183624 2.1343494180003955
I -2.990896845679513 1.777295343223454 -0.7232678254418989
O -0.5894363982284861 -0.9333782816667396 1.7998124903904713
C -1.7424970399604776 -0.3279638400951609 1.63361667859458
O -1.7706674014021822 0.5454902847751721 4.499116344794309
C -1.8923100563859878 1.0969869115573316 3.4842741748022226
O -2.7453421615296243 -1.203276969221708 1.6647392274480135
H -2.4571824187978137 -2.126510388441328 1.8281506480439578
Rh -4.031923709837485 -0.5912935295360426 -0.6165992895182703
I -5.3920737456827075 0.882947889741493 1.1551781134986665
O -1.4258964054139576 -1.253833781493612 -1.0575792608698948
C -2.5076360296362723 -1.2184423266487014 -1.6528677164764107
O -5.543238414635744 -3.1323070225175615 -1.0849232275244776
C -4.986778958031121 -2.137205326699056 -0.9038917546653813
I 2.9050755514114557 0.8874653122246372 -2.3904098310138933
C 3.120056038872491 1.5827899775389707 0.8349269311623694
H 3.1364127739881362 1.4023452713504994 1.9242245540947787
H 2.410047208356332 2.4129610973980045 0.6814838358230546
H 4.108730509745979 1.957099089846477 0.535518958884001
O 1.668165188265696 -1.0424457962244469 2.0727443743766445
C 5.759874013739602 -1.9372595078934003 -1.807053282490263
H 6.778741375559781 -2.2964033537224235 -1.7184721293846141
H 5.665676714030837 -1.1328646675931988 -2.530105933646322
H 5.0582910633488085 -2.7366906168141742 -2.026309649880155
H 1.7664502123411272 -1.124858028017938 3.034274057436177
Rh 2.549596272241261 -0.21562360674560507 -0.06467647400297319
I 1.8583099238929084 -2.6094131727706227 -1.0346156946809804
I 5.199601339148572 -1.110225336745591 0.15257281851922708
O 0.6057547021705565 0.8771449985517462 2.681097979356731
C 0.6494437629125834 -0.050142716058022535 1.8036142668454822
O 0.007965407974954685 1.2251171531145262 -0.11550267931007269
C 0.8168868032744772 0.44387102398754097 0.35988797488183594
