31
## STRUCTURE-ID: 6458b7c6e0251655be7a42fe ; CHARGE = -3; SPIN = 1
O -2.5528478738157787 -1.0985094412527303 3.6471533611440226
C -1.6165367716891932 -2.931351800195034 0.7473956800736143
H -2.0356718041808537 -2.982355041232031 1.7455207663293208
H -1.1634390970126751 -3.8736690249432173 0.45890557231646634
H -2.3679157240688737 -2.625221696864348 0.026903343322476823
H -1.7972630520786892 -1.0537731947429239 4.256674390662467
Rh 0.3374033300610351 0.5789923516294117 -1.6053599360548236
I 0.33523480713126846 -0.6053607977642924 -3.923092336646218
I -0.09765653911639559 -1.4373907995845705 0.7241107904082665
O -2.2331452919091115 -0.45867072859687064 -1.2847274560927355
C -2.062364850020124 0.7450419263873578 -1.0750138178826891
O -1.510494515597367 2.617260627523844 -2.5542561143266984
C -1.2192745032035421 1.615280389782112 -1.9520318516846265
O -2.563066615198053 1.3667362935423137 -0.016618317921031127
H -3.0542455036903324 0.7038167156521125 0.6039769704747662
Rh -0.8514535380123429 0.703889558620781 2.0393376731478132
I 0.9601887410430042 2.0835553293947635 0.5524615754399385
O -3.400911201267809 -0.30204016058506244 1.7876739733840545
C -2.437523313934677 -0.2996331463529798 2.5666783698001536
O -1.1490442597222439 2.715465274407659 4.245016703437001
C -1.0914738231842211 1.9433291461882436 3.3952985444714243
Rh 2.714068605248792 1.5423625453792382 -1.4907910182108701
I 5.019699834794829 2.487097525244548 -0.5481445281272022
I 2.0208685450749555 3.8707680741723167 -2.693755549232749
O 3.914428249100027 0.5922681060596692 -4.020345021563565
C 3.4157701895269246 0.9522633444874223 -3.047956004693787
I 1.6384833630077322 -4.254194714931033 -0.3507681960076489
C 3.14458825704008 -0.3662848013782483 -0.6822905421257925
H 4.155483873010989 -0.7078670553969534 -0.9363242827657215
H 2.4706729527832154 -1.1664957840343582 -1.0320112390130682
H 3.077437529879461 -0.35530902061721764 0.4163784979375182
