37
## STRUCTURE-ID: 6458da122967e76d4e3e2a24 ; CHARGE = -3; SPIN = 3
O -1.7656222349449064 -0.6049262204825825 -3.553666547346339
C -0.909338121214356 -3.6566204515283167 -1.0208041022774446
H -1.4936589071180664 -4.295004359772956 -1.6759039158466875
H -0.5064694813350165 -4.218461787003546 -0.17972634549509947
H -0.11725610754527588 -3.1302529390237335 -1.5466419041709336
H -2.180229113408886 -1.4855501676213296 -3.609016504620585
Rh -0.9356036491070737 -0.6898887114502135 1.5936877271484644
I -0.3973086100201726 -2.743261296855544 3.108765945348706
I -2.284496178707747 -2.169023813495539 -0.14387444395994664
O -0.34915129418723984 1.2890630748110103 -0.36890900014827543
C -1.2210619231479967 0.8357113917784443 0.38330880132208106
O -1.3458148407216972 1.5728121615357007 3.5043448942574904
C -1.1367185376192164 0.628761372240633 2.8462525075220557
O -2.461203492394228 1.4554907555915098 0.331613100549048
H -2.429749460229984 2.205537028394215 -0.29291460335057373
Rh -3.7197724533269896 -0.31849096240804337 -1.3587659567640458
I -5.413036498946698 -0.725804508716993 0.6211819225143949
O -1.9809304390417573 1.395192838558818 -2.6289449373347864
C -2.368462011906617 0.22942279723506584 -2.6554167441996155
O -5.449125059362341 0.8978202097234018 -3.470487854755697
C -4.842200996565017 0.39432521695978323 -2.622442004162679
I 3.0780724594118265 1.4160942594032793 -2.4854099811955135
C 3.3028518352203307 3.510268368678251 0.25723027346454674
H 3.525512477360476 3.8510188627429733 1.2802885948980947
H 2.48106507208246 4.147394813592863 -0.11730777654807792
H 4.190422646671355 3.714141224470933 -0.3571632972120921
O 2.0141263693475304 1.135492865929267 2.8800588045981783
C 2.7166620015978955 -2.7408759011433226 0.5846166660951798
H 3.6743457294373596 -2.402143625767948 0.9721961556159368
H 2.8457868488478884 -3.2888574980155965 -0.3439708340863801
H 2.1829181111289837 -3.323816372865831 1.3326658867750727
H 1.55565957086473 1.4218226899715307 3.6931285203598865
Rh 2.7080160202991803 1.4787370665084305 0.15648655498992997
I 1.4854121909012963 -0.9239622007884557 0.14085913255816787
I 5.046570021354595 0.4806679949145666 1.046259252895072
O 0.8082762751533562 2.756276623632889 1.912659424695076
C 1.6915117811988316 1.900889200282383 1.7857625878998578
