34
## STRUCTURE-ID: 6458eb07d3a3f2394362e974 ; CHARGE = -2; SPIN = 1
O -2.052708892668929 -2.6184491216123575 -2.8524178745040563
C -0.23202838431112907 0.544385088762849 -2.7372478665178064
H -0.5735079202870755 0.5757036569230233 -3.764983694551681
H 0.14393948673864232 -0.44496001873228985 -2.486010888582393
H 0.535093022549712 1.2906309972658077 -2.5633102435177033
H -2.699843168984723 -2.2302049071333045 -3.4657942504673063
Rh -0.675139735991554 1.3341396307902769 1.0237574024036196
I -0.08104248958718248 3.8160286355355626 0.2700881985539878
I -1.8969218683524938 0.9409564298036236 -1.4598796095256685
O -0.28457949434320345 -1.3577983851685396 1.8947877071836803
C -1.1207628850539417 -0.551782837808716 1.502790422345497
O -2.8465752717661315 2.1414285086585454 2.925903625683827
C -2.0578246813294414 1.8804447492583285 2.139652967224139
O -2.419386706176294 -0.952669301068353 1.4149185861732145
H -2.519004933288183 -1.8837628509463857 1.6992947726137921
Rh -3.588379805378097 -0.9300877923672011 -1.0022937310329854
I -4.863111331348745 1.2290083218613528 -0.12847854062360753
O -1.6367994344448427 -2.86657722428894 -0.6893527239775485
C -2.3245448212255115 -2.311926330814149 -1.537896845787218
O -5.634819938456328 -3.098673930081933 -1.2598299162962523
C -4.893738371189392 -2.219033771298363 -1.1528146534291863
I 1.3094003156487408 1.3456725793280604 3.092484408108548
C 3.818324571344021 2.430023261974878 1.1020759710959391
H 4.266077692329142 2.460723424798808 0.1051209140609598
H 4.527984749188284 2.763420837753744 1.8670905834926708
H 2.953168781061248 3.093333369854125 1.1116252621166576
H 6.827011604260069 0.9046973738706372 0.7708702571631084
Rh 3.3074019046182523 0.4921399597123354 1.5945232036796542
I 5.747341834316827 -0.29101399031413555 0.8452296076296012
I 2.8336293573334617 -2.3546160321582823 2.022126939056764
O 1.339538584211515 -2.2653398283056494 -0.5895598745721693
C 1.744558762027076 -1.487751221061834 0.26350596647164076
O 1.1023887609888938 0.730605645371629 -0.1933557015730643
C 1.9448607075669964 -0.10869492836275237 0.2373796199012661
