31
## STRUCTURE-ID: 6458b5bc6aa5625bac239c20 ; CHARGE = -3; SPIN = 1
O -0.6916199098089801 -1.4054387899854812 3.245017831076783
C -2.1769068733893633 -3.026325598124963 0.5054712651999
H -1.8816214757402834 -3.3952293134775178 1.4812569051050848
H -2.404608547908667 -3.8309496452741336 -0.18382474172365024
H -2.9998729361995538 -2.324305810396808 0.5864643626061162
H 0.19355969564925882 -1.6628163772488564 2.9398798084283526
Rh -1.46869128201616 0.20995324383413969 -2.0686697794720046
I -0.446787544266998 -0.834989547654119 -4.291199219549431
I -0.5116667477952433 -1.9178959726620437 -0.31799018279926455
O -3.1850049035190406 0.04277132961377098 0.19769935119813267
C -2.423441671207062 0.7862253106877707 -0.4369841493616747
O -4.298446248497226 0.8010648804297995 -2.7779951259208175
C -3.187494696856739 0.4825374091496321 -2.6294141937942883
O -2.5262418128090234 2.1432133564137965 -0.20592290032209923
H -3.204679342834351 2.313039470667585 0.47530937142752056
Rh -0.3646722719983852 0.4475198999679907 0.9961559894443609
I 0.6233038842031265 1.6835680098986718 -1.2190539092632824
O -2.2938407499986 0.08473727625145665 3.0091421206501896
C -1.2321861237063503 -0.3283892343284835 2.5797972327408476
O 0.6076546021965497 2.511813990777061 2.938649855024029
C 0.22568390700685814 1.716162873979292 2.189137650820155
Rh 3.2800107863287917 1.0421925355321928 -1.3673913982197423
I 5.83203265795967 0.31274680188967224 -1.4607855126497493
I 3.8934546613322993 3.5015889011529615 -0.47998551913156523
O 2.136794985611467 -1.6502359735117338 -1.7908544020780994
C 2.6819493039194704 -0.6324674445412931 -1.7513075360925991
I 3.3454958377166637 1.8882838257197272 -3.9786559631543392
C 3.150609168437649 0.3510030039639476 0.6645613793750538
H 4.052415514895928 -0.1565627776599137 1.0175374278845437
H 2.309563379109227 -0.3539978713631267 0.8014604493342671
H 2.9652547541851373 1.2011822362989362 1.3324935332174968
