39
## STRUCTURE-ID: 6458f3fbc02a955f544e67cb ; CHARGE = -3; SPIN = 1
O -3.4968798754963384 -0.5799651868861517 -4.102846720298445
C -0.4079369468058012 0.3321293982585854 -2.7796099746005836
H -1.0068178371825305 0.2910840279843419 -3.6835331307711687
H -0.1709470235827772 -0.6795187915614239 -2.462922348485085
H 0.4966664285242927 0.9007826285750884 -2.947453034578335
H -4.106464746520895 0.1705474994010885 -4.218744887435093
Rh -0.8169294817626861 0.37605210876840595 1.1216619620919683
I -0.040654729488338225 2.8063594654786876 2.0447722786338343
I -1.5437884660461163 1.2526918268227647 -1.2707723484083229
O -0.4848136169953859 -2.149991338296568 -0.1661204903740576
C -1.2951149941336604 -1.3303921907272558 0.2825993771960642
O -3.2765611589075228 -0.45671178001670165 2.585967129706486
C -2.608680179001726 0.31753294391569276 2.05799697839243
O -2.6155650744110504 -1.625858932802401 0.19002256091259867
H -2.755651681868306 -2.4506922833443934 -0.31649011487524903
Rh -3.9228303796044277 0.3349398655534142 -1.3924395683598985
I -4.0563422377351355 2.5599248591130297 0.06563584767882588
O -2.6940741089328477 -1.9586368612065737 -2.578804732164061
C -3.346347070649244 -0.9359053693598816 -2.7756536406351926
O -6.687334412672541 -0.7987608444553501 -1.5032260229739274
C -5.644857003178922 -0.3102219128057205 -1.4958490470132444
I 3.4810962712526283 -2.6193094163681643 1.1550573014532235
C 2.3785417557341977 -0.7073039515653382 -1.2572062537881938
H 2.02387862822444 -1.6068488606133582 -1.795741624888481
H 3.4781281256513066 -0.7420463044881472 -1.2791017518188434
H 2.107863747759811 0.16145553597902654 -1.8678909281277807
O 2.8042921784048005 3.178212476827172 0.10857363097416493
C 4.043871310004083 -0.5326829511925348 4.518543810631293
H 4.024979795156403 0.23728338757129366 3.7584640263496008
H 3.0934121890631956 -0.5755163833680517 5.033684329291453
H 4.282173750360166 -1.4914017311260939 4.078762933126854
H 2.600402219433219 3.9256083695613153 -0.4873635780083893
Rh 1.6232018451538757 -0.762715814539948 0.690199577916391
I 0.4167695720843136 -1.03042282552619 3.0923927330059975
I 5.54358009524289 -0.058894081984600256 5.915439199291621
O 1.159751106158263 2.1332323323346176 -0.9713185454041038
C 1.9546689311177166 2.1674564720518545 -0.03108148427559227
O 3.1591556654403536 1.2368070275784235 1.7723874352118454
C 2.3061574102100506 1.0216975864597153 0.9120091154193938
