34
## STRUCTURE-ID: 6458e9107a56b820bc13c950 ; CHARGE = -2; SPIN = 1
O -0.3374437491955693 -1.244980857748684 -0.8384393024243573
C -1.2296525558447566 1.176435958461144 -3.2475832831473683
H -0.8325233161630735 0.5098294079381437 -4.0050202097664895
H -0.5398453379608217 1.312695964171031 -2.4208008957411917
H -1.5140558193880298 2.1342880632857004 -3.668132167674772
H -0.868212109806809 -1.3217600685063187 -1.652858966674956
Rh -3.5550435129730396 1.355741371180232 0.5023134377847015
I -4.578566296282628 3.6343245260813943 -0.18692716877891094
I -3.0469931377915502 0.2767278004632951 -2.4379816260436713
O -0.7843739185467656 1.7084277468035933 0.047158497094370505
C -1.7685525301674334 2.0373895994695204 0.7230079926016971
O -2.3751663626219632 0.13237485201767935 2.8909895040458085
C -2.779147148538413 0.2029038515336925 1.7799490019800066
O -1.5979648393949109 2.8656516684953424 1.7913471642896177
H -0.6545678947137217 3.055491361884509 1.9627832406897292
Rh -3.027158648529266 -1.1802142847979642 0.2819752359268909
I -5.63838909918817 -0.5354286645773855 0.33657288636814536
O -0.3856240022644824 -1.1740485757260672 1.3538155824451974
C -1.0657507681775784 -1.1858233565771223 0.3227630316716076
O -2.486430351200239 -4.109316571627984 0.49769963938213246
C -2.828016976585893 -3.027618074709458 0.2663222499207175
I 4.417012472141051 -0.3369954929632441 1.6142489210184499
C 5.262461777140391 -0.21378938886330062 -0.4106881554552709
H 4.493914192644125 0.21324194347742004 -1.0502270387988202
H 5.525148254896166 -1.2218070120229358 -0.7181947871046063
H 6.1348915367049575 0.42915706263359266 -0.3501281863133573
H 3.721149606219473 -3.695755807533431 -0.5415123506255763
Rh 1.8122208915650444 -0.8607308123871408 1.4007962071736848
I 2.395351717769545 -2.8292157311416357 -0.7933239333925725
I 1.8876601690402561 -2.6871438826775553 3.376952848396121
O 1.0462346465184247 1.8029909170922014 2.3798876214640976
C 1.403689661043941 1.0617212277616848 1.4884200484587455
O 2.0465968148382063 1.034259924497776 -0.909140556668095
C 1.7471466348134668 0.6809753346123122 0.2139555178983582
