33
## STRUCTURE-ID: 6458e64d9bc7ed5a992b2dcd ; CHARGE = -3; SPIN = 1
O 0.09479966278202098 -1.633066106194543 -2.681034252940492
C -0.9549680202413084 -3.4890243907359233 0.421211583325325
H -1.3862451442042245 -4.3064809085743025 -0.1459724362851546
H -0.8572057377979909 -3.7383938186611028 1.4741749067719603
H 0.002272669337334159 -3.1787368200257937 0.01366750232698098
H -0.3608846691398111 -1.6818432201292572 -3.5356210241539316
Rh -1.670152470760147 -0.1208982266182253 2.265263365046611
I -2.4991140943934624 -1.90760419216584 4.007545748530067
I -2.317306665948063 -1.8063112034720836 0.2765880654307086
O -0.1639161759306926 2.1377810728990974 1.1485381275005473
C -1.1481766897932801 1.37484833264946 1.0739886967328212
O -2.3579379293253275 2.4730260854438297 3.563263548197931
C -2.1651515338167084 1.3869734338008188 3.1844977821257032
O -2.1130869498754 1.7767434174691146 0.14655158710649605
H -1.9267915191895144 2.672461795841696 -0.19764396033580647
Rh -2.2368294554484853 -0.19645873781442233 -1.7383113587838415
I -4.830173300701569 -0.2850751279498296 -1.5294363034879503
O 0.3038081662086732 0.6868773284923255 -2.695880682388362
C -0.20277914964720012 -0.44244611821637203 -2.0103885233500365
O -2.302740898463423 1.7954833596474418 -3.9492297195413784
C -2.288438817192684 0.9858554726358615 -3.128782181765567
C 1.0389962593362663 1.4228341246851643 -1.8201142362639795
O 1.3112213958207923 2.590235694173707 -2.070136810231284
I 1.0845655064633772 -0.9753379184510055 2.2917061633061757
O 4.587648080711128 -0.18465653327814682 1.4978982145412894
H 5.329742885070459 -0.7899602587483777 1.278869779765764
Rh 2.199274508171004 1.096064406592003 1.0229669086650797
I 3.7295276505489166 2.921882621205494 -0.14583256383273743
I 2.900582226289927 2.079126803966254 3.385026935019162
O 3.745665834359011 -0.695276476736556 -0.5077371078300984
C 3.680091537466623 -0.09026788696507501 0.5427472077754093
O 0.5171482951640961 -0.4847259606032947 -0.8035052793851885
C 1.2565545441396755 0.6063699558378421 -0.6348796815922217
