39
## STRUCTURE-ID: 6458f5797341a430b2176b74 ; CHARGE = -3; SPIN = 1
O -5.563082112713219 2.370109457730893 -1.3880469696678934
C -4.853447993524121 -1.1026650464846213 -3.3272698319333123
H -5.850031273059187 -1.1007832728270868 -3.7476610409225835
H -4.87098426890398 -1.0105206824534885 -2.2479775722622666
H -4.285528559217346 -1.979559793577986 -3.6117996752010257
H -5.43077515352282 2.158566183284231 -2.328460591064792
Rh -0.1824511538743965 -0.9051243865288581 -0.0666171683788932
I -1.5421528879117954 -2.6130748684884937 -1.630786028756759
I -3.8103390332655764 0.6207996996188825 -4.098165744457978
O -4.059999399847542 -0.43118438206046333 -0.22800708951208618
C -3.1294032664488274 0.3912438582622747 -0.2689323595745564
O -1.3261472620058214 -2.5795831540880525 2.085334816426016
C -0.7373583229316473 -1.9892312954118039 1.2737575002625408
O -2.4351119874382476 0.500106051787081 0.9761130718275252
H -2.9502254335102447 0.05124993488512899 1.6722193312373717
Rh -2.68140035156315 1.8581940797469712 -1.5639084713611353
I -0.15010718864566427 0.943816035160605 -2.0104061537480646
O -4.4946880199268735 2.8057258360119293 0.47986553048913866
C -4.361258984253359 2.4389146401324218 -0.6863060622097205
O -2.4531186132918017 4.797514481118538 -1.9601871003365179
C -2.504903921780177 3.6371324463740367 -2.038116711447768
I 4.044720399488753 -0.9028306546890804 3.91983602432061
C 5.052526269597633 -1.9069928183619376 0.9428772166044711
H 5.233438991099887 -1.7440720103252554 -0.12902587198662763
H 4.753462027970859 -2.950856660905828 1.098372979982932
H 5.974857157531918 -1.7207343031397124 1.4966713743562707
O 2.571145584953641 -1.017970692356967 -0.8141588218875168
C 5.138950192994823 2.5906394638114345 3.039648585918552
H 5.641569329908959 3.5371120114760015 2.874648764644556
H 5.6787706132083855 1.9381563390813086 3.7183942720185525
H 4.110011701215559 2.718650063196115 3.3577892923467427
H 2.764765604489504 -1.3569843229822875 -1.7063607030353074
Rh 3.4855968726687556 -0.6365319118444581 1.4221169509345049
I 1.076405793633451 0.7651213308708686 1.6048914118905544
I 5.059864507564894 1.570850020759331 1.0995319058831876
O 1.6535679165648536 -3.0954594158505806 -0.6531551605894067
C 1.7923340915587727 -1.979711381043691 -0.10230262363241817
O 1.5415131280450405 -2.7057547657162355 2.1688610173757557
C 2.099015005139565 -1.9642761141714449 1.3767217054475909
