33
## STRUCTURE-ID: 6458e3f698df15780947142a ; CHARGE = -3; SPIN = 3
O -1.8764881976512253 -0.31286146301201695 4.239064168276289
C -2.955553966479303 -2.9636596227667265 1.3798301459187414
H -2.634761367250188 -3.5963235803227303 2.225085639202957
H -3.2217371176692544 -3.5358562351003626 0.47889371794029734
H -3.7109375966440292 -2.1980891869387866 1.6128364668183361
H -2.335171236175037 -0.9113545097707031 3.5890303657537186
Rh -1.6433215009512507 -0.19865490964492688 -1.2481077969114438
I 0.3210165777826408 1.8149258203755236 -3.1295669942345916
I -0.9030150730346063 -1.8663534643873145 0.8274856605717417
O -4.010763732156423 -1.7152647982999087 -1.0160859166462162
C -3.624301482877457 -0.6991536745325059 -1.453698504798541
O -0.999108061633278 -1.74460605815565 -3.7593147863251906
C -1.3231719798237815 -1.2476825704883352 -2.7928218186491836
O -4.173992796488811 0.31134695077691593 -2.009773608500928
H -5.16368371281727 0.3386551978965422 -1.8987512998633873
Rh -0.14358839343629456 0.5410116566526664 2.0715955591315858
I -2.3572686937188947 1.2529331103470092 0.9101285147332476
O -0.45990115411890004 1.3280822164443804 4.658281303854228
C -0.9468540783450612 0.5129144344897834 3.8959192125591073
O 2.6044563891133743 1.6058015570528013 2.6679706686697484
C 1.595081718652412 1.0005128863853316 2.615571448209164
C 4.221881774403148 0.29448086026980713 -1.280652906889996
O 5.442492988711321 -0.020341793802012766 -1.3230708190389269
I 1.058434031617576 -0.05791344432018787 -0.2018086749064358
O 3.8360019541445176 2.864014880581263 -0.709813033472556
H 3.4530129085792782 3.7538878494561816 -0.7130651393798466
Rh 2.5742508680398766 0.6701869668926839 -2.2230908241493417
I 4.179084957423142 2.096274741253822 -4.170564318470313
I 2.3781931804303817 -1.8983599224456278 -3.266434856814679
O 1.6918329862553256 2.3712321610970486 0.056073826692735515
C 2.7019307274352733 1.8413800093638553 -0.5615782881221576
O 3.0954855000978405 -0.22072411450481505 0.7718592220428134
C 3.330463578584952 0.5895580491570144 -0.24142633320092355
