31
## STRUCTURE-ID: 6458e70b972f485428760834 ; CHARGE = -3; SPIN = 1
O 1.2186106028044874 -0.3258629180732417 -0.9601121252800656
C -3.097107669366415 0.5448493784445666 -4.204039561855916
H -2.6528551051765086 0.017266554179781145 -5.040872413967821
H -2.970584977947784 1.6199004186607264 -4.270600273023152
H -4.141056051428853 0.28476228234741635 -4.057792501172934
H 0.6735602194607966 -0.2749143232929819 -1.767410351472654
Rh -2.973391894227245 0.7651649894263219 -0.14404137421973484
I -4.8373619902911384 2.1280151696163343 -1.3060398961568955
I -1.969871284112201 -0.18825800704445542 -2.342625043803525
O -0.5080426462985035 1.4279816864425376 0.8394485040585362
C -1.2694860403774422 0.44055943103538164 1.005985315347666
O -3.4067774762540752 1.9532093568191302 2.534268771677383
C -3.3308419565310174 1.4661656527155296 1.483693482294259
O -1.3344277191609113 -0.043032189685385074 2.333241003694189
H -0.6813340354311626 0.41138665331506735 2.8903885885657465
Rh -1.300197704987073 -1.4700650412055247 0.12611410673348855
I -3.803439927500729 -2.19295141730666 0.45044545073175507
O 1.1887173559596047 -0.9202900583216721 1.1776754595514145
C 0.5417799509626237 -0.8218228960458993 0.13166646472477478
O 0.46099206692168165 -3.7343170885422197 -0.6233369284504721
C -0.4165177936619934 -3.021009762957845 -0.3525537300294389
Rh 3.275171750235339 -0.42357739326844257 1.5965874062923808
I 3.5205643022267754 -3.063393347097826 2.3832480910831224
I 2.3942613266818733 0.3940036530992581 4.003509369496411
O 4.023743952496292 -1.4498114180895019 -1.0848715401114553
C 3.7523360217636883 -1.0159358813604884 -0.051986097151499246
I 5.809357331254776 0.1507798282806382 2.105752937268734
C 3.011020389385577 1.554682833317448 0.881855013297173
H 1.9353062365356561 1.766691211085274 0.8073782917382711
H 3.448292943901383 1.7233991710446772 -0.10991350986265747
H 3.4395798221624996 2.2964234724620316 1.5649370900029766
