39
## STRUCTURE-ID: 6458fb4a17aa5f72733d2f24 ; CHARGE = -3; SPIN = 1
O -4.605243051701379 -0.9022735144168287 1.5664781868492335
C -4.954902530436074 -1.6022596047668212 -3.585892497353471
H -4.516733236998162 -2.5373425378155785 -3.249806214340938
H -4.2389869462524645 -1.0288564337146409 -4.166432256449879
H -5.894677515084435 -1.7523777423324156 -4.103937437148446
H -4.686447348389738 -1.4422711390322258 0.7567559116636524
Rh -1.3218101645554015 -1.278065701502008 -0.10687959268105535
I -2.281651810105314 -3.6246704086199775 -1.0048167958605332
I -5.421375717825537 -0.4060320946310123 -1.7782777731828177
O -1.170858273799486 1.0168444545334583 1.8547461312825575
C -1.1876845150885171 0.6332382527074123 0.6554162439153243
O -1.6921509816114813 -1.689186665741093 2.8021528497786496
C -1.6038282147857692 -1.5647494721262822 1.6369122467192134
O -0.2410130549441399 1.4846138134694404 -0.1488950070343796
H -0.16276300920507975 2.316697089167988 0.3438255902211745
Rh -3.0589455652783277 0.5967518943408991 -0.38415213238841817
I -1.5570374338352735 -0.0018491170207364587 -2.502017876742702
O -3.895026886503111 1.0376829752462764 2.3352531861853225
C -3.890216767203155 0.29797145301873473 1.359578474790171
O -2.9555432495243616 3.420998246320726 0.42837060666618293
C -3.2985539489904494 2.4645364329539436 -0.1502722693429672
I 2.526818977613277 2.8699426783594473 1.8810239482106723
C 1.607914228088372 -0.2451986112865128 2.6688524423452042
H 1.5444127933413505 -1.3460919683048982 2.7254584620729227
H 0.6022346156108329 0.13321595109577145 2.9228945638043506
H 2.267268159321132 0.0653172825868358 3.4944369144197553
O 5.566422666473201 1.2355961310617718 0.1790605838485118
C 4.078466569660434 0.014848438827942134 -2.866763487358571
H 5.079461016688144 -0.047872854264499796 -2.454504612727279
H 4.068247197982823 0.41838866432023286 -3.875059992997488
H 3.5566608516224156 -0.9367663946154902 -2.8056886853963894
H 6.318257942363499 1.8679049297361547 0.2431387344800229
Rh 2.202256971611119 0.48028656821994525 0.7948475189432335
I 1.387310646684536 -1.780968856554571 -0.3793836627841431
I 2.9637103376329628 1.4431164305106645 -1.6217690711420956
O 5.594605477085689 1.1040712549188711 2.411267300354423
C 5.123477431218058 0.8176471529043734 1.3354254898185856
O 4.178376144081581 -1.341531406586355 1.5498033694407125
C 3.9695481950408325 -0.19130557096807232 1.238850609121104
