39
## STRUCTURE-ID: 6458f27809949e5f011c51c3 ; CHARGE = -3; SPIN = 1
O -4.007972881585169 4.17399656389583 -1.6422213472114908
C -6.970835309512586 0.11088109142033062 -2.362477516365992
H -6.282261748248542 -0.726658525395453 -2.3010520892725186
H -6.913126080002636 0.6079619350573073 -3.32303814941446
H -7.984310023954218 -0.1801040488961558 -2.1128274454481435
H -4.560284810413394 3.68344220467036 -2.277188277724142
Rh -1.4843933584366853 -0.6943660928343726 1.2431572311481591
I -0.42033488713967965 -3.1303471549266972 1.6143112468753988
I -6.33030938616559 1.5666561391220464 -0.8327396166071754
O -3.391948001584221 1.4915852707725867 1.432263137425624
C -2.2042533745961634 1.1227078060565663 1.1540465446970152
O -1.8369180201181783 0.6298584740935236 3.8944546931635857
C -1.6946757574586906 -0.07262228185605908 2.9419021390100326
O -1.2200340252278883 2.1251915835664055 1.2220154629814641
H -1.6843103138250417 2.9739855500690435 1.0163390470001863
Rh -3.425903731263778 1.4142386358127115 -0.8031068508512683
I -3.5991222660452276 -1.2875573356320882 -0.5541675979813825
O -2.636113613101428 4.024120217042666 0.051044845471748486
C -3.285531820767937 3.3824456971696524 -0.7852546723982651
O -1.8792694167183428 1.6014977204722707 -3.3441176879948693
C -2.5890355290445473 1.477702379982261 -2.4307826798199406
I 3.275954739935023 -1.5475063962054094 -2.3742307106434297
C 5.527024933222187 -0.06316671295372138 0.2348548090759389
H 6.039710089314734 0.8971777969661626 0.20136244571194767
H 5.762763505614218 -0.6492740848365255 -0.6550204930423561
H 5.8372708486361935 -0.625201757438882 1.1155019197699272
O 3.0041503718033202 -1.490713470792205 2.9612044303956715
C 5.747113796355512 -3.8600138301987275 -0.5374754021049692
H 5.839684013945539 -4.934329914359499 -0.40319227166002597
H 6.6613882873921035 -3.3379543126535998 -0.27431734575658867
H 5.4010302323444 -3.6057133477472174 -1.5380370706699849
H 2.8151417532536906 -1.2362539141067397 3.8846554825787414
Rh 2.6925100957968007 -1.205133363184542 0.14157045655847225
I 0.30028222263972376 -0.20460614024667054 -0.7200041894152075
I 4.165961696822099 -3.202100247200214 0.9039034318708987
O 1.4715472790510105 0.04772327356614369 2.4869247039753306
C 2.2454353584971645 -0.8098018308917238 2.048879403690672
O 3.5678505481771716 1.319524407607738 0.4200209999378742
C 4.046124582408669 0.21272801501241728 0.30283898304363766
