34
## STRUCTURE-ID: 6458d579059339041b3c1cc4 ; CHARGE = -3; SPIN = 3
O -2.0771855071175525 -3.21734983452887 -2.781303308308943
C 0.37624749013182884 -3.053156485729868 0.2853820476055719
H 0.18467773601577503 -4.118001484370239 0.3399400143178989
H 1.163738770330431 -2.7826417780513655 0.985626930176979
H 0.6839946693289504 -2.792845411246095 -0.7244530666881659
H -2.8291894647940636 -3.651994055138716 -2.3382341078469198
Rh -1.1549929474880352 0.23916374521801767 2.1823482246245534
I -1.4537879257907573 -1.1012477744131421 4.431645102065761
I -1.3619255775056498 -1.9893642665067346 0.7429330513866208
O -0.1460309784567738 2.1532119206074327 0.24476210430469483
C -1.0609613633483337 1.3728933007999227 0.5089256535186194
O -1.4061498771394592 2.891584011420914 3.510588476710594
C -1.3369136007305813 1.850441185042898 3.044766849608693
O -2.1247078490534688 1.3273438446384354 -0.3395954573886956
H -2.0744918728584962 2.0178668420413612 -1.0302601658180204
Rh -3.064552692950597 -1.170652442184508 -0.9922427182468652
I -4.124740120190636 -0.5604558042023745 1.3784705418906769
O -1.2087138401319744 -1.2135599450603032 -3.148780965190405
C -2.010611480474721 -1.86414335942193 -2.490992206432945
O -4.99913502799775 -0.5253428990248 -3.172911459831903
C -4.323547535014059 -0.786175310578306 -2.2787249884363563
I 5.463701272635453 0.7721084820468845 0.5715837402749651
C 2.766969487288938 3.419487611531752 1.1490889085320992
H 3.4526595482591453 3.0382861138115183 1.9036614982722457
H 1.7531665535722882 3.3801958636521876 1.5514609994684718
H 3.0104455609760707 4.446109921055915 0.8814092844737988
O 2.2789115188861286 -2.481788000280456 -2.181870469529641
Rh 2.9668639125021294 0.5845753375750773 -0.12863612126941412
I 1.8243390035918279 0.03221745442539879 2.361298369743969
I 3.7188468993298365 -1.7277540660809643 -1.2160126345269413
O 0.3198295230787054 -0.33832364777035623 -1.0954713084935532
C 1.3100622279070933 0.22797210282194955 -0.8421979863508232
O 2.7076015667250495 3.0472963683374292 -1.2149828427514335
C 2.775581920483245 2.5740424595619498 -0.09722198986523395
