34
## STRUCTURE-ID: 6458fc8bf088f8503b587a93 ; CHARGE = -3; SPIN = 1
O -1.9156783379065325 -3.339182090321754 -0.8436119238329115
C -0.08936888736441978 1.574271065135099 -4.161111609732633
H -0.5595129660833796 0.8869294131091964 -4.858835843446042
H 0.9366504588051627 1.2990446235768844 -3.9228531218833615
H -0.15976398465346336 2.6084340667565113 -4.485939483393272
H -2.1012202847951302 -3.0836383379473182 -1.7661778775518266
Rh -0.2744627160969113 2.17063441053952 0.26449374124716196
I 0.05763492397048572 4.700896843591957 -0.43087912942943724
I -1.2798952330231068 1.4186888853007735 -2.2520458896940854
O -0.21808502576600294 -0.5850448226538625 -0.15834657169975236
C -0.5898162679987657 0.26781444150420675 0.6675798464230563
O -1.1925502816236035 2.773004770766825 3.024312570682208
C -0.9052722567655784 2.535338642760504 1.925911758858571
O -0.9427112868069815 -0.13669907227925085 1.9493978564796206
H -1.049568865679388 -1.1189645259566072 1.886685457514399
Rh -2.533383688605895 -0.4720893392728136 -0.2253545885371528
I -3.591940332697407 1.981392322594796 0.5852007788111461
O -1.7883822834851173 -2.6204139289549566 1.2327581876947582
C -2.060863308049199 -2.357295174700582 0.056579364783037336
O -5.181091165272707 -1.057052421014602 -1.461319170661954
C -4.134002456508422 -0.9128405183850938 -1.0090267778929187
I 4.784265720390748 -0.9317509784188598 2.0225891721166604
C 2.5058879936497105 -2.20947397996542 -0.4363987937846642
H 2.596326232218088 -3.2718822208231604 -0.21407590038493282
H 3.452571107123741 -1.807326291858027 -0.7902721977027231
H 1.7498967183812526 -2.068669069821747 -1.2103938362458673
O 0.6714153303167968 0.9941747860905893 4.498705088004937
Rh 2.53022330752632 0.30469447399054256 1.353076912149071
I 2.5588373044416057 1.2448559269750519 -1.1005506720756435
I 2.27792706863831 0.17995296627859292 3.945087596736551
O 1.7999932748099978 2.784202196196179 2.028500559681742
C 1.3333000188627013 1.839133183427913 1.4319645040397784
O 1.2964461225996573 -2.0548292891699806 1.6398179297688833
C 2.0161940474474433 -1.5363109570511035 0.8145320629576428
