32
## STRUCTURE-ID: 6458bf36bedf1c41881b1ca4 ; CHARGE = -2; SPIN = 1
O -1.9271505031249325 -0.873703768730752 -3.5086098999766158
C -0.5406191044239631 -3.6128065517452415 -1.1489959238956362
H -1.113923117534971 -4.444403648773396 -1.5426025417195843
H 0.27699433821132585 -3.9621154275292665 -0.5251324571546688
H -0.16402164403762337 -2.9781650266985022 -1.945907577410326
H -2.7037554427996264 -1.423075962666811 -3.7042702715059175
Rh 0.09408443886468316 -0.5840071583053539 1.3436597123722283
I 1.1946631503999519 -2.7263966445288266 2.5364016285317925
I -1.8757137722540353 -2.430349960739044 0.09237130446665572
O -0.037499387921220616 2.0680071961915507 0.1617793688710531
C -0.6955358281169455 1.094135750045829 0.5363877420608133
O -1.6205648024585613 -0.033327254959307245 3.7185389452902093
C -0.987996339472792 -0.2870029709187056 2.7960022186873315
O -2.040823095368167 1.2422519994454213 0.5875931716211353
H -2.314130207969829 2.1306644805020833 0.27950521625408054
Rh -3.3671484799702727 -0.5586192446213726 -0.9412428260332193
I -4.803579469634911 -0.9269688731381818 1.2726770717704838
O -1.0376187454963963 0.4631371579680983 -1.9995405205865338
C -1.9954274270694712 -0.2538864743429797 -2.291932876132701
O -5.242204512040543 1.02150431056828 -2.6583459454956193
C -4.5421517522277215 0.38466107123510906 -1.986294575162449
I 1.790771321025335 -0.7122040565931897 -0.7406429669899599
C 4.225813283924083 1.0622459128735509 1.159838671645919
H 4.8740788238434005 1.9358150969336994 1.2590058246335873
H 4.6366626694513045 0.3886715085129179 0.40125566191513723
H 4.208181028415787 0.5400317960046512 2.1223143394503112
H 4.560481240379926 3.6573055467942854 -1.5041336846486673
Rh 2.3007038292253568 1.612045351062679 0.5984993618948021
I 3.19955377721899 2.8554147268789 -1.7737381834892907
I 2.4530620616641716 3.855363720489103 1.9649674872262282
O 1.671351963179846 0.7822039075100871 3.307249577952477
C 1.5234617061174756 0.7135734912746492 2.1333429455566155
