39
## STRUCTURE-ID: 6458fb26f47533493a6ff8c4 ; CHARGE = -3; SPIN = 1
O -0.24358255180365668 -1.8022116692769863 -0.6199933576914181
C -3.990679915873349 3.88375202401144 -0.6748365690012381
H -3.5771902365313126 4.71016586607627 -1.2457436603807435
H -4.4036132233522665 4.21380448766988 0.2760713400033559
H -4.728194842563915 3.326532616981156 -1.2494539678961232
H -0.7430536249086389 -2.324917851344272 0.05177081263462699
Rh -3.2926104318011027 0.5030776214639745 1.293533394706669
I -4.648374643835842 2.1129618562451062 2.8066988066581993
I -2.2777947818125797 2.489300706485936 -0.2391138912029325
O -0.7891567767805805 0.2089579160088337 1.7758973738447361
C -1.5546933544940837 -0.5039778205326653 1.0093084869386728
O -4.584120707693577 -2.088746565344996 1.9449418795393127
C -4.120694071140717 -1.0548915579526188 1.6792783668869566
O -1.599170963938328 -1.9275677158582005 1.4402136568926103
H -0.7638531641559081 -2.089554843269063 1.9213948200717923
Rh -2.700592988120538 -0.37358088170635345 -0.955556190899415
I -5.13830693235776 0.07856859909405639 -1.6772995931734092
O -0.07739817529101252 0.45193100656837115 -0.7877509623622545
C -0.7751623608881089 -0.5253552785619852 -0.4383461777822946
O -1.0333528431090746 -1.1922147139534716 -3.27606860240766
C -1.8782244058149193 -0.9054901257222706 -2.5296753287747773
I 4.579031277623819 0.8315870237258292 0.41932015943285417
C 1.7695899383623348 2.5708891860901417 0.16900636209866535
H 1.6637294130553164 2.68623200119265 1.2556377697014112
H 0.822294734454617 2.8801475758782678 -0.29781095172098204
H 2.5570516401232677 3.24675172315638 -0.1809677518170186
O 3.4083009526749324 -2.771337061627644 -2.574859905391622
C 4.646366995251369 -2.6912138825538223 -0.009756631263378238
H 4.754186108551252 -3.7036160157466913 -0.38812986656352777
H 4.645087968835699 -2.6549788641759267 1.0742318532627995
H 5.4010447929954 -2.0254937958631323 -0.4229372552359043
H 4.132172059297371 -2.295797565314562 -2.9992823745404626
Rh 2.1285209485480814 0.5772666974701278 -0.34152926441484127
I 2.5982629661870167 1.1880941768368254 -2.8680177481617046
I 2.682314569856895 -2.0448967866911256 -0.6520714089784716
O 2.061123191182501 0.5983029098304915 2.6268633626967803
C 2.0445363304407 -0.012577678327310162 1.5729510469508072
O 1.037049919135385 -2.1315667970448886 1.7876013723002218
C 1.989157189691771 -1.4383365239164299 1.3244805950399303
