39
## STRUCTURE-ID: 6458fab563a2951cf628b9ed ; CHARGE = -3; SPIN = 1
O -5.868516563712123 2.5968535940626745 -1.4264690032773923
C -6.550107843491137 -0.7770031586823505 -3.2395046364003774
H -6.144424129587059 -0.426678223299392 -4.18113782866609
H -7.206456349704328 -0.045384923438523087 -2.782414951005382
H -7.037733699160416 -1.7394890794961948 -3.349793775515525
H -5.799370538795762 2.393907678838119 -2.3749461851599456
Rh -0.16347891977121926 1.2752596901435136 0.7172631405418339
I 1.0617816952545907 -0.5830785047069253 2.1839361820743903
I -4.821038383810826 -1.0994949461146468 -1.851977799706806
O -2.874088001281831 0.15219000149005235 0.9065831778821318
C -1.9221641940135865 0.7534127424631742 1.4332068842875128
O -1.826169774856452 3.7552971558400965 0.6141780933293277
C -1.1125899218495554 2.815227611803505 0.5551529325696685
O -2.1013012082164404 1.0765372829410387 2.767936046916848
H -2.990965822622955 0.808530934493863 3.0751999859618104
Rh -3.3312413003792933 1.0691973906694725 -1.4086128303142307
I -0.9712183853328487 -0.1922716576488399 -1.8440536542666388
O -4.8657286143172405 2.309082406767852 0.5180088492399536
C -4.813162659868834 2.0902006336711088 -0.6888163187572726
O -2.124055017395112 3.6083134274421265 -2.451516795187512
C -2.6703547426547014 2.638784706582181 -2.078553169398052
I 2.29095273294058 2.210409723546895 0.12440677606653983
C 4.146824241745814 -2.4125960777908757 1.338058364904206
H 3.3351059455424577 -2.8975543161389266 1.8921317823227397
H 4.4021095930503895 -3.0261147700162305 0.47076609693079
H 5.028293370849957 -2.339480519696032 1.979197232498589
O 2.632079784663883 -3.530396421053221 -1.26443964375237
C 6.927579418668317 0.33357834223197336 2.9801085120163973
H 7.2495047827077865 0.2553765264798582 1.9446387754471135
H 7.1245267151825145 -0.5771240570605654 3.534188863422512
H 7.347675322303791 1.206241049938801 3.468305148154413
H 2.203412783421232 -4.411688899232096 -1.2277233846778455
Rh 3.4852929897464175 -0.5065332174132242 0.7738004935111019
I 5.640749931436548 -0.2587864743321385 -0.6374358099058105
I 4.707032771874734 0.6304757915738085 2.951399555003423
O 0.8315121346108227 -2.8005929871226978 -0.16780864378877178
C 1.9109366719627605 -2.589516567745537 -0.6894716634439602
O 2.3249779314127226 -0.5535839806183022 -1.7869145296565188
C 2.543817253441216 -1.211507909384412 -0.7768762701974281
