32
## STRUCTURE-ID: 6458bf38bedf1c41881b1cb0 ; CHARGE = -2; SPIN = 1
O -1.7715954535667646 -1.5570392932416082 -3.390403911494618
C -0.6789207062896552 -3.4384173538333433 -0.6158061396713654
H -1.2370035645677326 -4.339208968641113 -0.8433394692986308
H 0.11696628029169327 -3.643890444176096 0.09388216929564537
H -0.28135229726741984 -2.976625685452017 -1.515635104576081
H -2.425219412313379 -2.273600917732589 -3.4464793795182036
Rh -0.5519600496215021 0.0623743482651133 1.3388420479184528
I 0.8575301668082975 -1.497086098002055 3.034858096583107
I -2.058694399013323 -2.016576095833541 0.3191422579050872
O -0.7443369645783807 2.5070389269430287 -0.11406583897956067
C -1.3549027642885276 1.4933635201663078 0.24977612906800498
O -1.2865356045175562 2.283693731215922 3.1907228592953154
C -0.9593834278727956 1.3490387463378772 2.5744727552630904
O -2.6978578872564976 1.4625188581283652 -0.007110149217256724
H -2.974459757199746 2.282228481587199 -0.4621989919277132
Rh -3.6481071034785364 -0.7081623827966802 -1.2820289593779466
I -5.464818643233759 -0.7299067177166303 0.6543583753188713
O -1.3773704159925997 0.3972918197123628 -2.440675143216161
C -2.1404052481898233 -0.563192651228374 -2.504354466742774
O -5.238787255317242 0.043241118235359456 -3.7001604736017435
C -4.678811939027137 -0.2747716650653271 -2.730024891335442
I 1.4753133370661242 -0.20838155937998484 -0.6507181468612488
C 4.602702542185455 1.331307921102163 0.30655058009665165
H 5.1404966556611456 2.113727096069427 0.8425482233124441
H 4.200845276468039 1.7142821018942191 -0.6330931146068267
H 5.264563056003628 0.48869330019345514 0.10606048308253818
H 3.0132440882796274 4.0320074226876725 1.8510703072793235
Rh 2.9344444976844684 0.7184651126996549 1.4518415074686462
I 1.7798154953992704 3.2425566105765005 1.1570364580137018
I 4.062295314669791 1.4575517189270846 3.69720419901679
O 4.348748597186312 -1.8621864343447374 1.7924491579237174
C 3.773557585888575 -0.8903345672979684 1.6752785735844422
