39
## STRUCTURE-ID: 6458cca87a45292be56461c4 ; CHARGE = -3; SPIN = 1
O -1.9208423772816494 -1.8559497527222641 4.180150463518018
C -2.5861534153191696 -2.9979394250570013 1.0252893893613333
H -2.38429351887417 -3.4151261184551247 2.0048667677085334
H -2.44259296677917 -3.7419275401140673 0.2506218700624706
H -3.5937472345122514 -2.600024779893956 0.9925719203814654
H -0.993955746705263 -1.567000382970726 4.200703732321361
Rh -2.4936836619770566 0.4209251020626011 -0.8582408636149104
I -0.7538640259955145 0.3764508863893054 -2.8445223511848896
I -1.2272673029962633 -1.3930373363306903 0.6660559306725576
O -4.686345800251247 -0.7196765765964974 0.5801319534930436
C -3.9618242222805224 0.2789957679628616 0.45502473727825316
O -5.047536422842405 1.1048602386806134 -2.2226456089991653
C -3.9769189531536466 0.8697380035413221 -1.812299651536641
O -4.413973664239255 1.440843859971889 1.0661495087749273
H -5.2572183248299575 1.269486018969624 1.524775480066128
Rh -1.974385695510334 0.451826731177668 2.3883026819898507
I -1.05072766963853 2.3836236217905604 0.7990171403132791
O -3.929790837571882 -1.2950785189887235 3.457325979495367
C -2.7394539412888914 -1.008681998584582 3.431886436366363
O -2.7248299998769037 1.8719618451230717 4.902567314966143
C -2.3810200493035265 1.4026481241722968 3.8958274496186167
I 4.859982294951156 2.4568356509961116 0.5590151346979023
C 2.261522832790629 2.83029253986718 -1.360139930814677
H 2.9547525495437736 3.548252255053891 -1.8035080978007754
H 1.7661754884989294 3.2962312051483855 -0.4957761766015962
H 1.4904802327017606 2.5800529197260946 -2.1015836084225836
O 2.2775694878685786 -1.6484025964245146 -2.7221598332752177
C 6.394640562123969 0.6363914701951108 -2.5116862708030108
H 6.91580246283124 0.3088491715014829 -3.4058432690798965
H 6.491981602817914 -0.07849212645718567 -1.6979865639890006
H 6.692251154860657 1.6319973422800123 -2.19715169537277
H 2.140556303965307 -2.4605463532302245 -3.2487709776723
Rh 3.025683886230869 1.0286773109367022 -0.7232803624244522
I 3.870154990957195 -1.425172534165722 0.13189334976943462
I 4.238938138887434 0.7146364363337246 -3.0412965466208424
O 0.7914684226895649 -2.5160990040464006 -1.2938912153837736
C 1.5650680710614302 -1.6191662127407853 -1.6138195053059234
O 1.0190041372194574 -0.13044063920151194 0.19964634830164046
C 1.7843932112064433 -0.43081460591593335 -0.7572210602407872
