39
## STRUCTURE-ID: 6458db9fe0fe75790e28ae74 ; CHARGE = -3; SPIN = 1
O -3.111267435021068 -3.096823618705384 1.0540323850761473
C -5.247786369135416 -1.0249496162682223 -3.067607873778921
H -4.5872023508171464 -0.22252818875431174 -3.3851778666430716
H -6.2711670335378775 -0.8656712145615912 -3.38728892749424
H -4.8690206467928885 -1.995295382931664 -3.3655659409651077
H -3.416566496949441 -3.2733552523764526 0.14403132831748958
Rh -1.3863327365349423 2.924371526204784 0.2869248969301933
I -0.5490838068940992 5.127268268539656 -0.9421400652451992
I -5.263039825775812 -0.9801764718064527 -0.8623144031270759
O -3.259507009783198 1.1327044688713213 1.5543080399068554
C -2.0489258595613102 1.3818627105307433 1.3164957906052652
O -1.903981167969341 3.609019505205779 3.140557827740929
C -1.6844449943624682 3.521197286716586 1.983824300951006
O -1.1058798055690078 0.7913156164517872 2.170852763550249
H -1.5458214087713493 -0.005783864647230686 2.5531736652874697
Rh -2.642592750658738 -0.4676055087090132 -0.13378119408319683
I -2.5337830431976585 1.6647973081604024 -1.8138452641042941
O -2.3407443561227836 -1.5722864901070088 2.4310992961062405
C -2.679287946088089 -1.8269093978569755 1.272463877445776
O 0.09686670187572556 -1.63787497646005 -0.25861029356279386
C -0.9850382115097315 -1.2324366494292975 -0.4297233392542402
I 1.733861406267733 0.18577760533293006 -2.6184991635689534
C 3.034502824977158 -2.539111684182849 -0.7547267273311001
H 2.2496512705179534 -3.2588599574865937 -0.4873554768752957
H 3.1986285412203865 -2.5825605672120897 -1.8329509494981933
H 3.948387387808806 -2.8304641626913103 -0.22996788458950565
O 5.213966860358481 -0.4828885431725702 -2.164119814160555
C 1.5192435614611448 2.6264445628853403 2.0309499403889433
H 2.570167098963915 2.469958781482326 2.2555102471143464
H 0.8968562571314289 2.1287999571272134 2.7711248042976186
H 1.2888377386648942 3.6888342538079857 2.0074357504347433
H 5.956166826678593 -0.949009683254068 -2.6081113214594
Rh 2.3277335616803225 -0.6552639803397166 -0.18662021298034756
I 2.585454220418845 -1.2904114976454026 2.3744347475221628
I 1.1306349339318968 1.7833335287972483 0.1417945770582986
O 6.102355592181222 -1.1149954065492447 -0.21256673042706012
C 5.242814076770728 -0.5622055498596081 -0.8599077005321628
O 4.256411760736658 1.258143122906328 0.3181466125919692
C 4.078932633406145 0.1736391619867056 -0.206279701645118
