39
## STRUCTURE-ID: 6458fb28f47533493a6ff8d3 ; CHARGE = -3; SPIN = 1
O 0.3546871124304884 -0.6122494578125537 -2.1813311819606436
C -4.908706968634034 3.365318558743993 -1.7908045201385574
H -4.758293074251789 3.582964211199771 -2.842165839805167
H -4.792585795616575 4.242237395667702 -1.1635310793029736
H -5.8582561731920535 2.87567797619467 -1.6015549740156034
H -0.17665990618539276 -1.153481526807886 -2.782054336706133
Rh -3.4512806231418924 1.1483544060717905 1.262287345933558
I -5.321383211190198 2.8397282622878883 1.8408642478970187
I -3.2642177932769947 1.8660687541717507 -1.2375895611167667
O -0.7779680832321216 0.7270938673481614 1.956046423569083
C -1.6887445208785639 0.015158086303245295 1.475281212390733
O -2.9681438164488996 0.34865326210050174 4.074204915811616
C -3.2464081464021923 0.6651265123999336 2.987870049430018
O -1.7331120358613321 -1.303493170592334 2.0434558043917934
H -0.9615113000722812 -1.4232584072543073 2.6176086504267415
Rh -2.1769036578423933 -0.7424456271647455 -0.4864003512847094
I -4.606684860440012 -1.523012829567184 0.2917790988181783
O 0.3535491153311863 0.715287886287755 -0.43606239248419676
C -0.34496915466136013 -0.09005476822554893 -1.0579929019392296
O -2.0160803094358855 -2.583711528446143 -2.817539703573561
C -2.1893447693256824 -1.8175299273966368 -1.9617963541021626
I 4.892810969752988 0.15155965228627705 1.1491169556278367
C 2.2131063309767978 2.0604555050339592 1.5243099322782412
H 2.128702932662257 1.6693571898445987 2.547228938953727
H 1.2575719618882235 2.5514826232333596 1.2863189773491346
H 3.002607151906588 2.8219320063749205 1.5102917143930497
O 4.490414720026188 -1.6704005367300747 -2.781106975717783
C 4.290059554897143 -3.0002454593867847 -0.45947220714005454
H 4.227962475181471 -3.938882754475498 -0.9984946582000601
H 4.0138234573216405 -3.111578458642231 0.5839827498747359
H 5.273016680876233 -2.5539766586404813 -0.573341818165119
H 4.343651959677715 -1.1762664192943377 -3.592339198304977
Rh 2.526633728259079 0.5300275662008285 0.1434910859593427
I 3.33410765982118 2.184182708911314 -1.7604932043962311
I 2.857438707041596 -1.6791726672804421 -1.3455233202409027
O 1.895581014921711 -1.021137173315504 2.6184861520083174
C 1.9157000547338219 -0.8946748470875167 1.4011908418197871
O 0.3464644352256018 -2.2211258979584674 0.18416536486041254
C 1.5233641771577648 -1.8439683145836532 0.3716141168015122
