34
## STRUCTURE-ID: 6458fd13f2659c6fae5dbc84 ; CHARGE = -3; SPIN = 3
O -1.1459913896153813 -0.8271612560978326 -4.0134958287370495
C 0.3559672204257045 1.6638699972707816 -1.7918603706747946
H 0.2924548564658047 1.5598913996631616 -2.873688246463791
H 0.9291419093079657 0.8120111568211029 -1.4210161905580752
H 0.8600865768952582 2.5988173445667826 -1.5537135727181728
H -1.9875720834813935 -0.5742082249149286 -4.434959554716893
Rh -1.1398465351618787 1.3812018809723088 1.6246590318057852
I -2.4984520040917975 3.607321123477406 2.0948060166932416
I -1.544479326131655 1.5736439313332777 -0.9766711172264267
O -1.5950378082927696 -1.2084446856568372 2.7907838196486257
C -1.898096511323801 -0.5042578392149767 1.8408639158459805
O -0.4681761105065163 1.2176510753653733 4.520329558004734
C -0.7592321463900864 1.2824326079515729 3.4192691421658465
O -2.736354315709664 -0.984206950205915 0.9092115052464715
H -3.13173919678534 -1.8415030702027566 1.1893829904248634
Rh -2.9156833821167125 -0.43071918213158444 -1.7398446736822424
I -4.533792587119123 1.2613486402378202 -0.506244318397987
O -0.305196722062725 -1.50327980177402 -2.078910641880677
C -1.3001594505908596 -1.0647536800351403 -2.6542528454813117
O -4.403254997656685 -2.736639727984002 -2.925998758523178
C -3.889806101375779 -1.8195513290896392 -2.461613578363558
I 1.7237346645990625 2.544449632802366 1.4381938188068557
C 1.9080310164698584 -1.2960343463589599 2.7095385727482673
H 2.2881556453148324 -0.569273835173238 3.428997752042483
H 2.6577266676647655 -2.078198290879141 2.591759320213625
H 0.9680925140194894 -1.7170845495480604 3.070349179833742
O 3.1294123821297735 1.1495264335902267 -2.9919658312879966
Rh 3.0375208767550075 0.44509885364897 0.40684715831657353
I 5.159890743579873 0.29012513817107893 2.0702829376403336
I 4.2512916559552085 1.8778247638932026 -1.6309048130587833
O 3.2597516963249595 -1.8273694498153625 -1.5319401791383196
C 3.197764555136572 -0.9908509242878506 -0.7272193890901401
O 0.5645204980299654 -0.6639516429910651 0.8363405488780423
C 1.669327189338101 -0.6277251934040544 1.3726846416838734
