39
## STRUCTURE-ID: 6458cca87a45292be56461b9 ; CHARGE = -3; SPIN = 1
O -1.809072626936378 -1.9930772486903854 4.171591875786401
C -2.826554040229047 -3.032636551610082 0.990463514589167
H -2.6603778546810917 -3.5180166443555843 1.9451112780316708
H -2.8064690848571576 -3.751324795599452 0.17985175522490088
H -3.7710474918210193 -2.5010441898924527 1.00866515401647
H -0.8668377956792109 -1.7686260025422578 4.0973653499912706
Rh -2.4027981614728007 0.44611607097102524 -0.7252377857584484
I -0.7500034112475072 0.3087732739258677 -2.783304953473613
I -1.26215203466695 -1.6085881048527415 0.6705322011389484
O -4.612634134260704 -0.43259072034880713 0.8800992956805501
C -3.795415961697883 0.4834438677458765 0.6811557007017344
O -5.036720066582902 1.1160447163412184 -1.9403312436707933
C -3.9411924751591623 0.8653807791037972 -1.6085200555760344
O -4.163483522883465 1.736146671799817 1.1756184869852055
H -5.017018995605688 1.663811307295714 1.6395730305768053
Rh -1.8472674632722124 0.30867049171092786 2.3930295344005708
I -0.7224098230028241 2.177402707308898 0.8464771247806347
O -3.838233305464843 -1.3159054861133996 3.63688342098978
C -2.6427856502306386 -1.1003373477188914 3.495929095899793
O -2.6285559561709615 1.8858988926976503 4.799821070414501
C -2.2496341950235417 1.3336728804907558 3.8496458600242427
I 3.7760990153880933 2.4660157630796284 0.7921562955106506
C 2.162926837420018 2.6484631343172818 -2.0808912199944722
H 2.9176887764449626 3.43038737169183 -2.2076372070432333
H 1.3414244747110708 3.053843824432531 -1.4740296783281415
H 1.7709799572594764 2.3543567590130823 -3.0637270618963703
O 2.218123198184912 -1.4788726510101637 -2.7451060213283442
C 6.506142843424351 0.8112089043328232 -1.98932718629833
H 7.341993533839927 1.090955971098042 -2.6190263256854083
H 6.6206410197111145 -0.1749110503251147 -1.5490927511078008
H 6.306204720473147 1.549196902473811 -1.2179468965430083
H 2.040061955157974 -2.184872420483861 -3.3964503061768823
Rh 2.8564934929996815 0.9540605762406642 -1.1957404438056547
I 3.9150890011552635 -1.336808384919481 -0.13204336358374877
I 4.7322865679107435 0.7283234155345994 -3.2817577867183703
O 0.7614636241142996 -2.5521031308532223 -1.4228300319798697
C 1.5154350045073572 -1.6120129462873773 -1.6321208676544228
O 1.0695135510466578 -0.4730802642512454 0.4142550552315593
C 1.798096477195568 -0.5773663417543945 -0.6031039133510825
