34
## STRUCTURE-ID: 6458d92296885d0bed1a57d4 ; CHARGE = -3; SPIN = 1
O -3.263219862611885 -1.1878758662776823 4.0583322702473055
C -2.3045235201229968 -3.236330695408027 1.345273654495974
H -1.9287537207662355 -3.8159667108944144 2.180089001984688
H -2.3911333773474674 -3.8415105322125047 0.4505413623819161
H -3.24832892389621 -2.754418774947018 1.573564865752188
H -2.3722725475346387 -1.5724506631802508 4.0362779416903525
Rh -1.860842053550933 0.28249267612119217 -0.823140066392516
I -0.003880192635210252 -0.14399443646044688 -2.681819245491043
I -0.8517731354028113 -1.6693902340897862 0.9298464524427285
O -4.000590601605356 -0.6188520584597742 0.7822192508395724
C -3.3457309304759724 0.38801974050341453 0.45811537212168385
O -4.501677300679087 0.544234815564987 -2.1782268564751943
C -3.3912306826250957 0.40712146408189853 -1.8364082707430993
O -3.92183797140813 1.6160804139980793 0.7375422678987463
H -4.751482865971922 1.470000963066988 1.2316633340544547
Rh -1.9714724642219077 0.7922460470084627 2.280685444523918
I -0.671643203937349 2.511611521655906 0.5776110955833138
O -4.461517742211589 0.549602398422052 3.4209855812835643
C -3.3742613383065425 -0.008030707768281534 3.3825196421045183
O -0.13060906418538507 1.417600287399263 4.5461395819446055
C -0.9210369113673936 1.1381650299809365 3.7444257467323903
I 3.793529044266929 -1.9243489091495782 -1.2498347482999421
C 5.9710413855579585 0.7828914239436754 -3.001907769894545
H 5.711578228488208 1.3153275547877856 -3.9164967090381944
H 6.103630905198485 -0.26844715683539144 -3.2605913388524352
H 6.886306028748089 1.1864518219727096 -2.5713344508521097
O 1.6357875383526153 -0.23766062028028795 0.3347734179206874
Rh 2.9556591392503924 0.4087843793982185 -2.338762671321637
I 2.7720217456408736 2.7307007600049253 -3.66706149934459
I 3.319358373443708 -0.7425061472745009 -4.6599734146705245
O 2.4420482332546842 1.670483729213184 -0.6301539921751803
C 2.1240966492287447 0.5436632497063685 -0.4145173856685628
O 5.058965842114412 1.3432264631115125 -0.8636092832115669
C 4.89379529731897 0.9230787732963391 -1.9767685815714773
