32
## STRUCTURE-ID: 6458ea10bc87da59a328ae8e ; CHARGE = -2; SPIN = 1
O 0.7100980772120447 -0.45113977424244395 -0.6530652470485397
C -2.8384015514808447 1.79702998757015 -3.678712631353975
H -2.3222289247844152 1.5089247097820018 -4.587103972649973
H -2.5097257757028992 2.7599014581717527 -3.305085591728631
H -3.9163428158422806 1.7756721947322562 -3.794828679552471
H 0.1925739510282722 -0.08600280606104552 -1.4009162864880733
Rh -3.3862982341566803 0.6624391666396815 0.20200686546040525
I -4.917230589726753 2.6216636022666853 -0.5833609220008662
I -2.297276028219757 0.22694099319537805 -2.1185088835575656
O -0.8838289241274943 0.8509713004763174 1.2290753417845375
C -1.6925606722177056 -0.10934745258475649 1.2087373908477284
O -4.045910927085465 0.978729918046713 3.0748332040847477
C -3.8623210338420844 0.8534188807185177 1.9348054260227954
O -1.8077127495174237 -0.805073003503491 2.4314492097143865
H -1.1627138515781537 -0.45421208331271307 3.0680082736095704
Rh -1.892184289849057 -1.7368427003792946 -0.07834014694923229
I -4.501335593347876 -2.2397206109124523 -0.006373963936947752
O 0.677397812198611 -1.8266395993212812 1.0542225827184357
C 0.004189047882013005 -1.3275118405075084 0.1453728881321869
O -0.4750194168732035 -4.103008071026786 -1.1867105039612873
C -1.2137754831171699 -3.266632317722167 -0.8681783528874227
I 3.8737793102861535 -1.0644080305986083 -1.6505968030980438
C 4.939993654672396 0.4383137846808957 1.1868566436444608
H 4.912511536573223 1.3405550340944636 1.8011737112239659
H 5.5518829551442765 0.6130832526507317 0.30131005058715554
H 5.367260719087733 -0.37998036471104296 1.7704627706283276
H 3.6024183283403577 2.6623304992595274 -1.6780842498993347
Rh 2.972684479474176 -0.02440365041675255 0.6021578896215479
I 2.5647906214165226 2.4453169972516027 -0.46540701608103396
I 2.0645790201397154 0.7977652830548483 2.9992232926032463
O 3.2258074315626204 -2.751808472442191 1.7452061096735272
C 3.0648999164514703 -1.7063262848492193 1.3003716008366586
