39
## STRUCTURE-ID: 6458cf47f2c63111e73d5104 ; CHARGE = -3; SPIN = 1
O -4.801545811241398 -1.4372777292798957 3.0913977604946887
C -2.0815929627967447 -2.8152368561624996 1.307601764900291
H -2.0897894729538757 -3.4250986794904135 2.2040975412857344
H -1.6372553318603302 -3.337310004389753 0.4652654268564416
H -3.0688258271408526 -2.444796927101576 1.0458856401807302
H -3.932770456745553 -1.7598368448442339 3.3827633148649294
Rh -0.9897933960794375 0.7297289977651263 -0.2691220155632051
I -1.3268237192897545 -1.2452208009405423 -1.9950412361020633
I -0.8443575858183002 -1.0652480886431577 1.732428744885171
O -4.079538532643193 -0.31429752926813503 -0.1470724281834383
C -3.7375106782510894 0.6708694655134346 0.5309811339937566
O -1.8374188958119568 2.583930435410135 -2.421115018073835
C -1.472128282677232 1.8650993476372428 -1.5907902463124486
O -4.182161353806045 1.9033815608797662 0.02777047431778255
H -4.800966956131943 1.7615043065301297 -0.7125102673116657
Rh -3.0574570669854464 0.8434627311822283 2.420415233448073
I -1.1672188848168175 2.727741117312641 1.6459809707660253
O -5.876279162942547 0.36395930962314954 2.439914179917787
C -4.771432553060689 -0.11213887994598261 2.675949988843862
O -3.3059746321935783 1.3941551627875168 5.344701292267814
C -3.0345067147672444 1.117256592401615 4.251705746468392
I 3.857856404363723 -0.9427947232083818 -3.8577125590654755
C 2.318455762168588 -1.7415571803361505 -1.1035828902856928
H 3.0879544353848476 -2.5083973571541396 -0.9766519939620228
H 1.5920278256427607 -2.1234563178108314 -1.8275870367778102
H 1.7980340628520102 -1.6084203024820105 -0.14067565981842686
O 1.7666907498314892 0.9772459624240093 0.275444989621522
C 7.076081671123261 -0.06895470350807073 -1.7176694275719784
H 8.006193810398836 -0.27876142293926304 -1.2022577793263414
H 6.986779403408558 0.9758471076110741 -1.999290011548456
H 6.9208953346234985 -0.7154791194288536 -2.575836616557586
H 1.9005137343542116 1.7011622780993747 0.9185999037334903
Rh 3.080603786348602 0.13017576391889848 -1.6263795823411844
I 4.045046432595823 2.5903639786751516 -2.190136263005957
I 5.456504266440359 -0.4875039810165209 -0.29807865120495936
O 0.9712418285267208 2.7508186484184027 -0.9171559077624976
C 1.086888776217782 1.5065537210595796 -0.8528842095378631
O 0.7544671295505986 1.03349503269034 -3.1782034276056077
C 1.3891128641828343 0.8050359280082654 -2.1611508789268807
