39
## STRUCTURE-ID: 6458f7605f907c361d1ce088 ; CHARGE = -3; SPIN = 1
O -5.901561816991178 1.8141762186902457 -1.9494524569427083
C -5.997675986421396 -1.8811175350858897 -1.4952051545460827
H -6.150197290774234 -2.043058700164938 -2.5542898548480224
H -6.671280972520477 -1.1420199206917865 -1.0812632747673305
H -6.025905551940914 -2.811301357177604 -0.9409774219528396
H -6.016366999288892 1.0449746629959553 -2.53849364168454
Rh -0.9838988386926086 -0.5606995302491817 -1.0935245254369053
I -0.1468727408981859 -3.0593100458466678 -1.0574602234964017
I -3.8251915391780478 -1.0775778004882146 -1.232357959010361
O -1.948199646709087 1.9985872872057893 0.04621836689148695
C -1.4380758743583733 1.4103704347734018 -0.933939232026714
O -0.5680610874901728 0.1470706739383582 1.7459142961743879
C -0.808768388098075 -0.2743248175107178 0.6789112988837642
O -0.4911686967340483 2.183792014934533 -1.6570254365452823
H -0.33597558653603354 3.01299745706558 -1.1774651276868497
Rh -3.1301519163762936 1.1240824977576414 -2.5272482846587674
I -1.157330625086849 -0.3905225129247592 -3.7357766317520196
O -4.419127341030827 3.169625112330901 -1.0556823213853164
C -4.592949610515889 2.1755208220660496 -1.7452838049374801
O -2.8793466140195396 3.6383171911144565 -4.121370819480382
C -2.9929443583882827 2.608451987109269 -3.590548315088398
I 5.096060825422081 0.8444127751416828 -0.8309167980718828
C 4.728976370350771 0.3877896686572239 2.482268435748329
H 5.804789461854427 0.2987385244437428 2.301655407616986
H 4.4583847681808235 1.4502376431929538 2.5010265838546144
H 4.482398319610568 -0.05768979831299427 3.44869350680531
O 1.8047227516258724 1.533177661417276 2.7072244425099212
C 5.261762616262944 -4.245291725248271 2.23648215824208
H 4.270677968056424 -4.143874551512525 2.669197269257502
H 6.039356902842185 -4.0823146678617555 2.9737911318388663
H 5.376578633053766 -5.192770504998654 1.722519928735745
H 1.4779181311873102 2.30480158667994 3.2082934279257014
Rh 3.698244659771564 -0.5502892461632862 0.9358912642637485
I 2.1197406406421972 -1.871798573523794 2.562549784508181
I 5.462418668979126 -2.666450127219541 0.7216908367126225
O 1.0643034008350998 2.609191008045535 0.8866006943484244
C 1.573998840207817 1.6217254515375545 1.4032134177821132
O 1.6254498390909615 0.17188676735578856 -0.4974101932089655
C 2.1352686840751485 0.5004839685265804 0.5835492254275347
