41
## STRUCTURE-ID: 6458e67fd534dd04943cd3b0 ; CHARGE = -3; SPIN = 1
O -2.112814908308912 0.19191664597962776 -4.126136664904831
C -2.829267423893701 -2.919834205064951 -1.6025567464212456
H -3.5635883478616157 -3.4041119374207014 -2.236799448641953
H -2.5978397855748816 -3.5171094251169674 -0.7239335656836624
H -1.9186072559245402 -2.664524379897663 -2.13913473774392
H -2.813150314790173 -0.4458804078578857 -4.355131204128502
Rh -1.3157370785925104 0.3031477347644384 0.5784537225778749
I -0.8480296845022973 -1.934204414611074 1.884059517130291
I -3.7534073704940005 -1.0541861329681794 -0.8593303710691321
O -0.9170324579895772 3.085757720366097 -0.21028626352005642
C -1.709850750157047 2.1303726634544815 -0.17837681966599533
O -2.938358790142786 1.7138344375619101 2.6216170011371185
C -2.362162091175596 1.03780069419434 1.8684907705937421
O -3.044254622513481 2.4720169252717503 -0.3790955274107306
H -3.1219736175362196 3.4268053569749792 -0.5664785062034574
Rh -4.231305269104305 1.1134702071213098 -2.295515184270678
I -6.445489053910898 1.4211384695275344 -0.8940581153744057
O -1.621904681672096 1.9111509478578543 -2.8314620601259843
C -2.4885700251935856 1.0880040831564528 -3.1549814668270315
O -4.588965705492398 2.862810808911194 -4.686409181800038
C -4.574948332066582 2.155847654834269 -3.757847484422491
C 3.328384560877303 1.2319734631105894 3.628519895118996
O 3.3757715079676514 1.0301797479395165 2.3625862272276836
I 0.22902854168204645 -0.5260104748438237 -1.43375699211633
C 4.932780554369393 -1.4610433448236009 1.2235419421246105
H 5.087573655537104 -1.7142264137514167 0.17814645387680544
H 5.30825768768567 -2.2189383282021384 1.9036176538431546
H 5.351200069915618 -0.4842402447001708 1.4378741832891513
O 3.2859802964611333 -0.003805825730716084 4.236395473635359
C 2.75203668596521 -3.401164217128644 0.8140563127239192
H 3.509934511091107 -3.9585849807311804 1.3541946962452711
H 2.928005696322296 -3.3868102168873464 -0.25669539552036025
H 1.7585263046181712 -3.783796148074535 1.0301373054895202
H 3.3244968928641576 0.08813798988661387 5.200995844084865
Rh 1.8242892370427595 1.0464251792660677 0.02799387174103042
I 3.8896609287778587 0.8666007415120132 -1.57034258511265
I 2.8031994853091784 -1.3177612020373624 1.5377107280044926
O 2.7885249464209982 3.3769579761460546 1.5762178968059664
C 2.6489178525999426 2.293147076610041 1.1366505794273272
O 0.22740074867747231 1.9626014371089353 2.344048655949983
C 0.44328740271199596 1.3861343382923772 1.3130195899363655
