31
## STRUCTURE-ID: 6458e9559af4f26464266c87 ; CHARGE = -3; SPIN = 1
O 0.36372680724951606 -2.042198632184085 -0.32245932700893243
C -4.273848387597591 2.979377945968308 -3.522616319631985
H -4.492558328061407 2.3513639017632744 -4.385706011095936
H -4.154409392879585 4.031523543718056 -3.788944074641775
H -4.979352856823695 2.8181980704425835 -2.70724022503592
H 1.5120243487708898 -2.7441471577939534 0.5287424653701404
Rh -1.8844839384972725 0.6225569717279298 -0.8526928634721682
I -4.350307010519582 0.6427092649903577 -0.1792056080579421
I -2.220969783963334 2.3451554830661965 -2.7795093851173447
O 0.14148794294835154 0.29749423263033353 -1.2507408817597407
C -0.008686928103320876 0.25152555824147615 0.049336762267724835
O -1.7693753675425494 0.3290566105618457 1.99442117451575
C -1.7662873940307398 -0.18837731017242246 0.9008791099061324
O 0.34049293917374923 1.214439116173587 0.8201854638725831
H -1.2250865536045237 -0.6273307018218707 -0.3925926694541137
Rh -2.0949719518189736 -1.7794153819846954 -0.00969814860300448
I -2.5109994043355868 -2.1323803202654372 -2.5617970844348905
O 0.23298206585000075 -1.3518760661995315 1.8431559487881306
C -0.05318400932734091 -1.1688286845955167 0.6018754946397485
O -2.1524028524656207 -2.819090362159734 2.7488686693512614
C -2.3403024748911307 -2.7112014122160812 1.6013326368211251
Rh 2.9789930576674135 -0.08099580356652891 0.7434655154692974
I 2.8923563491905036 -2.89756363028569 1.3006322063122562
I 3.296368440590345 -0.6697453469127087 -1.742522559931657
O 1.786648007946903 0.651102410800689 3.367739625740902
C 2.374588687752626 0.35829420791468897 2.4237052346085606
I 3.2079488776020195 2.434834270287248 0.23164303843794698
C 5.038172116392499 -0.029476501195343646 1.2797164340750717
H 5.3024210612267115 -1.0309831189839296 1.6338551561597587
H 5.211474847518769 0.7218551670633271 2.0531406650886157
H 5.597541084581435 0.2241236749876599 0.3730295568200282
