31
## STRUCTURE-ID: 6458b7c2e0251655be7a42e4 ; CHARGE = -3; SPIN = 1
O -2.725238993864475 -1.2814740602778445 3.7520790423410575
C -1.336683034067776 -2.784038673352004 0.056577564766379346
H -0.7443426965625393 -3.670930586706708 -0.15847342481217916
H -1.9192616420638136 -2.4963691693617274 -0.8134162438955085
H -1.9901686012300885 -2.9464173685761303 0.9107111806653705
H -1.9551735629774034 -1.520328165061911 4.306729964984295
Rh 0.021251781842025433 0.5911018990220963 -1.4702187419528363
I 0.10261336153532928 -1.6300614707754102 -3.0306749477724195
I -0.01817798943157839 -1.1264317686093908 0.489443100747898
O -2.6754383309149716 -0.39871926767053345 -1.4058346247132796
C -1.8814547342392889 0.4136828171397267 -0.9414322356009777
O -0.5572953533368966 2.0380862171449285 -4.049945793280218
C -0.30373100057577634 1.6909816986309147 -2.967318857539403
O -2.3116784700098725 1.3248964531835878 -0.032957327940261814
H -3.2281118611737942 1.129520294986394 0.26737652805144707
Rh -0.8539835614665191 0.5219537172918839 2.3010425900162925
I 0.7666890274130821 2.180948895829124 0.6143403188958437
O -3.394649953600019 -0.19719739699079203 1.9618804214838268
C -2.494386798318137 -0.4359600561450265 2.760886653369584
O -0.24849449817627095 1.9790221234876049 4.844413006646485
C -0.6335809910223986 1.378418904581236 3.9438196985821485
Rh 2.7541106052086812 1.6656348023331495 -1.4848376726456234
I 4.916844230833107 2.598125873075663 -0.22464131685685548
I 2.2059377173805417 4.165206487238552 -2.5511724268893454
O 2.3108589940061623 0.7739271952211014 -4.27106312438937
C 2.3368916550871286 1.014952714961067 -3.1181529416921174
I 0.24358505338939174 -2.846047465793062 2.875358937148901
C 3.300135502726618 -0.25490266450447563 -0.7619478421777643
H 4.343295948965948 -0.47988443268135617 -1.028547607642336
H 2.7241379021659182 -1.126791036113444 -1.1158087198939088
H 3.245500292477699 -0.27090651150724737 0.34178484199489995
