39
## STRUCTURE-ID: 6458c978f93d154d255a78aa ; CHARGE = -3; SPIN = 1
O -1.6942177630983013 -1.2644282345721454 -3.798430336847686
C -0.5093987874694527 -2.7682565074278593 -0.3552211148277438
H -0.6232042206903575 -3.5044077882826814 -1.1416969883429962
H -0.15598127045185217 -3.233348228972751 0.5576602853610501
H 0.19076525117698484 -1.9964840500358456 -0.6749360846492934
H -2.3087166454542807 -1.997406898633234 -3.977316320353628
Rh -1.3067966428817315 0.5852624329452133 1.1844973940562034
I 0.6504612746634982 -0.8250180395090688 2.4752229817259126
I -2.4034939591405777 -1.8703593810308516 0.04154844514780237
O -2.0657154833044404 3.047323370256282 -0.08151681073971591
C -2.3989340139722524 1.8910798938633373 0.1741627914796969
O -2.989388842068049 1.62135929880765 3.4296730604825343
C -2.35073011489634 1.1468955389041067 2.5921653135219263
O -3.6168930358456084 1.4713816537045024 -0.2525433143081643
H -4.120921273811466 2.1968200955075314 -0.6773915258694867
Rh -3.799512594398927 -0.7439910139756332 -1.825899175802067
I -5.547789683757995 -1.4574386891255384 0.006307614876924615
O -1.4900511540226797 0.613538794471873 -2.665539634552415
C -2.2036525337109825 -0.3778536817253298 -2.8764561729684783
O -5.2763051785896575 0.23339042508122462 -4.228311432553683
C -4.774584049063158 -0.18458766407564078 -3.273303744322176
I 4.193252669204532 1.4762760399520625 -0.9575841739078916
C 3.2446854444858677 -1.4623481750793272 0.24448759367835782
H 3.0017354232879816 -2.2611811478043875 0.9514823353158219
H 4.321642946236859 -1.504185336516376 0.05868710741861477
H 2.732752207406158 -1.6735482089978548 -0.7050353056779567
O 3.846737104205741 -1.5555226242845699 3.7346391234309433
C 0.5619119857299391 2.5584292752562146 -1.7384700322521358
H -0.032645850394377895 2.4595858402281245 -2.6368400019652376
H 1.6017651461081805 2.7694861723851707 -1.9637493961484118
H 0.1402943513595945 3.3126434885573643 -1.0813626004170664
H 3.600607026287212 -1.8855995338021638 4.624705199681162
Rh 2.64698904541512 0.42942552298597103 0.9718117968200818
I 1.993551130900482 2.926094571784461 2.0656343987502677
I 0.4655546043871866 0.7384956233264669 -0.717335170551885
O 3.3748782730153657 0.47303391000408307 4.549105146968086
C 3.713157668857893 -0.2430325006026061 3.6323557684606618
O 5.276480069448493 0.586545542107157 2.0823012378716412
C 4.111711474845665 0.2719302143259975 2.2524917420102075
