39
## STRUCTURE-ID: 6458f50c381f0e72644cd2a4 ; CHARGE = -3; SPIN = 1
O -3.5093411820117764 1.8350345784724056 1.0450243582009873
C -5.536635301986149 -2.810073347989409 -1.30630274117861
H -5.026552327548728 -2.817794781405039 -2.266734434103648
H -6.565338897514712 -2.47634627115053 -1.3901190778153663
H -5.447494136890292 -3.765455310939071 -0.7979438877699715
H -4.146093563757885 1.0980525664690681 1.0464945144733462
Rh -1.327501481709174 -0.9958045654362023 -1.0179133444888795
I -0.8380854850453262 -3.524991609431365 -0.5973099490105879
I -4.48908015618445 -1.3172466069452629 -0.02614218891961869
O -0.3295086825323303 1.826457507480708 -0.8269489933424533
C -0.9311947610598333 0.9675902949371509 -1.511938694408355
O -0.259975786397234 0.23745255604160861 1.4477981773905155
C -0.7434117507508117 -0.3337572924844892 0.538421657050286
O -0.4389981238745814 0.9200084049744613 -2.865785431342865
H 0.354242826961388 1.481927895389014 -2.9114401476481797
Rh -3.074620668732161 0.7814258533577072 -1.6721323444926723
I -2.5548161728393253 -1.196986439529551 -3.3809787201727803
O -2.5617024888741997 3.2649666521848095 -0.34279619733834
C -3.024472834430889 2.135130394392195 -0.24755932840153919
O -4.648640723544326 3.024338712583974 -2.8370275204224096
C -4.196502655065937 2.0274449366185965 -2.443643752021415
I 1.9481155701666952 0.5909677045449335 4.1728609974898525
C 2.0523942034994387 -1.7375457718102711 1.7433321876730759
H 2.3626221491820223 -2.2558215892660023 0.8252403029788162
H 0.999216605602717 -2.009581248699694 1.9259817009346247
H 2.641765594920145 -2.1333170609000547 2.5758698635697277
O 4.146984523446854 1.3143506771619256 -1.081058892615641
C 5.57540475320981 -0.5125890562606374 3.4783328530666915
H 6.654385799960872 -0.46538304644152767 3.346979870986214
H 5.233595516064106 -1.527325210257195 3.657568370331512
H 5.227759441608915 0.16021440406047924 4.258139491087721
H 4.612635758328431 1.947911734952256 -1.666221494901489
Rh 2.132088079805471 0.34686187341344016 1.5134122827330014
I 2.233820457536718 3.0890396061821965 1.0851387806283312
I 4.717132014036742 0.17422870620339517 1.5509643952987586
O 2.2871256180505677 1.849644072308433 -2.2045128462058177
C 2.8307605358957613 1.2616027994853407 -1.2781918870465008
O 1.5155293668354433 -0.6542629711058836 -1.0981047564490016
C 2.124388365639388 0.19963024883906813 -0.44075317379700446
