34
## STRUCTURE-ID: 6458c396dc08af7d4553d21d ; CHARGE = -2; SPIN = 1
O -1.9891904250836003 0.3585238904134247 -3.6861016676120992
C -1.1836767004163051 -4.649260940653257 -0.24568355926042487
H -1.6040967880703292 -5.131562904348807 -1.123985353255543
H -1.634207398475523 -5.006253579920586 0.6768366040281849
H -0.1002071561049348 -4.718988714436515 -0.2118069975426815
H -2.1218691033824104 -0.6073525333438896 -3.6402711056088224
Rh -0.9419773610145872 -1.0152318258617 1.664326231413735
I -1.076147625197507 -3.1096303370755973 3.3229739799131837
I -1.708751574321152 -2.4635157483159675 -0.4486387762592539
O -0.4571084151787956 0.3072935177313142 -0.8353813284957429
C -0.9130622312003073 0.49550028112443484 0.30355299583988277
O -0.06567827147975695 0.9307317050128737 3.738389791431265
C -0.41275811797823364 0.14312369058138263 2.973044996892623
O -0.9765913398906199 1.7664940263053155 0.825890075305299
H -0.3961862015857147 2.349039304430385 0.268219570634933
Rh -2.728368435025786 0.25612534383245383 -0.8268379828784523
I -3.5931581913833877 -0.147006801913015 1.7970864260786292
O -2.102560515457534 2.244299186808919 -2.5352025036819192
C -2.253303209822378 1.0377037753281526 -2.567864572595926
O -5.532506576528001 -0.07811370563938456 -1.8038854448809591
C -4.432043148893455 0.018925057432962116 -1.5025695687461007
I 1.6834552170445458 -1.2692171041161173 1.0383635853211983
C 2.559535970557056 1.3202548040672635 -1.693995278946688
H 3.42102711233291 1.9367449646040749 -1.956098104474235
H 1.809597604125676 1.4208160602076163 -2.480998853836947
H 2.8701187802708734 0.27910267808920264 -1.6161586547331692
H 6.0586467104444655 -0.2468241084264446 1.3122320969411954
Rh 2.6966245193628784 1.2407785858664238 1.3540046301407511
I 5.358596067223323 0.7988614922267181 0.3384260942282479
I 3.6452269102678274 0.6959224102358053 3.8628087044154147
O 1.0561274693783564 2.7090046884359262 -0.5236229182235982
C 1.9644502597661748 1.8600327086573267 -0.38771344426150894
O 1.2263781627921244 3.5636177067517676 2.537236930971421
C 1.8736640029241836 2.7100624259074713 2.073423401737999
