39
## STRUCTURE-ID: 6458db412b1c256a521c51bd ; CHARGE = -3; SPIN = 3
O -0.791984606065479 0.4653220730961018 -3.4178911398574603
C -1.1170252131108094 -4.260094411254317 -3.6406435226026908
H -1.7212049418035256 -3.781173139458776 -4.409946487501749
H -1.6823509132947316 -4.934688217328203 -2.996098536620726
H -0.1888554788071781 -4.70108795609358 -4.018356814843642
H -0.6801991881023012 -0.49140742761813905 -3.6651243835292897
Rh -0.757568082327535 -0.4933964073455231 2.1269843224582763
I 0.2681116991756626 -1.796492411511965 4.189723677899413
I -0.26919550131085196 -2.57362036552905 -2.1740817574359514
O -1.818236833982212 2.065181545905966 0.6513237397060371
C -1.8996608283836682 0.6773365360499851 0.9229098555629534
O -0.20127843092079728 2.30329455541797 2.7267651764058654
C 0.24381709800203047 1.1517811539634064 2.4483778834219736
O -3.198687779921149 0.5147945565451538 1.4163148419489673
H -3.7082382946647328 1.3367021873730454 1.3557385286275194
Rh -1.6308888212806911 -0.6753758396705206 -0.8455155826884226
I -2.162990541372792 -2.5483975454774903 1.1378075697233052
O -1.528297296922162 1.9377969296560484 -1.9675044663952843
C -1.2632877835198548 0.7628018702333341 -2.2192576948009095
O -4.4584886736917335 -0.0263880684110369 -1.5172660922735652
C -3.3881291105978404 -0.39019185347257956 -1.3555767379503243
I 3.3607287690309318 1.5413812567279708 -1.6630283030464306
C 3.3160054816129136 2.8560071024643494 1.6256540683976048
H 2.447176893989603 3.5747885231285044 1.7112603251165999
H 4.082791841888416 3.4095075200916645 1.0391927061948256
H 3.725058841198939 2.80324113192935 2.6633541224387605
O -0.7936392287928293 3.940025964789471 0.040024123290425734
C 1.4457807794930884 -2.934283553608584 0.2579844201861163
H 2.0217600148147867 -2.9473261596896916 1.1838805112432464
H 2.0739461387272073 -3.286431108780019 -0.5653375604690376
H 0.5591208489972269 -3.564850709902816 0.37234366653864104
H -1.7149523875287143 4.252071223907207 0.07677845952283363
Rh 2.552498562564818 0.9898038975911624 0.8387177610137373
I 4.4250926535400215 -0.8672219202381668 1.4277126365306922
I 0.9335994108078275 -0.7678830900715908 -0.11141900883892272
O 0.32450872601722963 2.009688872869783 -0.09678667256371544
C -0.7152996711406615 2.5950280909223284 0.16727504673345034
O 2.1971088292845073 0.9268414428035734 3.719110683376825
C 1.7133530183962715 0.9269137499935831 2.564600635080674
