39
## STRUCTURE-ID: 6458f1b4cb5f2127e628b9f6 ; CHARGE = -3; SPIN = 1
O -0.3667437522784818 -2.0244121116577394 -2.3501140948104906
C -1.7572900903101516 1.5676751962133137 -2.4999207559378167
H -0.9679814661383053 1.00049535423057 -2.979839342248067
H -1.4079860742450563 1.9202551192696529 -1.533452186305467
H -2.085920985716933 2.395891299594738 -3.114195985685667
H -0.9958351838411504 -2.6113926847446067 -2.806917882698094
Rh -4.71449303512076 0.6427473780172183 0.14379324083457432
I -6.715617072056431 1.799530670475426 -1.1012525782475013
I -3.377765418311166 0.2662033511791183 -2.095170630855549
O -2.040157218146082 0.8166145001518215 1.1749354680872908
C -3.058615565462286 0.11095604106700464 1.1141896414765071
O -5.101766069437107 1.580322107254461 2.93885238635563
C -5.072294351583729 1.2367484612754416 1.8274161246511678
O -3.1379795384234552 -0.9589773590314518 1.9938341829235886
H -2.3577739234407487 -0.9965027281573117 2.575975375707987
Rh -2.782543651710907 -1.8751734536090396 -0.7975136071757623
I -5.421582074630142 -2.1159523018943727 -0.7638201873978973
O -0.15342024480777688 -0.7824749438378552 -0.5196485565448984
C -0.8985311675692234 -1.5056066860494504 -1.1746699015552031
O -1.4271687441670895 -4.192563134895264 0.49679935661346614
C -2.0651197896312854 -3.370823846379637 -0.01809527726491532
I 2.360652821196406 -1.521812013876201 2.4298360910196255
C 4.699330942169128 -0.7341158942362852 0.19948875616137232
H 5.24168447935274 -0.019909858531492648 -0.43716221318001663
H 4.607038398932277 -1.6903980101452374 -0.32323440040592194
H 5.260252086012152 -0.9043106771668519 1.1204146870892993
O 3.4279630661082674 0.5684196370411186 -2.320025583815919
C 2.7732279846673964 2.1027789537317774 3.867106829379882
H 3.003557067858712 2.966980012063813 4.477226137315101
H 2.756727363679026 1.1829288381990157 4.441401305997753
H 1.8371144014523084 2.235621240520618 3.3327987098612355
H 3.4561984368964676 1.166443587223759 -3.0958514631843936
Rh 2.8629776109994123 0.187763504094232 0.5135853806558354
I 1.377283583075942 2.363934870072831 -0.06597518230545055
I 4.3316478952883815 1.9048291803871937 2.3921302228333436
O 1.2843343041629165 0.279932156608809 -2.8765407465282737
C 2.2113853802322145 0.03711792154348468 -2.131760007243581
O 2.1925465270040583 -2.1184766991366417 -1.0832929940255387
C 2.222663067940402 -0.9112869768659861 -0.9513303195473626
