34
## STRUCTURE-ID: 6458d93b42d7d54d9f11e55d ; CHARGE = -3; SPIN = 1
O -1.6107832133488804 -0.8524921797095221 -4.114186949349037
C -0.5930985527108491 -3.18310139275673 -0.9548102831356675
H -1.0013725753065457 -3.827332293410932 -1.7251436462431748
H -0.17260431422529415 -3.768316786022765 -0.14253904763127098
H 0.18897833863293478 -2.5624926488847746 -1.382425656982066
H -2.471623883679474 -1.1597225211365114 -4.44866625661402
Rh -1.3641337113413283 -0.08894128840636925 1.6173932162244007
I -1.824935551879854 -1.7791355659745303 3.603681904868685
I -2.0826358497437556 -1.9206401445589536 -0.21304602638463935
O -0.12642156146879868 2.0923927213169673 0.10698365201990374
C -1.143188459461147 1.4144949745511153 0.2844313110837839
O -1.9086760003807777 2.249152914631775 3.3512620626753424
C -1.5544750354999235 1.3470747581368627 2.7459114545292653
O -2.273387432161177 1.8506853344598477 -0.3112189705511588
H -2.1542283105088464 2.715176457846279 -0.76061006063364
Rh -3.265261334914241 -0.18331139748686462 -1.7180432291387233
I -4.602924642537167 -0.25711350235982766 0.6091067349119061
O -0.6972244137264316 0.3129862559514859 -2.4634895821065266
C -1.7256391502160606 -0.2017086812101071 -2.9108763356794083
O -5.014438123272239 1.2234144507166602 -3.7002029349960903
C -4.348215773508755 0.6798101633775301 -2.936217644976205
I 1.635395201259848 2.1711154693453993 3.4078204418750433
C 4.794743817344653 0.7699249566946816 2.1017064827859735
H 5.420647029750709 0.952372987593971 1.2261482696045471
H 5.316908224583707 0.09455849925248423 2.777830697274653
H 4.597803655001929 1.7239075261102548 2.585465540258769
O 1.7335287256215377 -1.3678587579018542 -1.8078935075108773
Rh 1.9655300552008297 1.119462077313937 1.034980169250234
I 3.3452917128023825 3.0866768782120726 -0.0985072555293087
I 2.3267888976172313 0.3718731621587082 -1.431386167823382
O 0.8244452076968805 -1.5604127170520707 1.1681482260170641
C 0.7471659800960369 -0.38215557212549534 1.3274149038656589
O 3.493375810732761 -1.1449987268799482 1.5412665839797624
C 3.544665233550176 0.06465458820724007 1.629711904060088
