39
## STRUCTURE-ID: 6458da2769dde71f1866226a ; CHARGE = -3; SPIN = 1
O -1.982217895271039 -0.8204875483760703 -4.125368885365547
C -0.5318061106358414 -3.174831531871752 -1.475010433342859
H -0.026347734116063178 -3.846981959802113 -0.7900527393241836
H 0.11297811419618523 -2.3264791224329135 -1.6852752553359869
H -0.7872765009613379 -3.6833420588725168 -2.397230422525971
H -2.8205933816853057 -1.2219685395025868 -4.4117746306391945
Rh -1.8045450303211787 -1.1910738678129136 1.712844323332396
I -1.94476745901267 -3.4020635728386233 3.109180376382706
I -2.280567958292875 -2.4341060431229273 -0.5485358667671689
O -0.4521184816869303 1.1668841986881346 0.5520139528000678
C -1.4972915270336498 0.5071443779997988 0.7114860173980622
O -2.1912876072810175 0.9381986539183721 3.744860311490164
C -2.0178635879062528 0.01967003340007204 3.0519176399631114
O -2.6297989982492442 1.1341419079833455 0.24580979536831707
H -2.44132640894162 2.031690373856052 -0.09688455326131189
Rh -3.596718287578129 -0.5338985609159711 -1.6773764827145783
I -5.117647392632161 -1.358123408604894 0.3525644033639281
O -1.0813218979985995 0.3652303521709213 -2.493436457854598
C -2.087270992093504 -0.2354743298274369 -2.875176438276433
O -5.193572711472984 1.3564191130216663 -3.355900556083558
C -4.629621834719997 0.5962681837937632 -2.6912884894003675
I 4.423644886136141 0.7988541799928389 0.5172983064432595
C 2.787268057995949 -1.886765636498936 1.938917297482393
H 2.344723577995601 -2.7431547884364695 2.4508330196510437
H 3.345125918042459 -1.2800805773969952 2.648024857130353
H 3.4706235649230943 -2.2431826156446744 1.1661024893573166
O 1.7619234179031333 1.449980742424027 -1.9562611510946837
C 3.3427731872830617 4.480231906053811 1.672959344381899
H 4.296887410970537 4.038742487220302 1.4027028003722914
H 3.0614024064912284 4.193948329493483 2.6816596742050587
H 3.342259524506117 5.5555619661526086 1.5454352071151378
H 1.6543202015463216 1.1930803748955232 -2.891203153843109
Rh 1.8232111847195531 0.7982149160783438 0.7782099915166849
I 1.8280010534801416 3.660623040102787 0.30312030651862026
I 1.6230890165048235 1.273512052537853 3.4258562567840314
O 0.630438275143254 -1.6794536823813222 0.9688900380461577
C 1.6747686872672265 -1.1103775168950507 1.2508543617365984
O 1.7898090888882046 -0.7567760404613787 -1.6287924379185703
C 1.8007142239063192 0.3702242119260827 -1.1319728170944072
