39
## STRUCTURE-ID: 6458f5bc5ca08b624b753684 ; CHARGE = -3; SPIN = 1
O -3.7935472169154623 -2.040888902090773 -3.2187203965093265
C -2.093742405883883 1.5590252551291301 -3.2718374037236733
H -2.796554277819362 1.8217334896675164 -4.053150018976708
H -1.661069887799711 0.5785299891717415 -3.4533166111645395
H -1.288508052422485 2.283973390715563 -3.2162351523395327
H -4.693859323414613 -1.6820343852119737 -3.3210984865777475
Rh -0.8924331734228861 1.7767422931458967 0.24039129233211473
I -1.505922467658129 4.259995775664844 0.8768919913051029
I -3.0529513993001838 1.48055609401526 -1.3874464899505203
O -0.40510728536003826 -0.2847136606787942 -1.5897118113127562
C -0.826768517609853 -0.05023085620674627 -0.4604954983828269
O 0.6634919180585317 0.5021185407396395 2.368914638940582
C -0.18438461846043436 1.037988008591833 1.7649398769273863
O -1.4560278947337242 -1.0118051264750356 0.25059888458383855
H -1.6660663676276686 -1.7643469309517799 -0.40718350676552406
Rh -4.13587539052929 -0.7248221157159543 -0.6163772959031057
I -5.019105242865181 1.1739672638052183 0.993061894733402
O -2.2158813529033208 -2.459134350593966 -1.7458163111067404
C -3.2960622232968064 -1.879800550108513 -1.959051682212152
O -5.663561630958197 -3.1405210761730764 0.25395734805052644
C -5.112383538254036 -2.19356796050664 -0.08634427687890649
I 4.7532203289141854 -0.890654007271276 0.06869075430036964
C 1.6067311047816326 -1.758513321184891 0.5361411207556629
H 2.193114390575503 -2.6768083129043285 0.6835656029246274
H 1.3386804171276179 -1.7455565059999114 -0.5355625688885695
H 0.6615994256984462 -1.8961493733184964 1.0950723678132326
O 1.6673331542627063 3.122501112154885 0.36057436041671537
C 5.305845232879879 -1.0666737357542766 4.079582236984574
H 5.519726048305058 -1.647051242399568 4.969984494665682
H 5.399666307347064 0.002097141498010194 4.249418332531018
H 5.9045715053475565 -1.3762337781220326 3.228017647733673
H 1.3244876370134775 4.00650345159712 0.12424493763228964
Rh 2.5645114426786493 -0.004953019634572518 1.2008779328684018
I 3.8524142687398437 2.0771299632892974 2.25718311821171
I 3.202520779669169 -1.4611291052359634 3.560861196853363
O 0.4659822817133451 2.490445972383745 -1.457192417215213
C 1.0673490758370603 2.131299617413253 -0.3907980424337043
O 2.3030463455800234 0.5668601954776259 -1.5661151767299013
C 1.9655206027062024 0.8841207620804223 -0.426516883494151
