39
## STRUCTURE-ID: 6458d5582a02cb042814397b ; CHARGE = -3; SPIN = 1
O -1.003254007288478 -2.6163902397095047 -2.7366049188298884
C -0.7790667034932743 -2.746381920774461 1.2664904222468314
H -1.2314083492017762 -3.7068193059058387 1.4834402399561193
H -0.23215006646582279 -2.3791406377776156 2.1282457069213465
H -0.10526626936135149 -2.820499643972981 0.4193454393641584
H -1.8005004997609853 -3.1625571862840807 -2.8465735199795006
Rh -2.4612959345223633 1.1478037798336693 1.5928596065017089
I -3.38136234374935 0.42561770047443737 3.9468822199515294
I -2.3149558038151685 -1.3613943863400868 0.7795292344597745
O -0.30271501620568114 2.2478899204014264 -0.04025958380742029
C -1.4416455004205933 1.7590614546987415 -0.021381590325819162
O -2.4170718633158335 4.1059663110576645 1.8482555390498479
C -2.5003430555207142 2.9460322287933267 1.8378685312252865
O -2.116015641757335 1.7718699698329607 -1.2272829982311126
H -1.5874689350036157 2.2095984100194896 -1.9219031114369152
Rh -3.0140377733632815 -0.7365177285364728 -1.635577058186525
I -4.97787751312564 0.26140892569557717 -0.1318762201883291
O -0.3286450656586588 -0.5858548677873502 -2.1565486692189273
C -1.2912006234398015 -1.3555805897534257 -2.2825286237912916
O -3.950573866581408 -0.7059947537159389 -4.472358714960415
C -3.651690097683586 -0.7099723891246554 -3.3556660558016342
I 2.8998335777491833 2.6531335364636033 -1.583161838939612
C 4.4697525332018015 -0.09867147990292176 -0.5514452273880641
H 4.4479877287261615 -1.1806982399657333 -0.3864977774459998
H 5.358585526081581 0.3215503749713082 -0.05614506755569401
H 4.542330642830787 0.08339333610058935 -1.6239910649502824
O 2.266150986055156 -0.7039210168570545 -2.460699705948223
C 0.5169523341393729 1.9267660838696876 3.512372832581256
H -0.2909944764650571 1.5121934733824107 2.893059653188051
H 0.11042974445900108 2.629273000451676 4.229653672219816
H 1.0710186716077295 1.1332916459049032 4.003869962300223
H 2.4260685103160373 -1.3984084628051627 -3.128171371382429
Rh 2.87923171927451 0.8847558537110255 0.33665543240641227
I 3.3646843757481752 -0.5560390285390236 2.474798655923326
I 1.8385318556902288 2.978254979398337 2.2073425981347015
O 1.4607777572540326 -2.391910887420368 -1.2207610096652046
C 1.6167747003263933 -1.1880487218565543 -1.4058579847663037
O 0.46572022691426535 -0.34097181877214444 0.5086509378164724
C 1.4447085158352335 -0.25208767924508063 -0.2240285714498516
