31
## STRUCTURE-ID: 6458e9559af4f26464266c84 ; CHARGE = -3; SPIN = 1
O 0.013703299904980488 -1.1936262809527765 -0.9588577267942827
C -3.7864710948042934 2.585435931097382 -4.129906833665081
H -3.4451715819841944 2.3923608641237943 -5.14698903797467
H -4.108648368566672 3.616888190784564 -3.9934257067559864
H -4.527796531700598 1.8626874791680055 -3.7893613977693774
H 1.3253778766433413 -2.2442102853761168 -0.9880623174312688
Rh -1.8979455591224603 0.7693769147883754 -0.7642985872541543
I -4.232530621795733 -0.24602491624624168 -1.074157086736066
I -1.9452277271973388 2.337444865635921 -2.820667049377676
O 0.027783843331260265 1.3113709664226552 -0.008200116400245535
C -0.17605299388805526 0.36009887122187023 0.8503558377374959
O -2.4840888937497096 1.2216057556448239 1.8760598731954032
C -2.155218010597161 0.3509780371925102 1.100605443655966
O -0.011480547752711593 0.5354760274761149 2.1123475783264216
H -1.4093275763367266 -0.33555621580958894 0.10317063403756982
Rh -2.2602302636469758 -1.4463171932965386 0.6516596770081208
I -2.2926069659944197 -3.7557985933577704 -0.5560259706081461
O 0.38956572217290975 -1.9302452996518475 1.1593375056436328
C -0.09861804894639171 -1.055121653325564 0.34941159103498787
O -1.668759000296328 -1.2064038894122064 3.5072268349937614
C -2.150622658027515 -1.6569458483727693 2.539814680501769
Rh 2.866390551092531 -0.11678445358974879 0.7132724368614539
I 2.8098456572448707 -2.620630821293991 -0.5821836979660535
I 2.833262361216262 0.9634901206200277 -1.623522135919512
O 2.0707036322286996 -1.0880426861298484 3.412998147826207
C 2.504010445093075 -0.7845056441365189 2.391645139211773
I 2.893702208800224 2.2070112512642437 1.8535155427287366
C 4.976767518378805 -0.2014069063415061 0.9371518736102346
H 5.299747461931502 -1.1862298077430804 0.5846074560092108
H 5.25145339782279 -0.04332097277278135 1.9824616459362838
H 5.388482468545723 0.596946192368839 0.31001576633350864
