39
## STRUCTURE-ID: 6458d76914140d43607ddd60 ; CHARGE = -3; SPIN = 1
O -2.9555532515024514 -2.4241760173660505 2.3106746311243413
C -6.1343745677116015 -1.1883723864821418 -1.7489120281500496
H -5.530251797547806 -1.4631403825694982 -2.6084790138040126
H -6.7829342832148765 -0.35284245119193813 -1.9810351329720735
H -6.692538891914634 -2.0362334820953585 -1.3728645628019567
H -3.737481711218748 -2.290449571133503 1.7431061395728158
Rh -1.6735097774084442 0.6114243687417762 -1.3291106034808553
I -1.5888581823333234 2.35413502590918 -3.2539528738161967
I -4.720037539440932 -0.527770950816791 -0.1461346815702342
O -2.58826498341299 0.27397251274071055 1.532323597872022
C -1.622369904992155 -0.025550523341096483 0.7556483779948205
O -1.5958317441009158 2.8039502372380833 0.6581263167390606
C -1.6095453057491882 1.9579840747170845 -0.14892389362336322
O -0.3722393584121859 0.28487409605741726 1.4081936650803937
H -0.5838917844543007 0.5322577184433137 2.3222259156144887
Rh -1.8577960862016571 -1.8812448277195233 -0.29619137662256884
I -2.206068528686606 -1.4819730906716362 -2.9042250343721716
O -0.7620744740348461 -2.2722811226232023 2.3491560561698495
C -1.760667501893991 -2.1852259687875573 1.6315415097259742
O -1.253697580298488 -4.740273965361675 0.22416050439754784
C -1.6105053906832885 -3.6876895599899417 -0.13652987939116842
I 2.44748795049181 1.913793754211989 2.9717453853288025
C 2.5047182902523106 -1.2898259201676086 1.8707358201008804
H 2.9388413849679855 -2.1018450325937295 1.273003941662416
H 1.5189023118934424 -1.6337648729148733 2.2240385917839363
H 3.143785968409634 -1.1634277905722605 2.7546683087573833
O 4.792343342550183 2.687460431455037 0.0182618226848828
C 2.4539125666343224 2.675509948864683 -2.708540826197504
H 3.4926003580704212 2.979978991265778 -2.653855364760383
H 1.8490713712872897 3.354955481380631 -3.302885819559568
H 2.3542659910130714 1.6546008012996227 -3.0682917320375576
H 5.370730364891656 3.4365059779024967 0.28481825361463725
Rh 2.2223154386637716 0.45720214450409574 0.770532691649642
I 1.3857529256640309 -0.9832315965056199 -1.3018234672591424
I 1.6594771074175345 2.730822424205539 -0.6704254584383972
O 5.777823559390226 1.514057066247725 1.644286361062844
C 4.965279308428325 1.613383238675556 0.7548434594947029
O 4.656741850927676 -0.5260632758152761 -0.1967743529395678
C 4.104442554259569 0.4185144948584121 0.32686475136558935
