34
## STRUCTURE-ID: 6458fc9f9c40aa50bc3cfcc4 ; CHARGE = -3; SPIN = 1
O -0.13224156947088944 -1.5042450904551359 -1.7206048083356758
C -2.4238475943760878 -0.03222044302516353 -4.008003316104275
H -2.9558361726911224 -0.9490170163664133 -4.255594318031425
H -1.348491207363232 -0.1838393446673711 -4.006285181355876
H -2.7132348280288094 0.7919451624213543 -4.655881107288161
H 0.23262510658604998 -2.4027719554487073 -1.678789161319871
Rh -1.5545461922082826 1.38194824950301 0.18419561862171308
I -1.941622800297907 3.94412927583165 -0.10977167829687581
I -3.0219592169205076 0.5196357871639352 -1.9573745371960503
O -3.072314853695569 0.3955262901766928 2.46113870703752
C -3.0584661728350375 0.48007241205423945 1.2209648017530366
O 0.2864106697460091 0.7258772009300756 2.4219029760660393
C -0.45679965469854983 0.9756620049233078 1.552292610993007
O -4.278858216858807 0.8328600281217905 0.614836146444824
H -4.970663658036083 0.9840270391367287 1.286336688737465
Rh -2.3532427726067513 -1.0961970100805363 0.008704993250331498
I -3.4931741611014373 -3.2656800017934784 -0.7892568808045357
O 0.499479460669429 0.604457768337739 -1.381036308224717
C 0.7147287436125228 -0.5785356131900918 -1.080259266809824
O -0.8677516454232134 -2.1238100309282393 2.3653698816122724
C -1.4627752240188154 -1.737786801027712 1.441585702091535
I 5.343146461484897 -0.6731414416032576 -0.9068857991242727
C 2.25334818034105 -1.678366487786825 2.9024342925568325
H 1.7981686920072333 -1.9040086624369443 1.9430618402621143
H 1.4883062619772471 -1.3132905488202753 3.5791071148423708
H 2.7380492727951595 -2.5590785922372743 3.303045923516026
O 1.575395980579101 -1.0582498184498184 -0.336822627707901
Rh 3.7088772925128954 1.0943305258999327 0.149501566023415
I 5.7623842034717 2.1599689889193754 1.8786417656254504
I 3.6629030216938947 -0.13761819292544783 2.535413555468734
O 1.3071667671384926 2.7738671377240878 0.7209975093470807
C 2.26644239776992 2.1368214298981134 0.57050279584766
O 3.098399131954425 1.8250824600675584 -2.673407221680075
C 3.369994296291108 1.5716452901330902 -1.580062277817921
