39
## STRUCTURE-ID: 6458f31daeb67e2c4179b55d ; CHARGE = -3; SPIN = 1
O -3.330893565102156 -3.235081898657052 -1.5257538845253025
C -0.6826188662316828 -1.0781135841697178 -2.4836017119313656
H -1.2004434781798894 -1.9120852522837877 -2.945641416805947
H -0.24211861304657809 -1.4129848379972831 -1.5469757125565933
H 0.09108767561674679 -0.6895081657063427 -3.1309651088097596
H -4.0133072467777 -2.994548957969081 -2.17759318240314
Rh -1.0019873662299115 2.052306571535541 0.043531333637102466
I -0.850257901459591 4.309960791981564 -1.2730411661601793
I -2.06186757429565 0.4367164542424655 -2.0354874736192734
O -0.15701002066130917 -0.6089511143049251 0.6149375801472259
C -1.0574169386355279 0.2506089070051985 0.817836294985972
O -2.229462678567835 2.8369951755776173 2.6457968069623785
C -1.8051441487002795 2.621248105716462 1.5886461915083954
O -2.1915553091987996 -0.17929428463611027 1.410691583949458
H -2.238573239535986 -1.1768892009492185 1.3561760233309599
Rh -4.066900347079299 -0.5365213984351471 -0.7552706184952954
I -4.791768945389721 1.8727395844429018 -1.5625847655030274
O -2.4307252119727263 -2.600970137497599 0.3794511038435507
C -3.1958792637259803 -2.2845687698230503 -0.5428071461373669
O -6.314468827360949 -1.7404628072763606 0.7997650970517152
C -5.501280663935765 -1.2455226196051856 0.14917249967980284
I 3.0508855862291826 -1.8948407306556536 -0.4484633763567339
C 4.06163360694435 -2.077237283946999 3.164453094989714
H 3.1946775299211474 -2.743235939487203 3.0843614829802295
H 4.254863307111427 -1.8581845329251439 4.213954982250051
H 4.9347921667145815 -2.5594724952000067 2.726296274821907
O 0.4848218447084594 1.529192957578119 -3.2093924893964383
C 2.6113455175691063 2.6409760020521587 -1.7222880990951772
H 3.1235349258052905 2.2443512050085523 -2.5913663880533657
H 3.2877785182116437 2.7731773907665453 -0.8848721640709818
H 2.100583126825464 3.571407832785359 -1.9563929684324646
H 0.48174837496099304 2.430826045114394 -3.5451771316540275
Rh 2.092842776732606 -0.6087880189856527 1.6182229009219837
I 1.047384291268556 0.05059049471815071 3.934739710079271
I 1.1764058276837475 1.2059029302816822 -1.0956614193776049
O 2.693158099347869 2.1264259695814607 1.2618828425590776
C 2.173996924421933 1.1337311961039889 0.8165713234568949
O 4.662603095329872 0.11527806932539264 2.361993730901664
C 3.83953701068413 -0.7651736533045028 2.444855365326274
