34
## STRUCTURE-ID: 6458f5b440acd4150021fcc3 ; CHARGE = -3; SPIN = 1
O -0.38830990376455626 -2.765202722223614 -0.7480361320323604
C -1.9371467500817257 1.47321322238314 -2.984143822179115
H -1.0356419344443302 0.8691760900827091 -2.967693019497866
H -1.7376919090686136 2.4228440883776092 -2.4987337009266595
H -2.2712458122603776 1.6304558419976727 -4.000933560302061
H -0.9705841659094107 -3.532316721448122 -0.6364725806439503
Rh -2.8153796378403255 1.4992203343085355 0.8907071011826954
I -3.423932879010543 3.9122836778483507 0.187210824850877
I -3.4325039081850734 0.4228726120590315 -1.8911709822506835
O -0.21143703338116004 1.2714263971736364 1.3464204977077212
C -1.2588744548821487 0.6906136350718639 1.6939192070871048
O -4.5260071713497245 0.011507312704249694 2.810499824903779
C -3.869493845194127 0.5189331092280142 2.0007175091282354
O -1.2317656758293645 -0.2574466429934818 2.6539773571929346
H -0.3238491737580819 -0.475858578087666 2.9614285306961223
Rh -2.974178530060636 -1.417681570951802 -0.13580525060894977
I -5.625092616233445 -1.468296048671074 -0.4144338551921763
O -0.31463614325160455 -0.5685760223578705 -0.7980650026299124
C -1.0386885328320066 -1.5472220801224996 -0.5738704772253781
O -2.4867100538732823 -3.3664665285459736 2.065939654994234
C -2.7088480508526924 -2.669561833578373 1.168168857777215
I 1.8560144928451296 -1.757768290084217 1.7684273736268097
O 5.093235589103394 -1.3055291679401477 -0.612373848313941
C 3.0215048905850193 1.4306466747549802 1.2175948187174106
H 3.453630054253873 2.2388103400229262 0.6221905928485824
H 2.417995142011155 1.8894239333517013 2.0195451146338126
H 6.054830387793831 -1.123874918999537 -0.520283788399666
Rh 1.7145317488205518 0.2878981250920136 0.12864260998828234
I 1.5207954592387525 2.2967937578285134 -1.590578229883946
I 4.733759453763465 0.6478359309828698 2.2282665355037894
O 2.498947542804312 -1.2739814680224635 -2.004915011274218
C 2.9169820354713623 -0.5540487822685166 -1.113798839998417
O 4.894753475057854 0.8234429162690129 -1.2660377419306568
C 4.405037910314514 -0.25356662324146223 -1.006310567549574
