36
## STRUCTURE-ID: 6458e36270c9767e8a7b0e70 ; CHARGE = -3; SPIN = 1
O -1.8456509369815157 -1.716300512556111 3.7933015919754145
C -2.656008756742672 -2.693169051032801 0.0403084998871719
H -2.778051050054305 -3.3254066652851866 0.9117370786363505
H -2.539766429925175 -3.288777578142197 -0.8575412507820815
H -3.5084794014520906 -2.0291141527413785 -0.04888922247562965
H -0.8954393950330941 -1.5112798748653071 3.804577494068804
Rh -1.6646722319653173 0.8085070083896733 -1.1961939617962323
I 0.12621890803409713 0.5647515485538747 -3.132289248085748
I -0.8980603598854968 -1.4911686341719037 0.3239806230985933
O -4.085714270974456 0.15649773492252417 0.23918215311527818
C -3.1661254276940727 0.9832420876011503 0.09238672724667964
O -4.232670295957041 1.1832303543580531 -2.661578034222799
C -3.156778189146915 0.9979966802832917 -2.2367713738006216
O -3.48925607293352 2.3036600972637027 0.43405499868776537
H -4.401838967407937 2.3315244501261443 0.773497875305407
Rh -1.627294528940637 0.4953231684387909 1.9377864646370326
I -0.09180443167970084 2.2255329253635887 0.5648452214851392
O -3.7825504370591125 -1.1064202817582007 2.941083008335731
C -2.5843881003964255 -0.8761332704392895 2.973600883207928
O -2.6747707904376172 2.343202723266424 4.031489441604117
C -2.1929225522528135 1.640920107161018 3.2415494646810785
C 2.3765852024349075 -0.566362732776974 0.11323434662733715
O 1.3880169258294814 -0.5542123450654125 0.9544533017302386
I 3.3683757214039445 1.3987292779003282 -0.11175064620429548
C 5.13243731141114 0.6013420372547195 0.9772710578438912
H 6.017543985750604 1.0809911849409526 0.5629049975233282
H 5.18380317707387 -0.473360195230141 0.8375320767449307
H 4.999278793618669 0.8543588353198516 2.0236648864640503
O 1.9290960003679143 2.750583178139811 -1.661384991406997
Rh 2.9604285998980493 0.186166210834321 -2.5521028895976205
I 5.4580247885970525 -0.40190527524091635 -2.409931950188051
I 3.1290239565588864 3.0407593572964626 -3.134672693590806
O 1.9960427299713592 -2.3320756524676005 -1.4425943318983379
C 2.268200078668731 -1.1881337194050448 -1.122946212763345
O 2.9750110070839826 -1.5505668967979187 -4.950588044055162
C 2.9641554402171795 -0.8429321294384723 -4.05320734203865
