34
## STRUCTURE-ID: 6458eeae2a46647c7a04a083 ; CHARGE = -2; SPIN = 1
O 0.7532387571830179 0.1924616781455738 -1.5153660079539117
C -3.9357558881024 0.7138416430563366 -4.247025698587167
H -3.918700276689333 0.08822856595200046 -5.133533130927189
H -3.1193652315370297 1.4289608455815124 -4.238899004514311
H -4.895840728740261 1.2052985487515477 -4.1214567350901365
H 0.20875685698075686 0.3472648098501643 -2.3081743566309356
Rh -3.355389840558246 0.597904747301772 -0.12737919395067632
I -5.719094430655323 1.7549713850947057 -0.04009025366273289
I -3.641738172068027 -0.6061475259234984 -2.510814829306653
O -1.4835460817098358 1.5502911223284126 -2.0409877494411064
C -1.6758036416589872 1.3939991929305877 -0.8212199297463075
O -2.348561533506325 0.9686500904953668 2.6410787788079597
C -2.747767679431748 0.8504164929804556 1.5616642643270937
O -1.110073875955948 2.3306360527121037 0.013337618241324978
H -0.6321640141013122 3.0089154281086525 -0.5040897510620317
Rh -1.5910970070282202 -1.203587398602485 -0.40418678859528606
I -3.6797056668490926 -2.512870369517419 0.5480887862522476
O 0.46415563120349934 0.14262079189416862 0.7035694307581196
C -0.02137509755459481 -0.05516803334712305 -0.4122132354505445
O 0.8036518525832161 -2.8857754870366445 -0.9631086779883609
C -0.23059151815957885 -2.407531223820287 -0.7255398280285763
I 1.8081750380761257 1.3920072603815408 3.500250532757313
C 3.3446709267392705 -2.027496144173239 3.051323052842136
H 4.257121369780383 -2.282702826623078 2.511749895833176
H 2.9268198513500354 -2.9275050600816885 3.5021794954997483
H 3.5850986943678866 -1.304154690708424 3.8293304677041387
H 5.39057333715233 1.6642857634848922 3.13235920232449
Rh 2.577691769192129 0.3469817762599987 1.1825790112235095
I 5.300194457465618 0.6704651461059923 1.8831065297438456
I 2.652436422407258 2.7908020115055456 -0.15956825526996812
O 1.3211704844383096 -2.093202267633804 1.800466585581935
C 2.3245469564718335 -1.4786137631081353 2.0806802686440493
O 3.3424498090261667 -1.1186980744677129 -1.3063349643263036
C 3.0458184698885935 -0.5355504878779199 -0.3617755300088871
