39
## STRUCTURE-ID: 6458c828955c924bea25a9b8 ; CHARGE = -3; SPIN = 1
O -3.248986456948729 -1.432874665963142 -3.7540016605948914
C -0.7925318757600461 -2.9434253525749026 -1.3734652284809896
H -1.1669751515916948 -3.6010845953144313 -2.1485134857172263
H -0.025173563053373958 -3.431679561095258 -0.7820476138108595
H -0.38874709701834004 -2.039266610769563 -1.82112172227484
H -4.029289675313446 -2.0102631566635805 -3.684281452306008
Rh -1.619331457751474 -0.7619676268265261 1.8453409923063189
I -1.3356696649565882 -2.7195943775205587 3.5498097880256783
I -2.372945385163217 -2.334886837780904 -0.10625493903299597
O -0.5852592749122631 1.3039366021548238 -0.0039306523748304225
C -1.5572528298312551 0.7184603849780985 0.5058088076608444
O -1.9179884289904554 1.6516333740500329 3.548122161283604
C -1.7359839042512684 0.6479145193612665 2.9893635414335438
O -2.7861745861066307 1.224824160414475 0.1307206927400388
H -2.69312424067155 1.975927927688923 -0.48775255204875534
Rh -4.1980155001796176 -0.7938654322918081 -1.0526586268209535
I -5.0268052254867674 -1.4320939395893209 1.3971587923140407
O -2.265621760518924 0.2866549737531568 -2.764971387659081
C -3.156242333206815 -0.555935886311918 -2.6832080683415795
O -6.3655201212248596 0.6808800486014362 -2.486896113182634
C -5.585848311950422 0.0692747515878682 -1.8897861394217934
I 1.4330118389608066 2.70833616286349 2.4265408862872264
C 2.6229703552791044 -0.850957714012891 2.3562025541840566
H 2.116935934299951 -1.5623695429097912 3.012156259487375
H 2.954014812845556 0.008858403004571806 2.9340405918790284
H 3.491187301263686 -1.3339995377742813 1.9049220221374321
O 3.1509111370375513 -0.5291945595255056 -1.5795518773167825
C 5.068916580536993 3.324552832173545 1.0893329353450365
H 6.154425388063356 3.291587439186662 1.0995960684485802
H 4.6517442096437875 3.480172431050232 2.080011528557699
H 4.68965669448905 4.061471087016549 0.38653286093856587
H 3.162142206130756 -1.1013740223072064 -2.3728731772953675
Rh 1.7754276618422558 1.2204015117328662 0.19594456098235605
I 1.8299188078193347 3.363628685606461 -1.561365033619293
I 4.395913689298885 1.3522162497070178 0.3839872563459407
O 0.9983159071406872 -0.26559784146720344 -2.0936207664773745
C 1.9295666949433699 0.04486509757133208 -1.357656127773545
O 0.7657164429987624 -1.247616202839662 0.9289595204507206
C 1.6627111822956226 -0.4675491789606213 1.239404803741085
