33
## STRUCTURE-ID: 6458e64c9bc7ed5a992b2dc4 ; CHARGE = -3; SPIN = 1
O -1.3489686213242307 -1.7743838596724093 -3.743081863424198
C 0.22917945245382657 -2.9538223527172898 -0.09732754220877483
H 0.5160934207682687 -2.980949185818245 -1.1429386033284168
H -0.034354077584934785 -3.9411357303896057 0.2633148712637361
H 1.0486917225662256 -2.544431229563139 0.4869232856968146
H -2.3095200406958964 -1.9330158717232044 -3.7182944289088855
Rh -2.080861517922466 -0.624753048592778 2.4023396325989523
I -2.9753127160593333 -2.989295814443965 3.3030224022863943
I -1.4184814752990622 -1.6715012618812803 0.08279312071607509
O 0.37100101292074894 3.122111887633389 0.5217457546232196
C -0.36695428865869945 2.5143907677822424 -0.23763734696955027
O -3.295439332531318 0.6580633767673746 4.776689285788239
C -2.8126786616981585 0.15273720742669727 3.866449076193364
O -1.5349665356165572 2.956298805068383 -0.6629346120586934
H -1.7985396872360397 3.8252835882502874 -0.3023243687730563
Rh -2.2179579692164166 0.05643047935700493 -1.6696789991106251
I -3.89174861360127 0.4791127919776454 0.4053308508707575
O 0.22647081602557004 -0.41565874451827584 -3.013592187482358
C -0.963585814490343 -0.7124330668544796 -2.956540516272299
O -3.24150061511601 1.6931626110387084 -3.951590367494716
C -2.9190382258223475 1.0377478362943242 -3.062054411789884
C 1.658333598563675 -0.23487403118491118 -1.0689491283274544
O 2.393022990396619 -1.1260162887558007 -1.384125141674768
I 0.37736057796680555 0.6406619936841458 2.907525455887915
O 4.640625541331926 0.043813941491122256 1.2513265625462076
H 5.141693663678307 -0.7880935406110028 1.375307910635047
Rh 2.2401006925350444 1.4827091055132897 1.1629673964102805
I 3.783735797089572 2.6280439314698136 -0.6507953989089929
I 3.481446249765445 2.7158060498665275 3.1272695210155246
O 2.827161623716695 -1.2240289821301216 1.5318256414220004
C 3.3201747577416154 -0.11668265079049579 1.3460148572175217
O -0.13059010475358068 1.3259237986128654 -0.7451052007781076
C 1.085406380106337 0.6987774874131557 -0.40387550766127095
