39
## STRUCTURE-ID: 6458d3c9051bef348f4cd2b3 ; CHARGE = -3; SPIN = 1
O -3.0445633511445065 -1.1754765374821863 -4.0396453431420465
C -0.639855048754418 -2.128206730400982 -1.3891957518218092
H -1.0120143456706672 -2.678757183414401 -2.2467662329892377
H 0.10424770908815183 -2.70708163135836 -0.8565473716203117
H -0.20297743747533453 -1.1925058918662514 -1.7330379883613114
H -3.8483183299276327 -1.7228768181437049 -4.0810590765897645
Rh -1.0309027983336023 0.3873439158813127 1.129807391848012
I -1.9495184039049056 -0.15247835618571365 3.5702709921092137
I -2.234863579287808 -1.6448559874043533 -0.09842320337252763
O -1.3794878313656054 2.5731657449696654 -0.8512769494270677
C -1.834257333038499 1.6362229652192588 -0.21058958702488412
O 0.28398591928821726 3.0249840372573797 1.488214381199656
C 0.02114560370627957 1.8969369487362806 1.3736180827076394
O -3.1929287140455007 1.5411266495571434 -0.06755265979034758
H -3.661779487869098 2.3242225993887087 -0.43062551553838757
Rh -4.206642712841875 -0.6271114929731793 -1.3868863806336549
I -5.089625177681991 -1.2960794778400901 1.0174129337653655
O -2.0370654931576295 0.37437696195092285 -2.834474015618972
C -3.003948029136942 -0.386079121592777 -2.9152597552763297
O -6.578488231948407 0.27630641742957057 -2.970611621200791
C -5.681196749537321 -0.09988595055899253 -2.3557807998752565
I 3.9167336629197287 2.6566444987497793 0.49981959476488
C 1.4750766518714182 1.381304577338454 -1.2172334369637074
H 0.6639360672320337 0.8024163007541556 -1.6922453442481948
H 2.253992546787103 1.487437142651179 -1.9891512319304008
H 1.0635078474927016 2.388284481299059 -1.0470476059200888
O 1.2715959483405237 -1.1392751599852973 3.667398725516492
C 6.036907535279366 -0.5137500539744088 1.6876745046081125
H 6.0507913745765824 -1.085099895791022 0.7632409530936769
H 6.670145514751305 -0.9606444025001603 2.4469916892024455
H 6.292125208855031 0.5268855724734319 1.5073530822558718
H 1.4242109804169205 -0.8456956087291797 4.590421886476152
Rh 2.2420003507291977 0.5388824202537565 0.5350023637748058
I 3.1143271058999775 -1.4300911408065007 -1.0661851714968318
I 3.9733005282226794 -0.571867660851214 2.4650761726933523
O 1.2465309061526875 1.048199263242266 3.2135150804942927
C 1.0699086123302715 -0.11462513378804376 2.8355919211490845
O 0.5890501072137501 -1.8019498060158992 1.261244867323352
C 0.8649128739675829 -0.5903464554899617 1.4269404198595041
