39
## STRUCTURE-ID: 6458d76814140d43607ddd5a ; CHARGE = -3; SPIN = 1
O -0.8260137377063854 -2.5595230986934956 2.784094766180622
C -5.699975201249159 0.3883964309232719 -3.037057498268923
H -5.024285894396546 -0.28061463298078015 -3.56132058833658
H -5.490673375399891 1.4207397355190927 -3.294522035047256
H -6.7391638834865075 0.12382041565208825 -3.183749151795027
H -1.5646037079509505 -1.9253924325546161 2.5080491247237453
Rh -2.229409130006976 0.30250479839623223 -0.873103795642553
I -2.2687341903669345 1.9644699198956075 -2.9137856175350203
I -5.278257817809189 0.15871183876655925 -0.8882882691970472
O -2.5114526592509234 -0.8693776310127074 1.83694179240541
C -1.6373784176239887 -0.5567494209831171 0.9496600410656201
O -2.2125022083971575 2.3244342557309996 1.2828623934657388
C -2.208931758452338 1.6114747412933517 0.3577253863968684
O -0.4703128947258356 0.023458363772360675 1.6133732176938742
H -0.6421253975243697 0.018621765812870898 2.5696056546984405
Rh -1.004007920703139 -2.464938054460945 -0.10700505119632668
I -2.1676396315878064 -1.9217629781931675 -2.399653430295926
O 0.740903493842904 -3.7480406416295637 1.7488265432705323
C -0.2240988014346112 -2.988734194742503 1.6154478739111446
O -2.7179391173877785 -4.531699448614294 1.1943925671051256
C -2.1151628864511087 -3.7584043779031298 0.5513793828226269
I 2.2077659726026355 2.172198497168249 2.8126592662624423
C 2.590308273043906 -1.0759796048752175 2.2597416639211874
H 2.8806425000845155 -2.0222261570179185 1.782143594244035
H 1.7146399261404388 -1.3037018985666717 2.8982290495817105
H 3.411110080874079 -0.7956802580875707 2.932679779854469
O 4.301776803205089 2.7868743754491643 -0.2767948188872548
C 1.7242120646352486 2.205976457249498 -2.875642136041083
H 2.6876811565620042 2.6950382126772934 -2.9605454704335257
H 0.9501601755553142 2.7083939852895917 -3.452210038969789
H 1.7831464536681736 1.1509317488583737 -3.1303027202026668
H 4.783300674999802 3.635408479272557 -0.1487311807190497
Rh 2.070504101530741 0.39965109004029775 0.8776704294122158
I 1.368360186978112 -1.4821012921408954 -0.9451988039665894
I 1.1298863982848117 2.330419780223867 -0.7692223083613501
O 5.537681621422132 1.9481083350891601 1.3877559336458285
C 4.665424643687555 1.8467013371795753 0.5582479504442345
O 4.552073249210475 -0.44465585629607474 -0.053754138466466095
C 3.9330908555833908 0.5132474144920592 0.3494006422565851
