39
## STRUCTURE-ID: 6458cdc64afa69725c2ba063 ; CHARGE = -3; SPIN = 1
O -6.103568181149405 -2.8021015166981122 1.773000347997226
C -6.1190893238818225 -1.7518463819414414 -1.5428773286999038
H -6.907301296400574 -2.0104300187606654 -0.8463116948388351
H -6.477452232181448 -1.6964790829047618 -2.562616957318619
H -5.634376879062168 -0.8298787132501573 -1.24218011673199
H -5.840377485779515 -3.6682183251289255 1.4189613542654518
Rh -0.8015214753565136 0.6073923024107706 0.35367081112720006
I 0.6840748207008897 1.3082099675460899 -2.01287406707523
I -4.621614419981998 -3.3078737262803277 -1.4561181260632114
O -3.5669363905330553 -0.2067957702655166 0.06299744037958348
C -2.689064299509911 0.22050509872710075 0.861183904383949
O -2.011950672521866 3.3020929881999024 0.6914180171468892
C -1.4519651181632884 2.275017045943357 0.5854994565188659
O -3.1168968828321515 0.6475881258135521 2.0918287227294456
H -4.042252470214683 0.3020974942905141 2.238389476664301
Rh -3.3044623825880923 -2.224506579278156 1.0318155002302947
I -0.759315719062454 -2.082352207222319 0.05080372077177267
O -5.393127617183302 -0.7998250896146887 2.30362309079068
C -5.076156748484316 -1.8941550398734335 1.826004323878916
O -2.724879353664304 -4.331681725230487 3.061593471230982
C -3.0040767503358694 -3.567887216684624 2.233520042929307
I 1.6604000827968384 0.7952448024491329 1.7853636333792535
C 3.0966462294502946 -1.0645160488306074 -0.8982624977974997
H 3.9017674624763736 -1.480975937680001 -1.5129269082242274
H 2.151071357984891 -1.4008225832859174 -1.345623695626156
H 3.1562618330582315 -1.5246114279678724 0.09735010740220788
O 5.98620229759693 2.465477303429893 -2.2698000614464657
C 5.790089534116746 2.114394937438539 2.078444704001155
H 6.7315422429909875 1.8417855883987626 2.5450432936682326
H 4.939314831126875 1.958190213134374 2.735406131209271
H 5.796488575752311 3.1245427167258852 1.6793354973439367
H 6.495063327438521 3.2679999681646694 -2.5166293602897043
Rh 3.1664831451964095 1.045105128651699 -0.7578746444494671
I 3.3261429919947036 3.7561695141136946 -0.41229047465847335
I 5.522367872086603 0.7437055653482667 0.3783636287032554
O 4.444938914793214 3.127248769265944 -3.750270078925087
C 4.8254254729006485 2.37333247392259 -2.882032085759952
O 3.938497949730593 0.2548991069283298 -3.365423472643363
C 4.0336067566944545 1.1139582799944865 -2.509505106204022
