39
## STRUCTURE-ID: 6458c823910ebb324714b5e8 ; CHARGE = -3; SPIN = 1
O -3.0322790875381616 -1.777610624376697 -4.184963908013027
C -0.9660667191066236 -2.645785879236718 -1.43201682408887
H -1.3721516981419417 -3.156921212616019 -2.2984141754916996
H -0.3677560508160431 -3.319289084120201 -0.8287477941395609
H -0.35903624437517884 -1.8098873681987362 -1.770737861269121
H -3.81258931098002 -2.358433691948517 -4.155692298826896
Rh -1.2870317657615855 0.13069773963437595 0.8631453461064151
I -2.0962810282460373 -0.4516758118421463 3.334832809411507
I -2.5608754649664265 -1.8515067843760142 -0.2966085834367761
O -1.4117511063565416 2.4645678325232083 -1.119543980350355
C -1.972809009738491 1.3828313980064622 -0.583162231511297
O 0.9478621981740881 1.856794204006872 1.758403047731046
C -0.026938566721202005 1.3070086899851479 1.3991915260225543
O -3.2814609659835328 1.411950779700529 -0.8057922364429521
H -3.5556351402666806 2.226646759735858 -1.2839795404862742
Rh -4.37953636673127 -0.7972544418896359 -1.7638180369957377
I -5.414905277450694 -1.0675773280566323 0.6562761195726416
O -2.2090307062962946 0.0744669646736019 -3.2937304898793816
C -3.1051859143795655 -0.7674131649691557 -3.2451277201995303
O -6.536574129034646 0.0015179509096879173 -3.6760564941194414
C -5.743432477745047 -0.3248864226689734 -2.9054437633471335
I 5.151907028785072 -0.7827125768655397 1.2817834428021246
C 4.047460448975264 2.33085659200165 1.3366198774804994
H 3.3056963883620964 3.145958490413624 1.2741959834347936
H 4.715510115889727 2.433060412800542 0.47303478438547547
H 4.64486995940209 2.466777908710608 2.2440183843676738
O 1.1410507385419495 2.3774562490807596 -0.9758738528165914
C 3.4481963718190674 -1.5965308545519152 4.714559336901531
H 2.7867624522176686 -2.2595435817681335 4.164439999317866
H 3.3019506389741333 -1.6754607231567429 5.78575130809641
H 4.482540381455429 -1.7421717264765775 4.419093143445867
H -0.3956148252608742 2.4585066920201744 -1.1053711220399622
Rh 2.9436575193882177 0.5682986783717537 1.3356724375242968
I 1.1925530977817975 -1.556651353037423 1.2183959375256128
I 2.902982108456176 0.44939558971394267 4.157589774881288
O 0.7881765698771726 0.2453173771239622 -1.5739791120833073
C 1.4708740392731101 1.1580565602064845 -1.0662227615626245
O 3.738520737967324 0.6742431268767057 -1.455567999952071
C 2.87637106055531 0.7769026336594708 -0.5961524719543981
