34
## STRUCTURE-ID: 6458e935fa171a4d00100bcd ; CHARGE = -2; SPIN = 1
O 0.35792629863929615 0.030295057788695876 -0.7156718106915568
C -3.4580374922614587 1.1150286872833053 -4.215224600364264
H -2.872434963294797 0.6907660950801563 -5.022956189331295
H -3.306937681880724 2.183536075675511 -4.110997648674996
H -4.5132638697373055 0.8791550820786694 -4.303514818211879
H -0.12513628091036433 0.1415496661445836 -1.5561733280017904
Rh -4.026123850458427 0.8772327857218435 -0.19133575108445217
I -5.814421461511172 2.247787267574626 -1.4839545246705372
I -2.7092083897794845 0.11946263628735544 -2.302087022354015
O -1.6913087158713218 1.6849499551370608 0.9624656354749104
C -2.3742544014214655 0.6405435471642495 1.0786406754630558
O -5.001940130261082 1.7051311436942358 2.482242702865714
C -4.689622966811224 1.369426030428229 1.4172915544069926
O -2.5112799959060115 0.17473447322101543 2.404794874168527
H -1.9809468039562934 0.730659009766227 2.999256556936734
Rh -2.1816842911684846 -1.223212374820969 0.16244657565626622
I -4.6557023041416015 -2.1655362367907762 0.22128437870736206
O 0.23065900339232143 -0.5311191695776727 1.394551736219019
C -0.3823448204752028 -0.4783582079028361 0.32050318744027795
O -0.29354652747563365 -3.5097037082697606 0.02343120672752874
C -1.1778719082893199 -2.7559200384103373 -0.0735427707957154
I 5.068974633830294 -1.0741424593393796 1.8618456052080474
C 6.3893842964562815 0.619745024390613 1.3283756345969746
H 6.573514320718182 0.5592531073263124 0.259173301717761
H 7.301342978776892 0.48784922104015177 1.9040114253136933
H 5.870220190317958 1.5332633322405558 1.607174053024645
H 4.468801980010509 1.942429127335817 -1.3990686768207252
Rh 2.5643032734668556 -0.4803315253748238 1.184579648252883
I 3.6686010283922577 0.5582072168648043 -1.5310583863633904
I 2.6200257979882897 1.9124860437167581 2.2731414368064056
O 1.873852041137748 -3.0288285041904723 2.451695371773851
C 2.1259733733833763 -2.3960691432452226 1.4512572542868147
O 2.3303165596164868 -2.452245469218182 -1.0259470112998632
C 2.3221710794845953 -2.108023748820238 0.14336972361723
