31
## STRUCTURE-ID: 6458ed1b6b5aff21960c2d74 ; CHARGE = -3; SPIN = 1
O -4.8908379819974455 1.4747328293682316 -1.0178297455796954
C -4.166366510145912 -2.5297670031041695 -0.7466299572931168
H -4.042557918155721 -2.6189008853050195 -1.8195911693704023
H -5.115216617290378 -2.0894242443494453 -0.4642848250416626
H -3.9938783599473977 -3.4764407829612987 -0.24592186330211505
H -4.848969128420027 0.6501679815639585 -1.5375137280683837
Rh 0.20408099628338697 -0.21391440308942622 0.4972534350501657
I 1.6140304918074024 -2.544822380672954 0.7044465812358796
I -2.4902377002680285 -1.1256363038823816 0.014975399076994862
O -1.6268760599982628 1.78802281340355 1.4734651432062564
C -0.7482465059505814 1.5506337336782674 0.620889279485706
O 0.33483198290310257 0.48454823921321033 3.379777279463966
C 0.21957823114628272 0.07528516998090436 2.294692608629111
O 0.03591178784148301 2.638689711734306 0.23133356335058852
H -0.2925428535730478 3.4370978780425494 0.6802472109942201
Rh -2.001197910778021 1.1602199035983314 -1.267654602794244
I 0.4044396807403639 -0.014268868495972267 -2.127021602303359
O -3.6936724881186485 3.0913901137150788 -0.13105224910949073
C -3.6850404995712545 2.0333617660874714 -0.7376661501766459
O -1.682646558573991 3.5936304480905394 -2.9792513652463803
C -1.8388860574710086 2.6120447076600075 -2.38552055406605
I 6.452054625794934 -0.6083102166586039 2.0106841086655365
O 4.54963051580859 -0.407610285922627 -2.65804372424993
H 4.597039286013832 -0.7078047519629252 -3.569037066758219
Rh 4.139888203062889 -1.6161713869746246 1.1807324710507556
I 5.302660459529047 -4.149701297505572 0.6536479554833626
I 4.877985559592117 -1.9722306760610433 -1.4025793098039365
O 2.6231881202323346 0.9486640191323682 1.0356392970494097
C 3.238652585488281 0.046891128934798035 1.6104796269154942
O 3.143135948696857 -0.7773776482640979 3.9504118535017803
C 3.380064675318646 -0.7329993089928798 2.750922100004035
