34
## STRUCTURE-ID: 6458bd379d8e666f5c6a3eda ; CHARGE = -2; SPIN = 1
O -3.235788046131161 -1.3067007487105113 -3.59369790744252
C 0.0035545094965739226 -1.628679248987554 -2.194817731281347
H -0.4435207329356461 -2.5288097165571815 -2.6007253379202186
H 1.067469795411992 -1.7518456210453635 -2.047133271461881
H -0.20015871079857925 -0.7754921042341943 -2.834549816658719
H -3.7411517565975965 -2.090106775771462 -3.3213150370584406
Rh -0.6820350030181213 0.760799301896288 1.4083051756239982
I 0.3917404972537997 -0.7913074112147378 3.261712945788619
I -0.9363748918252139 -1.259117545330059 -0.32952757088186585
O -0.8023427266548424 2.6934910397231193 -0.7518068190675246
C -1.443640176117844 1.9471879061212385 -0.02677278491038875
O -1.3513784036577356 3.1637086583865837 3.0297807325392427
C -1.0781232009781336 2.1943467288791023 2.4792219732337983
O -2.7985322345967445 1.9311834187130412 -0.13654043425300758
H -3.1097670073336814 2.5539449239573546 -0.8225115568893274
Rh -3.440432179591814 -0.6750379314372074 -0.6946497880090828
I -3.359814536037672 -0.6039919128561315 1.9928239597752166
O -2.4376679124714045 0.6206988397624271 -2.87214906271414
C -3.0386525785551597 -0.4120191072044292 -2.581539456986156
O -6.367155400811128 -0.6705084066613083 -1.3338241215460835
C -5.242416450669224 -0.6955334211501318 -1.0727485317281655
I 5.494690498744042 0.7774676746944278 -0.24717271823143624
C 3.7064871339487397 -1.856779734718276 1.6269712997371824
H 3.4237157936054645 -1.715038581734764 2.67189097164614
H 4.751935287200175 -1.58162841604191 1.500236641774596
H 3.558004554362122 -2.9050759538380238 1.3704974512785175
H 5.3182342399285885 0.9569067485102615 3.2270973581158944
Rh 2.968158780104517 0.9159795991269751 0.5773976568164668
I 3.7648398847455313 1.3860489884397877 3.1277005206031645
I 2.12705930526353 1.376312016924745 -1.9455238360602827
O 1.913144292557 -1.5249049203265628 0.07099136918041035
C 2.7952079477447773 -1.0568873711926843 0.7505178213146578
O 1.2272547940173024 2.8686190009198733 1.2397775815726
C 1.1974546343975871 1.682770082957347 1.0720823241000041
