39
## STRUCTURE-ID: 6458cf48f2c63111e73d510d ; CHARGE = -3; SPIN = 1
O -3.5265013332230564 -2.282962401420844 2.8535762171710473
C -4.0283025550424885 -2.3447823064078746 -0.9171355614479423
H -4.034386473908851 -3.3545142453148125 -0.5230546642063433
H -4.281250371606571 -2.3355523787768626 -1.9725959594302735
H -4.707476506976248 -1.7065110187638382 -0.36150877415497684
H -3.2006436844932016 -2.5785203434749056 1.9903291734324702
Rh -2.208924935278321 0.9546492910329962 -1.6433661805687507
I -3.458336869339605 0.039912987471209 -3.735352177005692
I -2.0145590969306997 -1.5478872503100416 -0.6600905442964782
O -4.221440482824065 0.6814103474922514 0.26130900317513633
C -3.6403136975681845 0.772404905953851 1.3672986306674144
O -2.704957850344542 3.694603989484601 -2.6414913052688926
C -2.495569415775457 2.615207926896418 -2.2712682793908425
O -4.245149158092549 1.6241246608114106 2.2567119024862614
H -5.045604116713437 2.032109192126042 1.8630216055964468
Rh -1.8771151694102273 -0.014789018755664282 1.913061315192982
I -0.8230417854007063 2.088463861937121 0.5480646889481328
O -3.3110039884289177 -0.6821750017345017 4.347644122409028
C -2.9900964329412902 -1.0259683901498753 3.215617010709681
O 0.631625993162895 -1.2168373991675308 3.057539169039641
C -0.3345134499943744 -0.7520012075886569 2.5891596239074532
I 4.143173689754654 -1.6974973256795935 1.2145493107482832
C 2.886981574183747 1.363440140004364 1.3162268608505983
H 3.7540789261564433 1.5241423378738193 1.9651219076715531
H 2.077366854306157 0.9714585764578486 1.9507494019677365
H 2.5490132575540345 2.337541774223069 0.9272808961447908
O 1.8067019004059761 1.5881440913723517 -1.7708661156002161
C 6.989882610971799 -0.35082077874472956 -1.41759645918102
H 7.960630228672042 0.07731117668312278 -1.6396364525964577
H 6.532828412504682 -0.8169208197395882 -2.285375007354498
H 7.0215128948771035 -1.0386911792262705 -0.5785207992785858
H 1.5304285174109342 2.1773134108481536 -2.4974404690400656
Rh 3.2074743279398232 0.16435179958185653 -0.34403552878769755
I 3.222736915416646 -1.2679192367414935 -2.624019967444908
I 5.686153329036538 1.3110861180938649 -0.8210074549984444
O 0.04290000884909949 0.34159932436409357 -2.4188494454028624
C 1.0043472318661697 0.4893851099796085 -1.6745255347927044
O 0.6809501782273772 -1.3712795486358462 -0.22848535805714706
C 1.420400522996556 -0.46303117205561034 -0.6110388018138058
