39
## STRUCTURE-ID: 6458feddb5255a1c432a838d ; CHARGE = -3; SPIN = 1
O -2.39494938299032 3.325884378291165 -0.37508188343002696
C -4.944283012153048 -1.528954982310686 -1.3644784906709124
H -5.966580664639139 -1.6891275330769933 -1.0486829948647765
H -4.251783424925062 -1.7173689217250587 -0.5498838896457238
H -4.682320047267149 -2.1269136817415846 -2.2292367199403285
H -2.9489655855263566 3.3038572374476294 -1.1726156010559554
Rh -0.7224027505527258 -2.8392350920901728 0.01750479925844011
I -0.3745870965810384 -5.352558157808208 -0.6499973186826101
I -4.741366755658043 0.5312520089045534 -1.9201585048434944
O -2.2463220293380295 -0.4951246569679385 0.5259419981651917
C -1.0737843717286844 -0.9852715009490144 0.5422138738286228
O -1.4608803311839231 -2.601176919408349 2.8827308323865033
C -1.1015487111231308 -2.8808540637420603 1.7965852511085882
O -0.13901286496222653 -0.23223136828573193 1.189657353846461
H -0.46180765669499635 0.7087635292819702 1.0174410742862208
Rh -1.7234118439528994 0.5826314656722739 -1.3138785092215897
I -1.344153776209337 -1.874202315901696 -2.408199195580059
O -1.0610616435944387 2.1777905302197307 0.9163316612740422
C -1.6977205486432163 2.1695278964669686 -0.15400340445385935
O -0.4928691527452066 2.328035808012867 -3.388146704603558
C -1.0299627688118216 1.6311065127092554 -2.632999213823338
I 4.802917285964031 0.5816557349546542 1.216693674638774
C 3.55620697767123 -2.702862193916792 1.1282317440721608
H 3.2195655302001422 -3.7346697710349885 1.0182882891752978
H 3.820719932131051 -2.5036145948531665 2.1640190446346286
H 4.43824634265574 -2.541570188719704 0.5075310670256462
O 3.0202419516228844 0.05344364361804351 -1.4938087555320587
C 1.4082101902387005 4.258834907685713 0.6919841503065094
H 0.597480417099163 4.901969204983632 1.0098955400933716
H 1.140707949198405 3.7448521731943702 -0.2255106478023676
H 2.3389260546870796 4.800963142066918 0.5805027532353951
H 2.890120977574898 0.36544470993661904 -2.411507356978516
Rh 2.2440999422753056 0.08176560583521894 1.2564682360366926
I 1.680600413298815 2.7469172747099555 2.196805912510262
I 2.11128543573922 -0.5564065240317345 3.9047819614366035
O 1.652126175306733 -2.174834658001943 -0.20575793104094287
C 2.465395973102455 -1.7863214390185858 0.6196339324849498
O 1.312899871305413 1.4139205550610567 -1.0178527891564904
C 2.160022999209783 0.614682244532869 -0.621443238478357
