34
## STRUCTURE-ID: 6458d93d42d7d54d9f11e56b ; CHARGE = -3; SPIN = 1
O -1.4161271461801928 -0.9422231820561644 -4.072829747445466
C -0.8338174287959439 -3.1457009976175754 -0.6853689261419325
H -1.051031059360974 -3.882615554177497 -1.4501645962484053
H -0.5440681471926955 -3.6319609534192536 0.24268982971761766
H -0.01907625784839145 -2.510000626656992 -1.0226421453789982
H -2.2456877583491686 -1.2757057096046098 -4.45804279063043
Rh -2.110094436694035 -0.38725027561235065 1.7315627148103263
I -2.862387482532151 -2.2865564012001554 3.378556592364
I -2.51084276640291 -1.927074083810567 -0.3386267000046122
O -0.2815845510444254 1.6081682610434955 0.5416562188719215
C -1.4199791354966451 1.1016212273617474 0.5572601953606537
O -1.7864138910146083 1.832929487869043 3.681253865097716
C -1.9542303080044658 0.9221831439640527 2.990052752645231
O -2.353496229804456 1.7364552150288248 -0.20824172058544665
H -2.010284166398714 2.5622993370338785 -0.6087399913204333
Rh -3.3138883461627326 -0.09028433216836548 -1.9564074364453368
I -5.118353877198837 -0.2290289373596583 0.003699353043671725
O -0.6480926634357258 0.3747015286395592 -2.464553213893678
C -1.6399285512264246 -0.17947325938165515 -2.9445661478960186
O -4.471819850054576 1.5541048393736387 -4.1707612296860015
C -4.070697705208276 0.9127570583604072 -3.3007625113868517
I 2.1172145474529342 2.158825304929142 3.476296980305614
C 5.229975550255991 1.0451289891073077 1.7000784702908949
H 5.642340773095034 1.354241239574963 0.7372301895897623
H 5.953984214118954 0.4170842135422303 2.217760326941243
H 5.023155292164398 1.9487901868641697 2.272130568375169
O 1.5817392927453378 -1.4086863415897892 -1.5158891054225496
Rh 2.2410124547507153 1.09733329006356 1.0937580488693883
I 3.174230786745358 3.162316933119847 -0.1971565935935833
I 2.14972636190128 0.3640081979011951 -1.3906031461758237
O 0.3243946599989137 -1.1073487666333062 1.7045612989921892
C 1.2127639217447135 -0.3720520250962669 1.5699298737612382
O 4.001336745366457 -0.9910607170096499 1.4327939940302183
C 4.0100271580662925 0.21407370961677372 1.4540847291885837
