36
## STRUCTURE-ID: 6458e78a9675e566116d72a4 ; CHARGE = -3; SPIN = 1
O -3.6100419675281326 0.2337896178933209 2.7963460047933304
C -4.911634535899726 -0.3808942686264881 -2.0990180462541153
H -5.071030718827111 -1.3799290203952628 -1.7023663257914206
H -4.5979392434793 -0.4215415910729506 -3.1396293217351445
H -5.7799808200888 0.25561947325513806 -1.967633674240935
H -4.454922860168873 0.022633767002029827 2.3532801113063555
Rh -0.7045305969463361 -0.7249402911661853 -2.0476644180148913
I -1.433311344234212 -0.709901444354192 -4.5325828100364705
I -3.237890971089662 0.5526692518225084 -0.9359623380718368
O -0.7858094298320676 1.432712018423435 0.6258655856819436
C -0.17402010850534788 0.46475212234172086 0.0953834949721024
O -0.3212876588745328 1.3457944194764204 -2.0977777484623252
C 0.3740458744255697 0.7293217026680783 -1.2450870824726905
O -0.06369125534789243 -0.6987419398392423 0.729363624653351
H -0.5483221634864591 -0.529638670201074 1.6153738290734594
Rh -2.4999757216705754 -1.5253210467633354 0.6797450394618773
I -1.819674117356472 -3.007690107892597 -1.5015933403543726
O -1.4434168312756932 -0.15019625256535277 2.816145692964602
C -2.5394868176391783 -0.3758264686090611 2.256865345449744
O -3.217392843201147 -3.6442222052911566 2.6624168476128793
C -2.976790232626362 -2.862778280167376 1.8523345287156767
C 2.158671978019968 2.2782687889395543 1.4970055858569682
O 1.6927604778489338 3.3683672023748588 1.730823712986154
I 4.453371921887939 2.1060069372112125 0.4807891935526275
C 6.125206238535051 1.1067214284137923 1.153644569156423
H 6.188494091778468 0.06281313170625193 0.8912903897181906
H 6.486961711648477 1.4108289988117184 2.123118114141611
O 3.6577696126806667 -1.1027579858404948 -0.30238900345167574
H 3.7878391936423914 -2.0744043140358586 -0.3120455213095974
Rh 2.230842753181596 1.1907002590385745 -0.8704226067422804
I 1.9053809045464871 3.841780811516673 -1.4439655960662134
I 3.0457052158102247 0.6224030175206474 -3.3315887822835855
O 1.6382853854848614 -1.6181364393605187 -1.067874799487518
C 2.4365273539073526 -0.7396539372094018 -0.7433694908262725
O 2.061438824834163 -0.06280757521592031 1.8233978949435592
C 1.9478486998455806 0.9841988901907635 1.1577813405605866
