39
## STRUCTURE-ID: 6458d3c7051bef348f4cd2a4 ; CHARGE = -3; SPIN = 1
O -2.958227204672939 -1.1811454062488496 -3.823592768502878
C -0.4976847758585183 -2.2684269131208015 -1.283068512388669
H -0.9936471842065923 -2.6684195346692907 -2.1624867775746424
H 0.13273107254402297 -3.0241386443061056 -0.8264064226872023
H 0.11839172932963542 -1.4256933374460052 -1.5900470861070077
H -3.7743482214753303 -1.7109599119858931 -3.8343980010498155
Rh -0.5382051877054029 0.49036590753523807 1.1204494764432409
I -1.9862157159847702 1.3865536848320843 3.1670554152493002
I -1.9542027101757338 -1.6025299861147033 0.09796027044854633
O -1.134974416883501 2.9309785019977816 -0.13339720261949212
C -1.6406989170542945 1.8630174363551728 0.1934183847076539
O 1.090441781631778 2.807996182959517 1.9439320341717898
C 1.0207343121715944 1.8088086522174363 1.3245259532311717
O -2.949243398997716 1.6513927301966818 -0.03492029535225752
H -3.4030227586614927 2.4543973465791775 -0.371007395411435
Rh -3.9877933473346694 -0.5982971002114473 -1.1146132339973955
I -4.698050296874734 -1.1750611134525242 1.3736852613010482
O -1.9022401779319795 0.3791085050849407 -2.674406520221178
C -2.8729294936977214 -0.3829273762707899 -2.708521459510364
O -6.498927140160049 0.1530750084089277 -2.556941672716728
C -5.5395027716715 -0.15168315284999553 -2.0014845241425507
I 3.8952242307078553 2.644351582258652 -0.21758091710830205
C 1.1863577709517583 1.2546981330888716 -1.5010879250824203
H 0.31909836072365544 0.6826059840881753 -1.8681565575218915
H 1.9135674540662981 1.2276848384709569 -2.327297178963649
H 0.8383076023852732 2.29790073673498 -1.4328618216825968
O -0.3770074330056869 -1.6114230792956359 2.9502001062195156
C 5.8562295917135385 -0.07363523010458733 1.8075874385271624
H 5.974713643040195 -0.7958770314313988 1.00499723304573
H 6.432811566483994 -0.35435699257970715 2.6822748367987534
H 6.111734851128847 0.9242014993867992 1.462201715891465
H -0.36365149164982197 -1.741559733586231 3.9223810367524004
Rh 2.132136073927661 0.6173195738885642 0.28211549481285836
I 3.5227679558652154 -1.196972534513659 -1.2275697692188556
I 3.73297803626659 -0.06240994763768581 2.4239139972685857
O 1.1830955971128652 -0.07875897037542808 3.385832083412875
C 0.4199294405106636 -0.5948047769581427 2.5582355942725465
O 1.2088707579457265 -2.0410917996371656 0.9468261321927272
C 0.9804508154951824 -0.8342837312879334 1.042253577111938
