41
## STRUCTURE-ID: 6458e67dd534dd04943cd3a4 ; CHARGE = -3; SPIN = 1
O -2.1476760014669387 0.32878133402095233 -4.236640868207179
C -2.690257201470659 -2.9160004282098173 -1.7727369843578333
H -3.364094852811797 -3.4301514486556353 -2.448906642226168
H -2.460163810455108 -3.518899610451142 -0.8972025658567708
H -1.7751158136394605 -2.594995148385148 -2.264252648435799
H -2.7912949449903772 -0.36860642801388666 -4.458722055111998
Rh -1.4131875675525212 0.4099687166880115 0.5329679016566972
I -0.8842319632104446 -1.8454714801431187 1.7472292529751878
I -3.761940676362108 -1.1202258777957947 -1.028674713273771
O -1.1096118731661633 3.2015174642616073 -0.23012285102710509
C -1.8672308635004164 2.2154618431541286 -0.2077115176424714
O -3.2145459035928665 1.714414830752382 2.4960388161287947
C -2.561497352855937 1.062079818902245 1.775672654307572
O -3.215804313727878 2.5194395609049685 -0.4542590208088629
H -3.309655091868455 3.4701895930843856 -0.6491236245129683
Rh -4.326646487454591 1.0746413366962138 -2.3921444810806167
I -6.565644988908927 1.2315342853016447 -1.001795535838507
O -1.7933483194017752 2.086920395840392 -2.9487780723844526
C -2.5908794627463374 1.1902667261885298 -3.256662874184657
O -4.76235653175927 2.818354253114628 -4.774475903767295
C -4.723346022745799 2.109941395883942 -3.8458424375446443
C 3.797291028091303 1.2382469211080998 3.6402665076393226
O 3.4174117300563123 1.1624840378121952 2.3444302830011927
I 0.1670778435140971 -0.26135919200061936 -1.4960412763898079
C 4.855134422810741 -1.6007265216244242 1.1066791701271428
H 5.020486222712893 -2.02697457994194 0.12045315031024109
H 5.189425446458059 -2.2446860808912525 1.9160547910382189
H 5.301031464047463 -0.6132649954185284 1.1621877170848718
O 4.255996666273226 0.015072586943504792 3.89466590491221
C 2.6874122854362272 -3.5711681398965998 1.2743413158343597
H 3.311140772727317 -3.923866220840202 2.0902606912061357
H 3.0520701350285147 -3.8635349767607368 0.2941257686339916
H 1.6482273503998248 -3.8606129679841383 1.4128098475993773
H 4.570142191425639 -0.06149297337190452 4.8143545308623485
Rh 1.7347546108502239 1.1410825623751164 0.22862902794252407
I 3.8722839652995447 1.2161811276021015 -1.2889020559832185
I 2.7049938302022687 -1.3477426310361043 1.340471035858219
O 2.7010433934935785 3.2903301313384494 1.9340103781461504
C 2.67720828104438 2.110935607026276 1.5910126142376408
O 0.02098209780358651 2.0681026372842943 2.4702940646770197
C 0.3444163060126377 1.4938325351370023 1.4660407044549026
