32
## STRUCTURE-ID: 6458eab4a42ee51f987b0e6d ; CHARGE = -2; SPIN = 1
O 0.9647476329627399 0.10986654601067633 -1.1044048473798473
C -3.8529907118518163 1.414736579653417 -3.4515332285172677
H -3.665734778497474 1.8547334713549883 -4.424254847246739
H -4.602224461828088 1.9686836474450498 -2.8941680426614167
H -4.118660397808851 0.36470694356629535 -3.516506346278197
H 0.4879374921016625 0.4462604835463421 -1.8826406386201606
Rh -2.8570574068994943 0.9846915997019619 0.6894240215282015
I -4.445879198799157 3.0234212716778983 0.7868109089452796
I -1.9704372011768507 1.5601511810507582 -2.3151400418109196
O -0.24326805664087248 2.0892888528476603 0.8028203138321109
C -1.3110792866055814 1.900703406119935 1.3976842393321873
O -1.4850961085485306 -0.9308991847393726 2.445196546682685
C -1.8711304065049061 -0.41653299817163764 1.452547066812636
O -1.4233945423169532 2.2540964447945373 2.70379077130794
H -0.5933047862269129 2.623272945691808 3.0645751605683604
Rh -1.699974450182541 -0.9736845627292693 -0.5370590407702844
I -4.361063425128825 -1.0641307239110604 -0.5685208739796245
O 0.8074693475005482 -0.9989291444854496 0.7830733581928759
C 0.19520405144496797 -0.5705851729739082 -0.20522832508093491
O -0.2125619441202353 -3.3015247546095345 -1.6480558740440445
C -0.9480794722873541 -2.443368244976762 -1.3822963040476783
I 5.407514268732134 -0.15790539175362223 1.8217570681147586
C 3.442556164484562 -1.595799440105073 -0.4889571817180792
H 2.593422441982395 -2.1991609154907104 -0.8340309704250548
H 4.283445909529884 -2.2639904101555546 -0.29057954707362504
H 3.726496503790997 -0.9177404277791138 -1.2974540838019173
H 4.336065757276991 -3.268083102295107 3.0533924827307817
Rh 2.861618527976754 -0.5538964230265981 1.2609499020506099
I 2.81449854156283 -2.9673630831572066 2.6306552897891677
I 1.980263023165265 0.8336718211800894 3.505297571861852
O 2.901496287556657 2.1263650267713254 0.0026472573499821983
C 2.859200685356137 1.0689437589472375 0.4402082343564325
