37
## STRUCTURE-ID: 6458da36fcc50e3edf3a3734 ; CHARGE = -3; SPIN = 3
O -3.7014804620104043 2.0369355628510233 0.6282919381303502
C -5.6722270240145205 -2.644328621648027 1.5316716329744717
H -5.84918244956928 -2.1292344367894684 2.467998458266574
H -4.797059506979645 -3.2873051110802805 1.5750450899951578
H -6.550214972540044 -3.17336138044776 1.179165665565612
H -4.234535301436434 1.5120436491901974 1.2554076918679546
Rh 0.31461753272567755 -2.296765292720989 -1.047430625361912
I 1.8481240812855244 -4.498398153860634 -1.1812102063068675
I -5.219645240286844 -1.1029486778065911 0.028278547073086482
O -2.0145014460365083 -0.7022178491313273 -1.850277455109993
C -0.8627363750214996 -0.6666611556424786 -1.3115255204814553
O -0.23506092210107013 -1.7912086992425074 -3.923637872687052
C -0.03392324102383198 -2.1347796454739583 -2.82251546978517
O -0.13984480292417156 0.5084808585071395 -1.465224109557317
H -0.8413668359550261 1.227456990987845 -1.4146944682585214
Rh -2.4203058811260374 -0.5716126186543262 0.2524609367533935
I -1.9410855553205253 -3.2805767659456144 0.24943911698531826
O -2.0904656686979974 2.041372303485683 -0.8378018218379112
C -2.7115517613580935 1.3715996094887315 -0.004196827168621861
O -1.5944045537146254 0.06596097146073561 3.0565807030941463
C -1.9975628622554944 -0.2183821245757578 2.015612056893673
I 1.431847766331935 -1.3141231684686556 1.1897561721575984
C 4.758029486245995 -0.7511272233441214 -0.2686246457048425
H 5.649380902041324 -0.2525571514735211 -0.6901894386912256
H 4.450865658258602 -1.5143435326489059 -1.0091620086672233
H 5.083401436451104 -1.3104356318013544 0.6221658691303212
O 3.03473987077208 1.5955240438939542 -2.3826220894205745
C 2.160550207703628 4.15770898481622 1.9786528365009959
H 3.1977464230162025 4.3839219729207235 1.7594174722011835
H 2.077523809068504 3.7003723557189745 2.9584924170439466
H 1.5258289444339603 5.030351840874278 1.8842700992882508
H 2.9144381553883534 1.4887686499335056 -3.344791492413355
Rh 3.2373464304940733 0.638367800997755 0.19531338521532157
I 1.4566370633202448 2.6795175783545555 0.47940041207563905
I 4.553965106814082 1.3530731573520922 2.348088379494793
O 2.4338725969190773 -0.5572763783937296 -2.401712715604189
C 2.778239391101849 0.4061872883168103 -1.6998921136517786
