39
## STRUCTURE-ID: 6458fb51552c2a66bd088c90 ; CHARGE = -3; SPIN = 1
O -0.19239506248036486 -2.4420942795844303 -2.059339628145336
C -1.5546553721675451 0.46665326724812334 -3.5057972828164057
H -1.1298341098526794 -0.3270160158273632 -4.110831877718362
H -0.8144665195069553 0.8128372102885317 -2.7911216067138063
H -1.8834886127727306 1.2954528535459724 -4.120920826672035
H -0.6135086499036091 -3.075251948978183 -2.6641795561785373
Rh -2.414697516146977 1.608333968183644 -0.23816156622850404
I -2.3702620739309466 3.629835942475316 -1.9610155615027052
I -3.221802049144242 -0.3056642461621768 -2.416362809715589
O -2.0579064016729376 0.38262076183447735 2.352187208913423
C -2.5196257044439183 0.2560874556672972 1.2004382474730761
O -4.592432488880241 2.443616074791812 1.563793106934252
C -3.996723886491185 2.080473084946939 0.622317402240975
O -3.34673414555029 -0.8298040046455617 1.0308123358744519
H -3.45287389552351 -1.3184422015671615 1.8731938356365052
Rh -2.9472760628054306 -2.481418715463116 -1.0529434734513263
I -5.550840908316109 -2.329204617385987 -1.3840304091125062
O -0.5067982718837201 -1.4982902584295632 -0.06924181198548367
C -1.0227279580257247 -2.139857946972417 -0.9784810039946805
O -2.2436214921670685 -5.15817030496868 0.06469261938379557
C -2.5969979846875826 -4.150428912919022 -0.3878959776591423
I 0.6158242631515191 -0.013433992702412682 2.9362762664479627
C 1.649470034597923 0.7866670086994662 -1.6720225898322925
H 1.201414148208569 1.7224110620408217 -2.069185998072728
H 1.3128975842121409 -0.03804458275017885 -2.326808075087255
H 2.7337388738060593 0.8816055902456127 -1.8344334853944024
O 2.7592726576759206 -1.5272918815301968 4.224617275596006
C 5.241589840910912 1.7973201748326202 1.3276674022370645
H 5.310577337223053 0.888431212335684 0.7404664068484423
H 5.35583435416705 1.577081952881909 2.3814571248698666
H 5.939716738378827 2.5501832243276694 0.9865215722333233
H 3.657582323560471 -1.753648757595762 4.566898692629391
Rh 1.134724111282948 0.44783834348853424 0.30065120499587916
I 3.104376032009531 -1.4384661462826787 0.39070779794625676
I 3.2111328891085145 2.5978824477825007 1.0605367962313308
O 3.522247262558025 0.48088279940043216 3.606333708505908
C 2.6840993219496965 -0.3572220241183593 3.6887708892909985
O 0.03556594427039695 2.746280663907551 0.5846531531667988
C -0.44039455071755623 1.7312557389584922 0.1397804928253075
