34
## STRUCTURE-ID: 6458ec8ed279f363bc31c1f4 ; CHARGE = -2; SPIN = 1
O 0.42093227352787466 -1.8705584325966111 -0.48542110122982235
C -2.307540799627222 0.04101643838910362 -3.9558857996756256
H -2.4657704531217526 -0.8108473997081187 -4.608736870176505
H -1.3404902541893031 0.5053803626597462 -4.118721457222451
H -3.107458856134184 0.7710132932826693 -4.0319770299893225
H -0.19736485162004 -1.8013407274625755 -1.2600522720512777
Rh -2.0837951891038182 1.07704276791463 -0.0005552444635233489
I -2.6511110939513856 3.0142883931863866 -1.6516412314186162
I -2.3376825444266256 -0.7650819689265295 -1.8587333148708942
O 0.026137291304400772 0.7417168522667859 1.8791850512392383
C -1.1501085678667233 0.3391106246729306 1.719585760424598
O -2.0093044333619043 2.9903911823852973 2.259067861114211
C -2.0760137796063387 2.265765987342785 1.3572605963160118
O -1.8341736443893992 0.15786972511204236 2.9423340461175123
H -1.2441056109383872 0.3684079287141392 3.685878311417178
Rh -2.0965301613133813 -1.5060412991388317 0.9832607211017725
I -4.580016369786764 -0.6807478464403955 1.266215560368695
O 0.5766326916028452 -1.8142566186512572 1.7282397391667903
C -0.2176865129675528 -1.7916416668706994 0.6929171786498569
O -2.2709297123896723 -4.479773351670736 1.1393793823702074
C -2.38428724386133 -3.338401270800344 1.0355424382658498
I 3.42938609690771 -0.34993801890393134 -2.578431664421492
C 2.1181219191038037 2.350417981753366 -0.1334552787886179
H 2.298659094649535 2.466752137551139 0.935174748203655
H 1.363930322731459 3.0746635662835704 -0.44799035296867357
H 3.046284889917053 2.521828103732033 -0.6771088214536578
H 5.849419120266507 0.6256405335007619 -0.14077915261285492
Rh 2.5917334172992477 -0.7303766329229605 -0.08129469493770157
I 4.792318206668894 0.37913070092116313 1.0524666739371837
I 3.4939582363241075 -3.3402495807668346 0.19477786937494365
O 0.4936822924655685 0.753570841827364 -0.8749017593835136
C 1.5898760166749197 0.9693040448002593 -0.40344732064040983
O 2.3767081242971324 -0.9745348655967716 2.7632768956100273
C 1.8865900849145731 -1.159521785839582 1.6745705326272255
