39
## STRUCTURE-ID: 6458d5203d359f67475dbc90 ; CHARGE = -3; SPIN = 1
O -2.727661765232956 -0.7292038925678885 -3.37323259749713
C -1.1516706121305909 -3.5451861146017865 -1.8626221373905463
H -1.6648916015968458 -4.315013795642268 -2.428192637976071
H -0.2961149883850977 -3.9528156992853045 -1.3295413288979012
H -0.8462639350161193 -2.7094928470011714 -2.487214732269096
H -3.1514972677256226 -1.5558451281051966 -3.6666144047713516
Rh -1.2252740248032152 -0.987588183443678 1.2835079042496271
I 0.6153404149236852 -2.764970255241123 1.9705283818244028
I -2.5640632134836085 -2.7863067139957773 -0.33778070934532484
O -2.074053289113631 1.7189575783433115 0.9010004963939003
C -2.418905269793365 0.5311711676945515 0.9637658645413375
O -2.210814406646667 0.1405878956838051 3.8640855584578775
C -1.7551621256850911 -0.43355867997420805 2.9408720590558897
O -3.8060356447590578 0.3114922531396755 0.9955201924241233
H -4.270716716288524 1.167759179148221 0.9688233942260494
Rh -4.529631196765477 -1.2394024480923687 -1.10886021933808
I -6.075250879127077 -2.4935233412763482 0.6219322128327165
O -2.818368109735401 0.8440806480649935 -1.8249679993404218
C -3.264058116007077 -0.24165188263702558 -2.198024522877409
O -6.400060007331063 0.26395159048866484 -2.8843440724832097
C -5.7518499577429525 -0.4024017046672141 -2.1811415822827818
I 0.4077448385213634 -0.12485546984976456 -0.6928089395689947
C 3.261495877821278 2.0369380471938654 -0.6293691785106286
H 3.0031593604941182 1.6624066518127254 -1.6243345373236242
H 2.7486635493760163 2.9877221111422303 -0.4577467843619444
H 4.3405990017073055 2.179241956282667 -0.5466468763735967
O 2.1406631937267213 3.813125412040772 1.7330871146179854
C 6.274939487488346 -0.9648066868906509 -0.20464433957333966
H 6.433436921551397 -0.35960794832904625 0.6843908716593946
H 6.617821958034223 -0.4661895149441462 -1.1046277644184266
H 6.701089514952465 -1.9577142549447084 -0.09979285917672764
H 1.9539109803361614 4.768116374543167 1.8311469387482178
Rh 2.5642387282275103 0.6518600112034395 0.7597881137620733
I 4.383889127366138 1.3395877224771267 2.4524425930150393
I 4.056906627011893 -1.2505303505058252 -0.42042461869171455
O 0.07281961310397796 3.477113599727678 2.523819581672849
C 1.1457975463220664 3.0359987155529677 2.1329029551300382
O 0.8656416519540212 0.7856144187818502 2.8151603069330204
C 1.4141847344510325 1.5649395786739702 2.0201583029235626
