34
## STRUCTURE-ID: 6458d98b8a1b15617b738a44 ; CHARGE = -3; SPIN = 1
O -2.638636145306592 -1.0105521254532175 -3.818513824265838
C -0.7893190753161884 -3.6633484264301557 -1.4464340165604104
H -1.5515394359221455 -4.2756035555248095 -1.9154611572579083
H -0.10033491328614762 -4.262808714799794 -0.8582108636845317
H -0.24221608278155884 -3.0676885579690025 -2.171318966635873
H -3.1696402478085948 -1.8058521462042658 -3.6358139585365827
Rh 0.2136678554741731 -0.6125977375507947 1.2363440011106446
I 0.18034437464946676 -2.0901932367309124 3.4782047584097477
I -1.7934692857685997 -2.2894528409374097 -0.08891155484002616
O 0.17136692628979672 -0.1368533801369158 -1.5424251772521385
C -0.13793676601142307 0.40945338778447476 -0.46599950918059785
O -1.2105003622066595 1.6696496518987445 2.4979799379095238
C -0.6775930833342246 0.7464992609796102 2.0403019655291654
O -1.2840209834516159 1.1950845285359104 -0.46995675031342643
H -1.5690484082575702 1.1748389723688937 -1.4371655340437008
Rh -3.36577289158217 -0.41462059754787955 -0.9993649661657671
I -4.290559113683495 -0.46790609863613913 1.48493572773337
O -1.9577886248927103 0.9092488626497346 -2.985327116635229
C -2.5689053333687295 -0.15319102797612302 -2.7619012038735917
O -5.583765192569976 1.0181872083608663 -2.3949053967143747
C -4.771092763440474 0.4400639542549298 -1.805677980506474
I 3.055649456840203 3.7390286876247636 1.1977701696566225
C 4.373236884066051 1.1968339042328593 3.539290502053969
H 4.499990704891129 0.7354054365433083 4.513416480507596
H 4.2896118082930865 2.276153343458668 3.6052010910129453
H 5.155669856948313 0.8976804130287724 2.8495196164629712
O 1.4124916190410277 1.212742711597546 3.954525286366041
Rh 1.8188962910596156 1.515264915306737 0.543277861307593
I 2.1591940273020365 -2.098376000595106 0.19721924371977134
I 2.5022627717186317 0.3892008720753395 2.754962456118946
O 3.1557357810714293 0.8214633910353297 -1.8652870403661714
C 3.3147460161150977 0.7440976539628811 -0.7152888798971406
O 0.4641974594647653 2.926143320403437 -1.6994851611672843
C 0.9350768757642298 2.3320039703896303 -0.8155000400015255
