39
## STRUCTURE-ID: 6458f5797341a430b2176b77 ; CHARGE = -3; SPIN = 1
O -5.6544257146694505 2.1453476702692376 -1.2768544834188933
C -5.245448717330294 -1.1978632927387907 -2.5821632199524287
H -6.311106839349316 -1.0504767418485577 -2.6960842192717216
H -4.92592469939548 -0.9849127482981999 -1.5681024529138743
H -4.932356644561172 -2.19349072104847 -2.8700029385338706
H -5.605345403357137 1.9228988924306523 -2.222586188987738
Rh -0.42992286347282765 -0.5714132259622245 -0.6297847626219867
I -1.6506528322023235 -2.5117294307105147 -2.0771347206116
I -4.2397786807834095 0.18672422527841867 -3.8810289162832157
O -3.584514494465508 -0.2845129994772452 0.16302722988217652
C -2.768077563437076 0.6111625327162648 -0.1599790239994677
O -1.0777287317210709 -2.138951562172083 1.793550394519996
C -0.7546178030617897 -1.5810908523268412 0.8129475455614087
O -2.1137805206565687 1.2044534954622865 0.9557570224991778
H -2.5383168792264805 0.9141899083974646 1.782650767964071
Rh -2.769385789297339 1.8854409215248655 -1.754996032749663
I -0.2994068869761364 1.1912842412744062 -2.6274928041258505
O -4.434308941773785 2.8080066388613134 0.42362552720620755
C -4.387525884814409 2.367601462292927 -0.7232202251429682
O -3.1116922754985907 4.738634790717579 -2.4990161403212245
C -2.9649411837265247 3.5823163076023796 -2.4612924360954342
I 3.329634320707501 -1.198821591324874 3.903166875960622
C 5.319178330357765 -2.193303064320857 1.499583762825287
H 5.815110074801521 -2.1211333114424438 0.5256926779294341
H 5.012446814798395 -3.225697699272744 1.6850475120667476
H 6.007131801666093 -1.8830163279048266 2.2868243185009245
O 3.881307184299396 -1.381248870505188 -1.016158250149512
C 4.470689740176061 2.4039351175966712 3.2566698206358167
H 4.972056317675995 3.364125075604048 3.2795282944860995
H 4.648406378635802 1.8160527332104612 4.150745806518653
H 3.409509781423571 2.4949351699246636 3.0491664475303706
H 3.9021954314140124 -0.993900488565587 -1.9152649536075497
Rh 3.6705523903707897 -0.9233780664313952 1.3509831214614954
I 1.4138917950049923 0.7500352179126011 0.805977998454645
I 5.307853818117488 1.2860869310261565 1.597105979778264
O 1.7275817114600684 -1.861054816368648 -1.487044378265353
C 2.6741240427556883 -1.9130365643369363 -0.7098387437331433
O 1.704302916791755 -3.129633778715191 1.1193196267769334
C 2.533286499319698 -2.3345651783303225 0.7166741602271353
