39
## STRUCTURE-ID: 6458f1b4cb5f2127e628b9fe ; CHARGE = -3; SPIN = 1
O -0.37488149356356654 -1.6604726138845756 -2.455092735559458
C -1.8508317889241326 1.6862407765976912 -2.231036322112973
H -0.9924032399751302 1.2110930271794218 -2.6917279334840676
H -1.6399579517721137 1.8713189091033382 -1.1812064278689796
H -2.125662894624126 2.6019094312570545 -2.737752868852455
H -0.9425770402318663 -2.2108611583319746 -3.0248521465743856
Rh -5.074765721557189 0.2987020554669028 -0.17023089111230894
I -7.058799287715181 1.3338190158308112 -1.541667429155129
I -3.479687877365308 0.32564015254534595 -2.2593067555335766
O -2.5238445333955064 0.7001045798814579 1.0471032587537774
C -3.452012551802068 -0.11053374420715667 0.9068550301788864
O -5.8238031539007435 0.9561973815674918 2.633202834158596
C -5.650093487244313 0.7154824381526774 1.5089439178179003
O -3.4699098851415138 -1.2034638918065004 1.7620786682160763
H -2.7222440244774253 -1.168035591707993 2.385309161325095
Rh -2.870109308410507 -1.8928782272518692 -1.0702396272938088
I -5.443405167464409 -2.4538072930352404 -1.2419581048898338
O -0.3343959411501653 -0.7029601787473072 -0.4450899250450719
C -1.003107875143659 -1.34617768635054 -1.2470822024756762
O -1.3359666288874832 -4.1192631606688925 0.17909047354033972
C -2.0411149925561722 -3.3533389763668846 -0.3390578888262216
I 2.164006177196175 -0.8442164357355789 2.8379983975200975
C 4.422858404148002 -1.2324045043646927 0.44892004287942067
H 5.022442335014156 -0.9847052644460568 -0.4368115827771212
H 4.059216727619388 -2.2583429540844517 0.33868003141227604
H 5.065584010996272 -1.2040365354586928 1.3327993488683851
O 3.4618836114511438 0.6932943554801012 -1.7744890229521582
C 4.068005675200427 2.6295822446011203 3.5206899277401202
H 4.806523393619538 3.264379372644809 3.995052142295396
H 3.8404467489559964 1.7469632162851314 4.109946777647951
H 3.1606939812755375 3.171048481687226 3.2733031262344428
H 3.5000179397174644 1.4465531765997814 -2.4038270980358454
Rh 2.9020026470467806 0.2078885802338206 0.5601197316791149
I 1.2129200426096047 2.343422506101699 0.6292513064493993
I 4.922320813736309 1.9382045232409129 1.6478617537058484
O 1.3342900172202952 0.5786370682748411 -2.461076141735395
C 2.2145294271406315 0.14561448192509643 -1.738855897777258
O 1.9229119911664945 -2.14809926375278 -0.9272290311922866
C 2.1289209011884846 -0.9724982944552445 -0.7386158971692907
