39
## STRUCTURE-ID: 6458ff1140fc71316e4cd2b0 ; CHARGE = -3; SPIN = 1
O -3.1435012406477374 4.335528606855949 -0.9935440673967602
C -3.48273129327813 0.31279670628823336 -4.420574155579022
H -2.749571360876747 -0.43414597628508794 -4.128671538469705
H -3.0286431439793065 1.107077164497446 -5.001262688512079
H -4.3369461816674715 -0.12609649721265986 -4.923608765722368
H -2.954274534987681 4.197178963573388 -1.9383863034840372
Rh -1.087953296184824 -1.3711343815607617 1.2966924682707621
I -0.37104103590446424 -3.8802045375414482 1.0297239779714258
I -4.237681070008682 1.218287600514598 -2.5530779633534375
O -3.3515521439073113 0.29550626348321296 1.0125978176804644
C -2.1856894363004926 0.2548379358765029 1.4820386275577917
O -0.9231917145253032 -1.0874324667236255 4.251702631429005
C -0.9962355269275983 -1.279479914425093 3.095814240648408
O -1.8291554346345762 1.288001318552292 2.336068493883916
H -2.4629755756142124 2.029540312292771 2.196835199951389
Rh -2.1492008430622365 1.5737610237384392 -0.8822553805729924
I -1.195562727346023 -0.9152381479300348 -1.2941000402625282
O -3.1563024839283513 3.370842902563709 0.9846456465843401
C -2.8781587782148472 3.2440708272239145 -0.20991805048192386
O 0.23866032771893164 3.128261528637648 0.0204407393226125
C -0.5900751130984374 2.477663403283589 -0.48154512469063626
I 5.429360807513882 -0.33517311019113766 1.4216818253609396
C 2.3068851214330452 1.4808100072894745 2.5779022465038155
H 1.376681502259017 1.9513391292524918 2.9059730117928075
H 3.0495648734061174 2.2374692821014026 2.325759974614137
H 2.7014518847672586 0.8532298498329268 3.3774651632755606
O 3.1657518224090664 -3.151573582387623 0.9838951527690136
C 2.1354633147739546 -3.655143469014355 -2.247972981349597
H 1.175429384521471 -3.1617636816584542 -2.3687679881073667
H 2.128290053508787 -4.2823469132484755 -1.3638062253813852
H 2.41748185684892 -4.205108155015834 -3.137041479804614
H 2.9403799346700352 -3.8746552248828428 1.6041424952774859
Rh 3.1117431378970286 -0.4382130573455 0.19861642023194317
I 3.631250330921151 -2.1179661519076274 -1.9548667082478088
I 3.4200450032615617 1.7668763805426455 -1.341417574594045
O 0.9576928803208126 0.3405248977268376 0.8891880389292515
C 2.033409960929669 0.6163990256095334 1.3907152525198125
O 2.148079552932349 -1.8155258031713883 2.4636666935937317
C 2.7428211850019353 -1.948802059233188 1.3952509178411614
