39
## STRUCTURE-ID: 6458f6ab76e6a53cc9266c6d ; CHARGE = -3; SPIN = 1
O -0.9308203740031394 -2.539534846756761 -2.9564265337638442
C -1.1299361150820109 1.5202163002589133 -2.873548644280826
H -1.5054719653181634 1.4675389339226808 -3.8890213915745036
H -0.20902432934433396 0.9546015977710722 -2.7681708304984842
H -0.9791943136658716 2.553077108571768 -2.5684809010778777
H -1.526390417384696 -2.0627873972775492 -3.5604532779719333
Rh -2.3954967631756645 1.5124637488559194 0.9608284439378751
I -3.349696106574551 3.8705424599177043 0.3979481885079319
I -2.635620588855808 0.6390913475745321 -1.5510338370117362
O -0.681422749609379 -0.19208736144264824 2.279616624339147
C -1.7150506154117833 -0.2243628298786953 1.4265907826926083
O -3.4347770143298835 0.7298771002470368 3.6344832515337013
C -3.144716658510292 1.2202352902365232 2.6150985497858588
O -2.1560165626204415 -1.4453817725198628 1.151146732372217
H -1.3695592539660224 -2.073114051457101 1.3600729269683125
Rh -3.170323448901422 -1.9094923289151213 -1.1594797151158986
I -5.409600052406317 -0.8903674589590217 -0.16771234028693405
O -0.7907384658988754 -3.369991656685077 -0.9129013825095726
C -1.466607164680319 -2.694410943266499 -1.6869028306464093
O -3.861949022119411 -4.667722348422787 -2.06716725017719
C -3.708448341913764 -3.573474556495089 -1.6976849229843154
I 2.8916676644515995 0.9368389684645693 -1.8117593828486298
C 3.712901777896181 -1.0583278731464258 0.6532975577376887
H 4.6353049588197575 -0.8744911257319483 0.0962735114661781
H 3.2439814501877215 -1.9696698612710066 0.2492287538880583
H 3.971918163149537 -1.2505414055373265 1.7044121939493577
O 1.4963774416227276 -0.7330354366381586 2.669968048703589
C 4.042909306302923 4.024499656471333 0.2591977125740696
H 2.9889418590887544 4.288134759694535 0.22938071498592236
H 4.395847770487273 3.7145821705793014 -0.7194551620406626
H 4.657850168055463 4.799885397105724 0.7025439757218249
H 1.4931407884852748 -1.3144088675557593 3.4442009895344308
Rh 2.3298854200348664 0.5009872779515389 0.669500774619788
I 0.32789075784389843 2.3951014153723684 0.7929255024850533
I 4.200135933677298 2.272857415149429 1.5700028163548898
O 0.09389330726507239 -2.3341894637620326 1.8305218740833076
C 0.4308768539003702 -1.081634624973599 1.7964614526246319
O -0.08737126648125415 -0.627115199335122 -0.49757910189877824
C 0.7447079689846072 -0.5143895381174675 0.39407612582112156
