37
## STRUCTURE-ID: 6458d891b11b1802da4c93bd ; CHARGE = -3; SPIN = 1
O -3.3233409417966175 -1.281735756657204 3.591318925040164
C -2.090541261693946 -3.5432440668385294 -0.9313489544053551
H -1.658018242715645 -4.349338031903017 -0.34736937823692254
H -1.6778781056903602 -3.4913308439255752 -1.9347630415606683
H -3.1741490328826276 -3.584619736393448 -0.9629574907660939
H -3.0048416991431837 -1.9189150838637759 2.9278876831771177
Rh -1.402204888474875 0.3945371599876442 -1.5669758642204745
I -2.8772272683249738 -0.7832900545148973 -3.3317563302983717
I -1.5055591892307716 -1.5949937749613747 0.17005881094060254
O -3.439855120411577 1.0449822747979034 0.5162624661450763
C -2.6630384992608493 1.316971572940465 1.4444448432783117
O -1.3510059192926858 3.142557805558573 -2.6651182427012823
C -1.3853625746163645 2.010631054650269 -2.369342768808391
O -2.746709082540175 2.622933506200613 1.9191026708294463
H -3.486416531044241 3.094377196148456 1.4871207776095676
Rh -1.1763991280082498 0.3037322661882657 2.2895517591386936
I 0.18652664224630824 1.4206131725811166 0.37816333323092804
O -2.950663484964322 0.6849770208831369 4.4955206332263895
C -2.5972312273608185 -0.10041196242951031 3.614966824943154
O 1.1182733692275317 -0.015806604945000538 4.141781617796527
C 0.2301362286809483 -0.16863781651118456 3.39775501799286
I 4.941712777277048 0.28979669620376364 -1.6299772709339893
C 3.4655926264326236 1.6332120354583153 1.1150704027352194
H 2.807424721246922 1.6015390874525044 2.0044742374128153
H 3.6633719443441777 2.692696666937802 0.9085795774705064
H 4.4145856381357245 1.169653740146897 1.4115211338050255
O 2.957675567298736 3.3894957723166934 -1.2975697279690508
C 1.3502091208161917 -2.9380091139786706 -2.588612493321262
H 0.9992824101052954 -3.281103736313854 -1.6181374506545276
H 2.38172071101877 -3.232248523775604 -2.7589844885049026
H 0.6958411465040011 -3.26018042074545 -3.3944927114559182
H 2.788866739141604 4.066804671814608 -1.9816241620799846
Rh 2.583374577219193 0.6302788619665243 -0.5059934001631619
I 1.283248419940607 -0.7108124335163196 -2.581469947716896
I 2.563781764293426 -1.654663599769454 0.9701201150162202
O 1.6931656237985162 2.1896342294308653 -2.6699420281680695
C 2.385652169724651 2.209916769378398 -1.6472650778232631
