32
## STRUCTURE-ID: 6458eab5a42ee51f987b0e73 ; CHARGE = -2; SPIN = 1
O 0.5943517482967229 -0.23393403355953596 -1.033724761452102
C -3.715688657111379 2.5919808582351043 -3.235289610797343
H -3.506738146052468 3.2582868480302243 -4.0638792234713135
H -4.470091032569846 2.998646970071131 -2.56855256167644
H -3.9886928620780506 1.5961559071208198 -3.572467731924383
H -0.07274438859524614 -0.008939167988763118 -1.7050413920481098
Rh -2.4771902962034122 0.7162146909317842 -0.03489415012395165
I -4.601235015111608 2.157123685094726 0.7103627725724602
I -1.8596071854193452 2.410146923901416 -2.0687664642257753
O 0.023629684102747697 1.9014367817925841 0.4958799109619478
C -0.7960300011863534 1.0671433932138974 0.9107471899796792
O -3.1202683927680646 -1.2112415530289902 2.1646756304540253
C -2.7222685773650337 -0.7029483217554959 1.1802463121352278
O -0.9077241801789435 0.866147046378581 2.253966163665807
H -0.21287208273856795 1.3739714852105924 2.7413165696822155
Rh -1.625600602772269 -1.6754025816289035 -0.24090134084969161
I -3.5799460119956366 -1.4547304867985495 -1.9930526928062537
O 0.791476476185126 -0.8487940589643458 1.1016240527522994
C -0.006028850188883687 -0.6463621005731939 0.16382155619176278
O 0.2322416550196304 -3.917469254510781 0.42806198132513945
C -0.6435867710195784 -3.236972283893263 0.07821061444049907
I 5.409622878383107 0.34793626366411057 1.133350281491954
C 3.21659857016383 -1.6179083457955705 -0.45166967499839816
H 2.364345009459365 -2.306229894248702 -0.5140104507466464
H 4.118294223632049 -2.2022508092847413 -0.2540250617094887
H 3.3267809298401763 -1.1356781313114432 -1.4264319568602357
H 4.676370246563423 -2.2074335847826627 3.4591334696517735
Rh 2.8403694890993445 -0.23771037509441945 1.1110160051742177
I 3.1671972159296153 -2.3243817218685603 2.914807263823694
I 2.275470489456785 1.5285714403744033 3.1748359973852294
O 2.6222999228888666 2.0211777115979603 -0.7905367823659804
C 2.6472645143340525 1.1334466994705563 -0.06881191563168378
