31
## STRUCTURE-ID: 6458e70d972f485428760840 ; CHARGE = -3; SPIN = 1
O 1.0413590384301405 -1.2461281851137473 -1.7535160877823293
C -1.0001104918072081 1.4826762261185713 -2.9151868108460333
H -0.8593445203105203 1.1429940541307104 -3.9353223934905306
H -0.06580083529921088 1.469821921654099 -2.361468117269335
H -1.4440089544697052 2.4719995629157494 -2.888319679537011
H 0.5760723367027011 -1.5296836118582624 -2.5608097916133845
Rh -3.33815626520243 0.5451786943950186 0.5299763630911151
I -5.504560380337331 1.7408944161469113 -0.368844732027351
I -2.370453777081255 0.11115196867783966 -1.9258811424809532
O -0.5669559952422559 0.7808886123674468 1.054392008221139
C -1.5596087932283795 0.05616904313203266 1.2322285402893849
O -3.0995858325912127 1.5904360063679313 3.304733727961254
C -3.3244636588035372 1.2283465649553447 2.219610713441742
O -1.466905836796252 -0.96781771113478 2.1579303334958726
H -0.5790090918780505 -1.0077913512732541 2.557540028250816
Rh -1.5540315362772301 -2.0065936958054795 -0.5666513599630808
I -4.163816501025866 -2.2363152333636767 -0.09616418889121608
O 0.9607502783082577 -1.4139451620258312 0.45470337886316997
C 0.3454863096581077 -1.5532474629465707 -0.6026048608830704
O -0.35112770787476477 -4.684399446109617 -0.026180308049901346
C -0.9150021020256549 -3.699524090741446 -0.2479957564622171
Rh 2.7901086506459962 0.508160088453023 1.3643311393944393
I 2.9619210534513014 -1.1973950340533657 3.487151243969387
I 1.9291861617024457 2.5284212172142646 2.8645698282124283
O 3.656574213619252 -1.800055478572951 -0.29522068809106594
C 3.2508367229001998 -0.918359962978671 0.32609415936245084
I 5.291996330866903 1.265118355729562 1.3035541178023584
C 2.4230886965987803 1.675657583609492 -0.34761658618252916
H 1.3265990015898135 1.73330897353837 -0.4130362983656462
H 2.802321074370988 1.231906170084893 -1.2759351612032743
H 2.806642411405915 2.698126966486483 -0.27606161921668115
