31
## STRUCTURE-ID: 6458ec629dd7ff73752d7c1d ; CHARGE = -3; SPIN = 1
O 1.4651656472270536 -2.4409970644468477 0.3071387698160783
C -0.9713041815186153 0.7057133852976342 -2.880483587989376
H -0.7925315571912859 -0.14080009520560516 -3.535200870657491
H -0.022857981380178107 1.0882584916536993 -2.5096075030697285
H -1.5011814404551236 1.496852566460505 -3.3976770732944335
H 1.3107284899494924 -3.323063815727775 0.6792805007604891
Rh -1.4367201536674006 1.9009937208671333 0.6558769334740914
I -1.335295195157786 3.8081848571500583 -1.2265580033437458
I -2.1685169939583013 0.03447984194392466 -1.234336407346696
O -1.0928914812526895 1.1504173197756067 3.3195275448043953
C -1.3150191698732072 0.6943111455332108 2.207563772302237
O -3.866784698640896 2.2331517512832 2.3408232284404624
C -3.1360235256515643 2.3229923601501934 1.4528964108570088
O -1.4909393274647476 -0.6540182566834053 2.088904381840114
H -1.4367388217043355 -1.0873842769031623 2.967035641773743
Rh -1.5436362093349791 -2.214366593516308 -0.056890890624556836
I -4.133015607771894 -1.952786968765999 0.3388123827884447
O 0.6464497433005452 -0.7970435963453795 -0.88527378716182
C 0.38469963534759605 -1.8666735157306393 -0.29659756464826786
O -1.2562558118927165 -5.101243655196614 0.6292969383922977
C -1.3441815405846098 -3.9820657132738395 0.3826681623279419
I 3.76486390493456 2.592142233670778 0.6211194930225518
O 2.6141454600883955 1.1941216331043538 -2.4661025134537455
H 3.138025774309509 1.9744332148956563 -2.6653966450770903
Rh 2.0738488167573292 0.7931538899882071 -0.2210347411842549
I 5.786933514137489 -2.529200433303188 -1.3156227510920009
I 3.970066043243187 -0.41213911355761074 -1.6551374816011477
O 0.4054833756395444 2.7436890811976276 1.4578265637183563
C 0.5889897618550413 1.5722142389305456 0.9595344351231425
O 1.3876906841126897 -0.2885794022671937 2.442371870069522
C 1.306802846597817 0.4852527690213392 1.4952427910334516
