34
## STRUCTURE-ID: 6458fe415775cc42825c5c4e ; CHARGE = -3; SPIN = 1
O -1.2304969217754949 -2.3259597663580007 -3.27904791023003
C 0.1681640131828569 1.2976172713266854 -3.0013507089185687
H -0.13327183539087611 1.4073909611505264 -4.035805665267338
H 0.6512194076277039 0.3366398648215826 -2.849903933287004
H 0.8421866973877928 2.093788316716747 -2.7061911893943456
H -2.0614434675226123 -2.2884825414130936 -3.7830080191856097
Rh -1.1189117798753478 1.717428042136757 0.823292603903514
I -1.198529994778585 4.323691328970618 0.6136808691692577
I -1.5515497491674697 1.3493987832357939 -1.7458803867561037
O 0.22048982793035765 -0.852210694847636 1.4520100228083548
C -0.8218893383941164 -0.2365527617841491 1.1337451488886388
O -1.8060879648734869 1.3814381136403089 3.6902668993775154
C -1.4628641647085674 1.6169885172381784 2.604477033941572
O -1.9654700111876995 -0.9847004678749655 1.2341316858653584
H -1.790126423148951 -1.888950583968766 1.5663420718472254
Rh -2.891045057867899 -0.8220127099281216 -1.3334122092081222
I -4.381613936669534 1.1174797278116586 -0.2523142644234512
O -0.34460193961497687 -1.8774141347955262 -1.307573238678753
C -1.360514965496835 -1.8234667730146994 -2.006562777262246
O -4.520523749295159 -3.3300223107912976 -1.3599890163561035
C -3.93653232942981 -2.3321120164099796 -1.3664895409355267
I 2.4863181311075966 -3.503807000233565 1.1129421291781005
O 3.281349075399936 1.9190726015301518 0.9472624152790033
C 1.3611337310280875 0.7408615573610458 4.143422494765331
H 0.5030433498999493 0.05018586465114745 4.092100562844612
H 1.1430881031358389 1.5712335347046615 3.4446640295316207
H 3.166372801712586 2.8802368959646074 0.7859424977962773
Rh 2.4912302567643874 -0.8168516804617907 0.745178825237022
I 3.005750674221705 -0.30806449491143656 3.3197903796818946
I 5.076011496326899 -0.7040323085156535 0.22456095746744598
O 2.3082258590727407 -1.367075298997294 -2.1780538853067486
C 2.213671839536198 -1.156542369450156 -1.0490657202949485
O 1.3530852892978849 1.6609593110141112 -0.13180304690176378
C 2.3041330755648888 1.153847221481471 0.45264088482392223
