39
## STRUCTURE-ID: 6458f94fa8d6cb3c71143970 ; CHARGE = -3; SPIN = 1
O -1.09715698516812 -1.3127262039547474 -2.582681079581439
C -1.4523773353071927 2.651720418797904 -2.4760594328543655
H -2.0478394629687697 2.8156493792962864 -3.3701471139730392
H -0.5915244430164839 2.011045530531366 -2.6504720978414267
H -1.1463856398714003 3.5904637781024067 -2.0201072694406705
H -1.6001970149687197 -0.8447618309858336 -3.275240911744021
Rh -1.3873428032588417 1.1804960804337667 1.2151876824116072
I -0.743958019736642 3.7505650877229573 1.4135157112830454
I -2.764292724147437 1.6566556005073336 -1.0109451135670555
O -2.120433358110026 -1.592942981804795 2.1144404834751733
C -2.4546785754544915 -0.44820134113147675 1.5296814861187789
O -1.0410732389781605 0.6513644783602016 4.123250054165551
C -1.089210032119448 0.9200962229950245 2.9863879451737114
O -3.782947019859901 -0.31077544108948324 1.543159413789838
H -4.2388268673295295 -1.0516020039892418 2.001457674893679
Rh -3.6310211731151663 -0.793026507308543 -1.2194972948154104
I -6.042268174344909 0.1972256111744443 -0.9405409029048046
O -1.2541376585503348 -2.1591581169360827 -0.5466086297695097
C -1.8198220369215603 -1.512183098149468 -1.4276735933257212
O -4.117015984444569 -3.6629866337216686 -1.8696462962091676
C -4.0220630395071915 -2.5242476336590993 -1.6644474779805427
I 5.061294409929244 -0.2291321260487223 2.8278721381915863
C 3.3587682931131173 -1.7511548066913485 0.276721670257731
H 4.380226259102747 -2.1346754486766213 0.3681105259062323
H 2.682289165650651 -2.409705568026362 0.8425051077546635
H 3.0562677653564156 -1.7751148231380867 -0.7759987022326287
O 0.397603753152359 -1.6945716987393018 1.97133660200279
C 4.0265092345165385 1.8551423647939909 -2.7196559772010502
H 2.9631979831520665 1.6396422543023534 -2.654683662000801
H 4.5149042958401635 1.2839221405381103 -3.50111760730838
H 4.215748832493981 2.9195240623675343 -2.8089969104641175
H -1.1308592829357793 -1.7660199324409596 2.0501196702899667
Rh 3.182149291943601 0.16809399866425406 1.0448550009879345
I 1.0144998140301864 0.6908542203125126 -0.34369498523469033
I 4.900978588435009 1.2027201524274906 -0.8057335653586865
O 1.1535642319880524 -1.428556562218745 4.0661156163004835
C 1.0692248432521945 -1.1044924471180124 2.867606170343786
O 1.728829517478088 1.212108255624062 2.977759251201249
C 1.8693745906804062 0.10874556887675746 2.4438664192596873
