39
## STRUCTURE-ID: 6458d0d48af7b51ebf43dd68 ; CHARGE = -3; SPIN = 1
O -3.2381804016572944 -3.2665198657234304 -3.3783324713655802
C -0.6940246122911361 -1.5532619381822672 -1.8652194792535661
H -0.9085101163637551 -2.3898027060108276 -2.5215478733281667
H 0.3388301785777766 -1.588259498358202 -1.5404708697789447
H -0.880023921738684 -0.623189358899096 -2.4032234064063465
H -3.57504469236783 -4.032833496748941 -2.8829893652009546
Rh -2.131910451109209 0.8429352531696204 0.7110805133399938
I -1.3618252233074175 0.13674873284209918 3.1403011842388193
I -2.014683137744712 -1.5971639511966562 -0.24746640216437357
O -2.155598927944268 1.3963915761857246 -2.0846092887445744
C -2.840915627213165 1.0854272609219162 -1.0993236278998282
O -3.944439884931342 3.1940337319130188 0.9439202371872212
C -3.244916116009021 2.263816109578488 1.057959344087947
O -4.180221923934566 0.8173059118072533 -1.332944579200956
H -4.368381878115874 0.8895484499561427 -2.2887346817875813
Rh -4.396733422859578 -2.0234956500065744 -1.017040329027488
I -4.523386522376755 -2.1082657216482716 1.609868523575734
O -3.44080635659727 -1.0667524261436256 -3.524036008406888
C -3.6901408251322025 -2.056239919577056 -2.837447486412968
O -7.072661420587362 -2.6040132728178946 -2.20858582141129
C -6.059740215962558 -2.428612152337922 -1.6776198784940692
I 4.352874527102238 2.0712755946777803 -1.0339100763250129
C 4.768377598607905 0.12744875575175155 1.5708159182867356
H 5.603497688885137 0.8281790629928617 1.5755322896152906
H 5.045264672491788 -0.7392123566244165 0.9648723447577464
H 4.535436095260214 -0.1917011564313074 2.5925041074199577
O 2.0200832115664844 -0.768096423744852 2.305652689289574
C 5.473459232751995 3.6545212512898195 2.5244636994183476
H 6.0173477054243705 2.9849275088544576 3.18166135356394
H 5.509654079761654 4.680868020571652 2.874773821421581
H 5.795072530824332 3.572867570578526 1.4895335708645276
H 1.353450661748503 -0.9572257798997921 3.0072900352432943
Rh 2.9863615925546183 0.978187886020986 0.8657970918136585
I 0.40198620057156104 2.008312188691542 0.17071250776603397
I 3.325959033823846 3.0490978657060386 2.573064529591732
O 0.5439851857948976 -1.6720580796177382 0.8666244211341491
C 1.6151156723685072 -1.1065246922610472 1.0817771855136842
O 2.531884721497151 -1.1783677919889277 -1.128697809741797
C 2.5035050886312766 -0.6302964932900114 -0.03600591317999297
