40
## STRUCTURE-ID: 6458b52aea7a076982599671 ; CHARGE = -2; SPIN = 1
H -0.6499478721769706 -2.315820408858404 3.5214074634960983
I -4.233779261336373 -3.2188733225692006 -0.04963104003559897
C -5.58453939305653 -3.500336110917101 1.6944638997175054
H -5.9870785985971695 -4.503835869348002 1.6174054989665028
H -4.976366016995373 -3.377296306211186 2.588011545044807
H -6.3616735176034025 -2.74733052315251 1.6170801521773916
O -2.9469719564254073 0.9962945646544423 -1.2147484640014041
C -5.586023144991373 -0.33972602059138834 3.388027389304518
H -5.645242554641985 0.5179954297418349 4.04864533175812
H -4.89873515916985 -1.0894488521759245 3.7739809905405943
H -6.567545328439639 -0.7460188322095042 3.1712754919690287
H -3.0731575935291024 1.3045337000043848 -2.1311500286085265
Rh -2.557034005196427 -1.0807433627478762 0.6275154984871547
I -4.733287765628504 0.3929805228380118 1.4713472594721884
I -2.144469198384789 -2.049673279776073 3.140187615237757
O 0.03494393528205332 -0.2580571817525931 -0.6208208139780801
C -0.8635552096329341 -0.6448003493389242 0.034958682216501835
O -2.6226190587991303 -0.963113579961454 -2.2329591747605844
C -2.7234965073794783 -0.35573588134011935 -1.168648210999743
O 4.1096796643791444 4.454269947417073 -1.4965004970903542
C 1.1248142056654509 2.555987719455525 -0.8095963763310552
H 1.4046891595530728 3.6027183845585977 -0.8067893330217825
H 0.13730263767106426 2.4138008681981398 -0.38501861501003826
H 1.1523446436891223 2.1680272104382405 -1.8260976136002791
H 4.6139376650520765 4.727255941262769 -0.7114470559961213
Rh 2.717182313847742 -1.0947224220974692 -0.21080615733676228
I 1.6862974931580208 -1.699133948803383 2.073750987196915
I 2.5700098277160124 1.4592694486302111 0.258474813452272
O 2.4209895730824784 -0.23256100022166462 -2.948866532669929
C 3.20831618708508 -0.4788382872439136 -2.026513542649232
O 2.485202434502071 -3.6210475020502066 -1.757599854738062
C 2.609389555190589 -2.702269908905675 -1.046160548084794
O 4.554362060137007 -0.2878394641617784 -2.2843219899510476
H 4.693880491938261 -0.006435505203156761 -3.2082059570004784
Rh 4.992649835601001 1.8314440311802285 -0.5110265929601073
I 5.233820700105911 -0.06748001942791178 1.3446449767334197
O 3.7330168410723017 2.737434510571305 -2.8354519295901466
C 4.265223990813299 3.110255744556864 -1.7908043550805464
O 7.717513122145244 2.735814900138016 -1.3429725034489617
C 6.6899558042973934 2.373055015419605 -0.9550404088269673
