33
## STRUCTURE-ID: 6458e16929e6b7289c761143 ; CHARGE = -3; SPIN = 1
O -4.653494050890869 -3.1926945573994665 0.9326694588266593
C -3.617608820936139 -1.5008387489445048 -2.234226433549615
H -3.723123708401762 -2.442400418427826 -2.772672631153117
H -3.5159374782648833 -0.6565531506531419 -2.9149251575708637
H -4.417709269449356 -1.3373360271837533 -1.5156414125024222
H -4.183610915988796 -3.8487906053235887 0.38483583424535023
Rh -0.20326418265463164 0.4625548885707473 -0.46576304129916934
I -1.8042354980363675 1.9689382984614614 -1.9383541648906686
I -1.7063929839633407 -1.6676009067691397 -1.104593705782664
O -1.1055677718252355 1.96576140898273 1.739222653710711
C -1.3609051297321053 0.9906772440840286 1.0542339173331683
O 0.8361900267280793 3.1617488501051656 -0.18040427846633508
C 0.8947429109146845 1.9942783590073687 -0.1331706933928638
O -2.4466824222362398 0.24199525490952653 1.2830705855712692
H -3.026045344237573 0.5839558056246121 1.999100664282806
Rh -1.9315606909117917 -2.3119066424737866 1.4568782122606427
I 0.7504489166331924 -1.3693314096705536 1.315659653314512
O -4.366933121058181 -1.4910169885425184 2.305856933926341
C -3.879011008575809 -2.357013640026294 1.6114815315689048
O -1.3173447733923966 -4.1464534452069985 3.7520780506054963
C -1.706721591836857 -3.4905981807085693 2.889236488760072
C 5.851189635203263 0.13170732284486508 0.7325889912998124
O 6.722382926037545 0.5757422092981697 1.4421230169924482
I 2.814377760347002 1.9755855335444052 2.169360822236639
O 2.519548181703143 3.15355951026646 -2.4166329104261415
H 2.5442966067769968 4.088298857296792 -2.702439046005304
Rh 3.4638525690521087 1.1741402988786656 -0.5855877669345644
I 5.65026090178818 1.438059513975875 -2.259816283620069
I 1.729812058015335 0.02363053298808375 -2.483135814395393
O 3.6380579308074275 3.949987652581613 -0.6554394448327223
C 3.1895582275873284 2.9689967762836607 -1.2427196812354955
O 3.774161143251811 -0.8924710674091753 -0.02866742961216479
C 4.5872689675462475 -0.1446125289646874 0.5657930807346624
