39
## STRUCTURE-ID: 6458f0227c66ec649c3cfcaa ; CHARGE = -3; SPIN = 1
O -0.2022845253439298 -1.0186497201755784 -2.4430309892258664
C -3.5955079780102093 0.8454910771124035 -3.6333413364649374
H -2.523632989714815 0.9989310139015982 -3.556451405086455
H -4.127277450815619 1.754177976886573 -3.3674178125272323
H -3.879928162435965 0.4749729359118434 -4.611213565589442
H -0.16036394775401716 -1.9726455179730136 -2.592900963599559
Rh -2.5889524459674274 0.5290130493948522 0.38341379299531914
I -3.382634318607721 2.9203389249885436 -0.305400888495417
I -4.148036597286152 -0.6898353357718776 -2.1586690499134393
O -0.18447091245953576 -0.24107136327118775 1.5348067214863217
C -1.30905229144528 -0.7749022133156303 1.3620714022881375
O -4.462117204674463 0.15001563104782004 2.6377604617927437
C -3.7762851265486406 0.2958005230934614 1.709982393323472
O -1.7273649174206058 -1.5538436304898875 2.4723888048129044
H -1.008773713468649 -1.6324086307825154 3.124293157129719
Rh -2.0564420521512434 -1.936532917787779 -0.3257909293143727
I -4.0810828944064514 -3.318246548427831 0.7727390150939263
O -1.0133386123956538 0.5237093953625002 -1.1216347835676668
C -0.9478963507368169 -0.7060656140806537 -1.314024977088229
O -0.6055833879616617 -4.522636900186193 -0.7617724529266182
C -1.1853510283916653 -3.5082535917080637 -0.7965487259703042
I 2.398993513788429 1.2664295171128173 3.587707101293198
C 4.928679432753583 1.2263805345738235 0.8568910529777836
H 5.990338840127883 1.030164865855304 0.9972119244764438
H 4.576097332749123 1.935700382918434 1.6005811419334215
H 4.767313373080339 1.6481782349889196 -0.13624788738768057
O 2.6847756150422524 -0.6159959856314982 -1.4149585500577286
C 0.22042131765480402 3.2030679044833823 1.1372306592073889
H 0.7419842322466091 3.547915877894345 2.024447466149654
H -0.6077177149419003 2.54839189531266 1.415461241463881
H -0.13527533319698845 4.024066728859264 0.5235122916570724
H 2.5636003048306786 -1.1357416421154864 -2.233793771044581
Rh 2.28015398134294 -0.18631582800219235 1.329967206385148
I 2.4671376837794803 -2.4662522772203217 2.722201990855566
I 1.5940910698728303 2.0290353709559446 -0.05310303123929046
O 1.4299269026622896 -2.2329550639835416 -0.5277456247959839
C 2.0675355580479917 -1.2013200503286807 -0.3395628891088033
O 4.793130611715512 -1.1289812120787646 0.6034892225159998
C 4.205190186440273 -0.10912779732416895 0.8974525855655408
