39
## STRUCTURE-ID: 6458f80ce619b142a613ed10 ; CHARGE = -3; SPIN = 1
O -2.3893434390730177 -2.890634335271461 -2.1030151476433274
C -0.9068984097046311 0.8399017460421869 -3.2813361250844433
H -1.4412695576772658 0.5811518654942436 -4.18993862512155
H -0.19473623741845938 0.06715117282619762 -3.0012627871604236
H -0.42340903353122694 1.810528872426169 -3.372604381853745
H -2.5898947276013535 -2.3903894622927697 -2.9136141108369467
Rh -1.3304347088221466 1.6125622779454767 0.6385129921294899
I -1.80687073199198 4.212310097536436 0.5552984014147602
I -2.4284890000661252 1.0399039894131488 -1.6872488967582353
O -0.8818074653821164 -1.2918530271678887 1.02376398255057
C -1.6175698613199068 -0.3049257473118978 1.0221611509194812
O -1.2053742217073449 1.0667202511958682 3.5485667592177443
C -1.075146886412053 1.3930014942067934 2.428725175177334
O -2.9334970252415684 -0.524950800359254 1.4693173640094097
H -3.028065067977266 -1.4662140229078253 1.7112987043544907
Rh -4.154687402529479 -0.8118652923991785 -0.9379644856903345
I -5.638392650630999 1.2786217102905355 -0.26555525459576707
O -2.8807474715163246 -3.0556930595320835 0.04610486058517715
C -3.039756403241281 -2.4090421312979706 -0.9921577210008309
O -6.149151999833493 -2.9842426362153893 -1.420509042510014
C -5.442548306288883 -2.076687486937433 -1.2451196204323332
I 1.9688603597766539 2.4835366850594447 3.13273735073223
C 3.9093957480318493 0.7688394520044783 1.0378035071252378
H 4.138121306595414 1.7992369071313967 0.7499837060557888
H 4.385109417862352 0.5643063749655143 2.0036602175176603
H 4.310828117400595 0.08315051960086656 0.2902529522251419
O 3.5737054867940596 -2.3440069515355684 1.9006451098837878
C 2.5042383716851826 2.2136315841850247 -2.492007262915715
H 2.453521135309383 1.1674520613139006 -2.7818130463422523
H 3.513063148937958 2.50029994373529 -2.215324654046132
H 2.0934167904609606 2.879644884177401 -3.244761794387818
H 4.416271450724924 -2.7914859319581367 2.1310046291476685
Rh 1.8295532149143827 0.6045503232991367 1.231488518853182
I 1.782993110080956 -1.2074132367147141 -0.6785307142268423
I 1.212807024921744 2.486486392286794 -0.6630752057392397
O 3.6661447590949328 -1.4652480526352765 3.948726446383207
C 3.115923692125332 -1.5750360976165059 2.8695160802363953
O 0.8329995074358992 -1.0574831002276937 3.2020419601976178
C 1.8511379658145248 -0.8058172327546463 2.544229007629398
