34
## STRUCTURE-ID: 6458f3eff59e3b15be07e9e7 ; CHARGE = -3; SPIN = 3
O 0.3980264824602662 -2.0812982377079794 -1.9114817341479595
C -0.9462953991088955 1.188590200396576 -3.1463198525723617
H -0.2967230115263127 0.47486719273623645 -3.63980317183698
H -0.40220095441576964 1.6994671067172091 -2.3564872515077955
H -1.344234510944607 1.910065372475207 -3.849676577151153
H -0.17630535654032697 -2.5567824735635165 -2.5379870371259754
Rh -3.783762908701184 1.095509424052302 -0.009964278050770145
I -5.640635591877621 2.3844587628933733 -1.3531086812416153
I -2.5760472191585704 0.16207373228528735 -2.211003654805165
O -1.1380921340133154 0.9426557205370076 1.101054829313435
C -2.2629334859629857 0.4171158939005664 1.0612558678476745
O -3.567011299115534 2.655799065197775 2.5131275691876973
C -3.791481790793058 2.1075066689549855 1.504511464484854
O -2.5657901157338836 -0.5032487301162788 2.06081689514907
H -1.8299379449238455 -0.5978234411626185 2.68982582240593
Rh -2.1800089250811396 -1.8086106118984628 -0.563213232819732
I -4.8485647392031055 -1.59346232195464 -0.44235489546356427
O 0.5085967351702022 -1.2704533819276187 0.13670373401970462
C -0.2271540921805078 -1.7225239250769593 -0.7401596928607729
O -1.471823752700271 -4.230827971239035 1.0273352720677178
C -1.8304640571387962 -3.347858147305359 0.37386915968352974
I 2.8218769109265183 0.6504728403299422 -2.332127028343791
O 2.0307788684908266 -0.43004270179782045 2.8868110488919063
C 5.684598041683027 -1.3721277753055985 -0.07613770901127709
H 6.08705347641182 -0.37889462563353815 -0.15380167537043787
H 6.155660290715252 -2.231540198686488 -0.5097623119305192
H 1.8100938598155878 -0.34539879859974043 3.836583563318813
Rh 2.3580428015460204 0.7199503613128023 0.30059077304582116
I 4.536425409548073 2.235124092117816 1.0126731076574702
I 3.7170842036551917 -1.5842451922741974 0.5937486506637673
O 1.3423191804241852 1.6812011454100555 2.848762595631645
C 1.8065847533627122 0.7388203455141265 2.212381558971111
O 0.47075288107525143 2.945176130604222 -0.307603652275546
C 1.1515733938349122 2.046284478814384 -0.019059475824515892
