34
## STRUCTURE-ID: 6458f87125ec073e5110d2fa ; CHARGE = -3; SPIN = 1
O -3.222550878847154 2.3733132202551572 -1.107383264828165
C -5.627238405019111 -0.1582223483468889 -1.670918600366424
H -5.703747234823277 0.9229660522674502 -1.6515591710481086
H -5.4706751030381024 -0.5457438306547869 -0.6703008284370604
H -6.4802165741384465 -0.6202415007719662 -2.1525859434278876
H -2.758088782228306 2.357690816066132 -1.9609980697789549
Rh -0.29643532166447284 -2.3976099806661 1.474730379206926
I 1.6971779289620847 -4.177043523665956 1.8341420783959688
I -3.860377282054617 -0.6767779803287003 -2.824844063675874
O -2.9258393580198088 -1.493685075347229 0.5544933396236801
C -1.9062935270018564 -1.2502266266113045 1.2586665544610953
O -2.6017133344498946 -3.481677703454049 3.01774918565073
C -1.612912000520485 -3.199119660927368 2.4527312682735025
O -2.0686508795026217 -0.35217915481901474 2.292162978911586
H -2.8305984440105734 0.23463875753591504 2.066403613905151
Rh -1.7859623670376366 -0.1604294636943574 -0.8190490021481937
I -0.3752612541080403 -2.461629558447309 -1.3985177111094058
O -3.50703705739704 1.3639960035620553 0.8147840512045802
C -2.9116729290939536 1.3519516894369061 -0.2581885683017904
O 0.775325701958597 1.2973776058393762 -1.23355034706655
C -0.31916357779592675 0.8906352289318655 -1.178497555096577
I 2.488859440677072 3.5919966640734833 0.8557392522196076
O 5.9419859243628075 2.387686314112885 0.05036512555756004
C 3.230465897875295 -0.5904879187155743 -0.907497179196093
H 4.069743402853662 -1.2375858142659915 -0.6536295257570659
H 2.4218856943829716 -1.1775401710874138 -1.3494451375398515
H 6.745659995804569 2.496279750822159 -0.5046511619592013
Rh 2.806856259542684 1.0711394956562772 0.15149886172035867
I 1.2208417767181048 -0.2020152737352966 1.9466783261035254
I 3.8960241135027855 0.8177314025905075 -2.400534546941105
O 4.503581948503745 0.7404382765570015 2.3953869761720465
C 4.430554987232284 0.9595725241545776 1.2086717565922427
O 6.35277061616107 0.18763588496595934 0.011369448138993068
C 5.682700622213654 1.1371658987115716 0.3565774805407714
