37
## STRUCTURE-ID: 6458d78b9fa7433eb91c5e54 ; CHARGE = -3; SPIN = 3
O -1.2480056644493691 -0.9430399844871914 -4.378243872241728
C -0.008186439804901679 -2.038375384889273 -0.9868852294433629
H 0.15051850659490257 -2.625412289019933 -1.885413390034364
H 0.4788793799771289 -2.501249726522504 -0.1344427144590712
H 0.4005644480316514 -1.03969019691909 -1.147195879515328
H -1.9451533689832734 -1.5178826818103734 -4.741816774771262
Rh -2.319472788541183 -0.265477153222072 1.492600293859301
I -3.007350369638732 -2.2982809087516265 3.0019104577368654
I -2.054580312335046 -1.7992030301075106 -0.6263471655028314
O -1.2954119508536242 2.21364156139864 0.3772116719096065
C -2.141788169718365 1.3263445945204233 0.2915874899738916
O -3.2756679297437103 1.9597230730506954 3.2238875011309087
C -2.946741223936492 1.0319559556899756 2.6249290788628494
O -3.146266824459718 1.4938323554242765 -0.6303591776766916
H -3.0890637914167396 2.366973722916903 -1.0659399902746904
Rh -3.3886904934507487 -0.5373775903524199 -2.406536365514391
I -5.140012073492331 -1.4516834996585704 -0.6348867500367665
O -0.8971838854479451 0.6438940689226051 -2.876424671350688
C -1.703962242902488 -0.17433158094565201 -3.322863389046955
O -4.817620319920701 0.6933218488314933 -4.72692664896885
C -4.320844905041823 0.17380702522756972 -3.8254574223870716
I 2.973648482558165 3.040087921470954 2.174238961369032
C 1.7435097420063796 1.702600844882367 -0.6601285227005881
H 1.2594534032848894 1.064657427130241 -1.4274412547510529
H 2.4857288882517397 2.3081268397937214 -1.2159847601237375
H 0.9571403861836378 2.4029424459134496 -0.3274798784770634
O 2.911675095009921 -2.077336076832566 0.3046188245253207
C 4.109999454880735 0.2411611511278793 4.688635468865028
H 3.0974139555832703 -0.061251559966055524 4.935524605712378
H 4.2053661231023804 1.322612953244806 4.689646561760836
H 4.848154918346049 -0.2409037777057478 5.319367141456067
H 3.2491665256647653 -2.7582274064484733 -0.31106302992400026
Rh 2.658660307394401 0.6842052663347612 0.9621210012250946
I 4.478940321410885 -0.4399575327920352 2.6326686605798257
I 0.4504259551965477 -0.3288591117835075 2.3059546048628574
O 3.3202599679330596 -0.7498401465591112 -1.4369355484588902
C 2.9664968927268167 -0.8215094171069308 -0.25612988817029464
