34
## STRUCTURE-ID: 6458dc2594e854540a48a334 ; CHARGE = -3; SPIN = 1
O -0.7930819095902206 -1.7752385031729885 -2.8550208657037928
C -1.4305780992825377 -3.673260400355583 0.5742444382212635
H -1.9407156337765141 -4.3981516195176145 -0.05262108535309746
H -1.4036228743556183 -3.991555917649503 1.614079828851328
H -0.42802596103559065 -3.4472041761068475 0.21332345228960098
H -1.3532833172611265 -2.569685369430848 -2.9305345093768818
Rh -0.7964184614632479 0.06942203517216164 1.6384190843090645
I -0.26909220765635644 -1.6958560280882564 3.531523892488015
I -2.621166720428121 -1.8434134013900279 0.5128965819610569
O -0.8952165349394966 2.673406260374212 0.3564062269024384
C -1.4010399029730014 1.5500203450786616 0.3847263425912834
O -2.831921614066249 1.6449928702620886 3.124021774958676
C -2.072868240103984 0.9298976002637035 2.6365717869768037
O -2.606185393363987 1.4071964067586822 -0.25532661877928736
H -2.878624740123697 2.247156357381703 -0.6755118965495197
Rh -3.2829868960282025 -0.6651930682516846 -1.7065244809805231
I -5.622096553746207 -0.2986286649843277 -0.5585066604018757
O -0.8050536271347224 0.3510575278627415 -2.2427375412957815
C -1.4492227719435984 -0.6918934750080368 -2.361452421061974
O -3.861756795432221 -0.15166924286371775 -4.594290423915084
C -3.715385840403993 -0.39070449139926655 -3.4704559008364946
I 1.3570284720107608 1.8500085423516037 2.5461335463051538
C 4.6273988094500185 -0.3466998539162603 1.4251887653640045
H 5.6456977265733395 -0.3123790054948149 1.8068227321623438
H 4.572856242263869 -0.9743790843777259 0.5356284822097203
H 3.9665311962844956 -0.7712009057811373 2.1829653158886577
O 1.1107655453381298 2.7906247391453647 -1.4024128623533512
Rh 2.578394723849531 1.4512994160501096 0.1048438773069363
I 4.195056618865174 1.3861279307255663 -2.024910728129076
I 1.1981067259298042 -0.91025994759568 0.04085696179603406
O 2.3420118304455304 4.226358873560622 -0.11453041497823882
C 1.9082218621426916 3.2089432515560277 -0.5918030595879314
O 4.766126932225752 2.0605772799502957 1.4811220952541158
C 4.190147409729612 1.0602837188908572 1.1268642834663112
