34
## STRUCTURE-ID: 6458e97e27e71c3f2a738a59 ; CHARGE = -2; SPIN = 1
O -3.017307386727299 -1.778425834806912 -2.950835207748035
C 0.18218368854992043 -0.0997114165957483 -3.060977822825077
H -0.13646953396119618 0.2641406145254473 -4.033366578648517
H -0.024149192799980162 -1.1579308256930707 -2.9341124751715677
H 1.2348160771616925 0.12274471645680998 -2.8982727334575356
H -2.9802932555579735 -1.0276012454890373 -3.5697809132979947
Rh -1.2583315892663594 1.285628730256232 1.1406812166193732
I 0.7117224804074204 3.1106871996939995 1.2540067397464514
I -0.9985649775319206 1.0509730156079158 -1.57835944494694
O -1.519085050637737 -1.5154421435768524 0.971587781529871
C -2.1516586046090986 -0.4646166616626096 1.1749588200490702
O -1.4842718867662998 0.6329298468662049 4.04584524885106
C -1.2794758352112603 0.9015052937375695 2.929267216117047
O -3.4164940394526213 -0.5799498987659999 1.6777486998982645
H -3.682455871302779 -1.5184316542939897 1.7113933117640456
Rh -3.50152659843548 0.4303026755967745 -1.0869188021418028
I -3.5038639801082003 2.8459715054899672 0.18219076093612704
O -3.511718639968679 -2.349051549000026 -0.8794052757042091
C -3.3604665921218517 -1.4303338678367035 -1.674697493057947
O -6.407002273668044 -0.2535789658864152 -1.314006911702303
C -5.301477807683525 0.08255433534602148 -1.246906435636045
I 5.15089450826848 0.12886337485149757 1.47743094386389
C 5.803969284986355 -0.5924344511799484 -0.49525509349373076
H 4.994538195306092 -1.205157963982832 -0.884984692627951
H 6.71047467083303 -1.1649224620427825 -0.32463739149100684
H 5.9711774621594085 0.28203969550033264 -1.118501381257679
H 0.24365349720909066 -1.5578755643654698 0.5346802131509643
Rh 2.787776042012707 1.3138717809618516 1.2494589077751788
I 1.6883549506026614 -1.5440472142788193 -0.07963415227592305
I 3.3583878748506724 2.133849964547684 -1.1748588464411547
O 3.202207524593891 2.1167556996284373 4.08222318241067
C 2.6650454068093006 1.4339429366707959 3.2353231795950252
O 0.9569850041590676 -0.35710427340014966 2.8785842978823504
C 1.8724264479005823 0.4598546071199346 2.7601311317360526
