37
## STRUCTURE-ID: 6458a218171bf87f8c7a42ff ; CHARGE = -3; SPIN = 1
H -1.0302288417619394 -2.0678190078206047 0.24174530504095787
I -1.7299012124497417 0.0669539389160519 1.4656811563066459
O -2.4697151558737906 1.1013771772188614 2.9704391004345734
C -2.9194476418458892 -1.453906927283746 2.4242749912901123
H -2.2489064060644655 -2.1468539853416537 2.918764050501536
H -3.4965544943667326 -1.9795292414697132 1.6716002672854926
H -3.560172268022103 -0.9454170050001961 3.136106519429735
H -2.068941011589644 1.976316402263301 3.0292211754952194
O -1.0360925647934565 2.227412080066812 1.0821419604704337
Rh -3.30939740053722 0.36938797443171095 -0.5787839345479817
I -5.0745231929954135 1.081975778189334 1.1152851040636635
I -2.051431765795347 3.075207974448754 -0.2896838456375621
O -1.4535909209063453 -1.2025155231079683 -2.3330578648729112
C -2.1283253620057816 -0.5634056567861433 -1.6585573352906045
O -5.2686136346753765 0.5017077954340978 -2.820257924779724
C -4.53227485847305 0.44833005416971616 -1.9519200869036908
O -0.008495734714543693 1.327117480879438 -2.035027163441776
C 1.2228550427472955 -1.64774926278216 2.277958021584629
H 0.20437195181060674 -1.9862592370814327 2.135121116894756
H 1.214267636550455 -0.5696674419655805 2.3978752276264808
H 1.6915664831861488 -2.1372161848431963 3.1217544434185047
H 0.38007975114015463 1.4846859361640166 -2.9095966621644003
Rh 3.8963625624971443 -0.1322225029602378 -0.41606713509000764
I 5.935729244437797 -0.7828252399328571 1.1690633368087877
I 2.2379608420796253 -2.0465992051915025 0.4983375629495344
O 2.273651681111298 1.2381815802361067 1.335949786498388
C 2.709021031857633 1.310269706790905 0.1812205284024537
O 5.203603867417029 1.7114895142856115 -2.3432725409694917
C 4.679573520794844 1.0045510604700252 -1.5971909484239193
O 2.5512391001556254 2.4707988822990896 -0.5056626598838063
H 2.1113799090342646 3.1594166700903505 0.03251759317531186
Rh 1.9103303773340328 -1.0003672988220915 -1.9977881474221248
I 3.9868481411706003 -2.6330907821195284 -2.145176947137342
O 0.20556189090394225 0.18233540582745275 -0.16476300879253988
C 0.6183656500235807 0.28573977720367943 -1.3382864496286433
O 0.35271433806891284 -0.7374994052770457 -4.528542582349984
C 1.001129444549822 -0.9903112815995558 -3.5914220103406844
