36
## STRUCTURE-ID: 6458e8549d7f690db53c3b8d ; CHARGE = -3; SPIN = 1
O -3.1511059274152604 -3.863253323155405 -3.1769943270236936
C -0.42111066841513817 -3.0183341309876632 -0.5217866621160226
H -0.834565293795814 -4.014393638862562 -0.6198382499454083
H 0.3804775012226077 -3.0095892204553856 0.20898995418718452
H -0.04624788405754179 -2.6714755458580024 -1.4819324140945873
H -3.983140839568406 -4.20275350060703 -2.80499263552946
Rh -1.3566214343385148 0.8810062544203225 0.08688374491537723
I -0.8625074903944255 1.0479882085579297 2.752486217379671
I -1.9364152072577303 -1.6866525491467717 0.06307079387462593
O -0.6326793001539283 1.0328025154812028 -2.6937241595520898
C -1.5582154336335128 0.8825578825684136 -1.9015535078110908
O -1.1901199718371498 3.7534847602006347 -0.6860183811336529
C -1.2734759726362601 2.684312284384325 -0.2675068893523083
O -2.8242682789203557 0.8157950679209988 -2.3831026246307236
H -2.8533517796635355 0.939970181076445 -3.3538247723061247
Rh -3.927193647948035 -1.486072326732326 -1.5789353073264092
I -4.465553290630732 0.1329156357577198 0.5268637560154141
O -1.9142325510696403 -2.0449094585284615 -3.345702338624484
C -2.9326568145095604 -2.551807316611851 -2.8765394330695053
O -6.5750327106616995 -1.6990061693144352 -2.9611548906297114
C -5.546643407421929 -1.6516860394857646 -2.44980712456685
C 3.443214482168288 0.7426888803302979 0.5684368288097259
O 3.5642980024923823 0.6373500234162804 -0.6489048800160613
I 2.0388941522953807 3.4829673673462045 1.0457696039204396
O 5.242255448802117 1.9642098348655583 1.5348351927367483
C 3.053862522893926 3.03800753052027 5.06687425440639
H 2.0775494007262605 3.3077750949741627 5.442082655151818
H 3.5859239337781985 3.8372562909908297 4.570524970099323
H 6.084961181589199 1.9603749118881888 2.04057601257007
Rh 1.7973073907532833 0.8430239012306983 1.586800989879485
I 3.0315145157840235 1.2596488267166281 3.9793220226681427
I 2.133139473771668 -1.7521061682915107 2.2390228258833633
O 1.049420231112565 -0.40886279156623484 -0.9999745788517875
C 0.7941818381926592 0.3194593622743629 -0.10090278806800117
O 5.275042688025531 -0.25999553528016495 1.7587029020442972
C 4.733095140721186 0.7573028999620588 1.3819532401057875
