34
## STRUCTURE-ID: 6458beaa0d47f664990fd85d ; CHARGE = -2; SPIN = 1
O -5.5599788377420705 -0.9712336901954722 0.537078683463131
C -3.2186919953977684 -0.37801563587390213 -2.803124010397421
H -3.9371226891993873 -1.0753997458959204 -3.21981520160138
H -2.5825083794951325 0.04396978253647664 -3.573679354557925
H -3.7084751561572267 0.4040286354355294 -2.23163218046289
H -5.797401434278248 -1.9056685772297535 0.41534900700267813
Rh 0.40938975876954176 -0.8398659200724224 -0.017039855075700994
I 2.2229658011273736 -1.7940138296863863 -1.8384667684373375
I -1.947124172552068 -1.486029237888316 -1.4279277950566578
O -0.3101649538761365 1.467837499007029 1.3218649467409511
C -0.5300138691054052 0.2585507360840946 1.3153619300068917
O 2.0947922635832708 -0.37502836151777186 2.253969994628517
C 2.028065192039703 -0.29993890549611263 1.0682201450904227
O -1.3378725060261014 -0.2752425438171146 2.2520682690370757
H -1.7046638898524056 0.40519341890280014 2.8503013910193102
Rh -2.8396537785814298 -2.0771741130343213 1.0445355177038218
I -0.2695561403802133 -3.1084112563476074 1.23186203757182
O -3.8709476838871693 0.37965350950255317 0.9753234403741957
C -4.268524444700855 -0.7754359331913347 0.8685533372479224
O -4.199008605768667 -3.949119193671168 2.9496940845630704
C -3.755946454323372 -3.1863078549657065 2.2062100617065297
I 4.638896042863943 1.5703798691589885 -2.328579098132686
C 3.6741767812596464 1.8919455181056954 1.0943076470531743
H 4.087646758075345 1.4638021650311772 2.017303294376943
H 2.769199538202115 2.4480248956636426 1.3880022617719718
H 4.390308440402992 2.6309171001845084 0.715872420264603
H 6.2215221701738965 -1.7196770435551945 -0.7658747199535463
Rh 3.271540360581457 0.37107711377678454 -0.30462536748275565
I 5.445144360103833 -1.2018473920550277 0.5343336747132955
I 1.244396988460239 2.99136271511001 -3.5605640609429385
O 2.537680563015457 3.761860412632842 -1.0341013060549142
C 2.240562133997519 2.763049380193935 -1.6397495668825353
O 0.6915248780891109 1.1243862768246673 -1.2384856205934491
C 1.8698429605782771 1.4423702063430186 -1.0565472387044568
