34
## STRUCTURE-ID: 6458fd4b15b43f4395406fcd ; CHARGE = -3; SPIN = 1
O 0.655174975629485 -2.0020402877497223 -1.8700220940146288
C -1.45433873609791 1.7962157526636593 -2.2513229058154307
H -1.1338905191893747 1.3279312621297106 -3.1747067079466196
H -0.5904789056679738 2.03120409447488 -1.6404027397807592
H -2.016750780925264 2.701442900948249 -2.446077587175806
H 0.11130294055042743 -2.4505631028729122 -2.539889769323341
Rh -2.3242999380712224 1.9403349425821237 1.3648909432394478
I -3.0124229107329374 4.233296430607586 0.29087729709687726
I -2.70221272913666 0.44693444152234824 -1.1542995698263883
O -0.9056523180654973 0.48563489212474914 3.419444363071722
C -1.604971173311038 0.39728692424074674 2.4049860370611627
O -4.603004509514292 1.1159291543051912 3.089426829466064
C -3.8865546904699766 1.4939317484386914 2.2563063685118285
O -1.9808654064365274 -0.89028484552419 2.0565789792454665
H -1.6680924074927994 -1.5284429646087436 2.7288747708587056
Rh -1.9394529383131385 -1.9341281209126524 -0.4423729094489576
I -4.556820747041981 -2.070046822429099 -0.24458524503211562
O 0.6642530335686355 -1.0667266828273403 0.11865698806999621
C -0.027181039691311158 -1.6328807409673085 -0.7407662653342132
O -1.0759296821362883 -4.738625911086898 0.07406726564517777
C -1.4760952221235741 -3.6780780596835974 -0.1544377265651679
I 2.44383993832626 0.8285813677610421 -2.389273900630506
O 0.0816399273960733 3.090846361569082 2.099030826036298
C 4.660418165904981 -2.6140164013639886 -2.2891473553216435
H 5.622125466048925 -2.172606808402755 -2.4737980588379456
H 4.009782782613515 -2.8541726699648975 -3.1098833727263937
H 1.0582172630188735 3.1437918601442862 2.134283207778964
Rh 2.490161808171521 0.08559042178223279 0.17529280928311605
I 3.7969288018505 -2.2554706205493593 -0.45964668412010623
I 2.764734079760046 -0.617049985046464 2.763417616203934
O 4.622859719084977 2.0989932215684073 0.5648056746061711
C 3.8415625562283857 1.2584013905426075 0.38411584659682174
O 0.5047308995206288 1.7750007124984284 0.3549733155252485
C -0.36871770325502634 2.253786144086969 1.1006037536023747
