39
## STRUCTURE-ID: 6458f37c822d2503e03b2c34 ; CHARGE = -3; SPIN = 1
O -2.7833285744232494 -1.5121299099057752 -4.043065522100322
C -0.21788315234712446 0.14041960940978643 -2.052313096131351
H -0.3521930730940351 -0.025905984146955302 -3.116578871045822
H -0.09199200974854685 -0.8282856004345953 -1.5631684992635893
H 0.6549204516254992 0.771086808302253 -1.8826597519681751
H -3.405545000194646 -0.8898556650273225 -4.458080672502667
Rh -1.788715337661531 0.7468412143596852 1.4017968163787704
I -1.4373091461890792 3.3048566800071106 1.9164585941986252
I -1.9327162370849602 1.0100412578166107 -1.230590687207876
O -0.9633633565215602 -1.8429023803298406 0.600276267262211
C -1.9525608594494182 -1.1340037935222733 0.828129645890029
O -2.728576372951192 -0.41930181700669883 3.97576600495097
C -2.3993693595697305 0.1442567669196133 3.018402861220606
O -3.188511877854066 -1.6567705055544917 0.6059839006006098
H -3.122414207262518 -2.564948030462895 0.24893326377067868
Rh -4.063758895439238 -0.32381950714639224 -1.704207484201778
I -4.789911184875012 1.8831205572644973 -0.40414976222134463
O -2.324839631176046 -2.501391951711083 -2.120200883711905
C -2.9931642434707277 -1.6369843899037018 -2.6826559551746985
O -6.52616648705454 -1.8061737395931317 -2.531052447713939
C -5.602584269732328 -1.1919696434481206 -2.219216004450255
I 3.8870415900137396 0.05351308336652417 -2.9293952530538463
C 2.7291895110365836 2.2927841529308313 -0.7899825803674202
H 2.175716764595164 2.5209140327667696 -1.710594152408153
H 3.719992111683258 2.7435201125427753 -0.8911195453248211
H 2.211710092501563 2.796856574529093 0.035598559928856084
O 4.07460655094023 2.2877289250640747 2.0959644254382246
C 1.1209168403017862 -1.0810528145484093 2.8401605619857406
H 0.47936137677567175 -0.7810875541234596 3.6616458290629903
H 2.1572405271321218 -1.161517412593031 3.1521378372897053
H 0.7705606991017891 -2.0059747294196617 2.393644011775449
H 3.8784982263791115 2.6149034979485957 3.00016423681333
Rh 2.86830917424116 0.20226879171139933 -0.49550866841192936
I 2.907328348455504 -2.4979164480778295 -0.13099989474613996
I 1.0214876601980576 0.4323201227482687 1.3602284798081272
O 3.9249529103122343 0.22257334177375254 2.9457816876633
C 4.09930984923241 0.9761176016871905 2.0067803635515906
O 5.55595012522708 0.2313425089239618 0.26032174069332537
C 4.427810466346842 0.48652623688306246 0.6073646437229586
