39
## STRUCTURE-ID: 6458d3427e80a0280438cc3d ; CHARGE = -3; SPIN = 3
O -2.8478460161748727 -1.0137495649650692 -2.601384446382919
C -1.9122759128731945 -3.739537903429996 -0.3420706459011913
H -2.676618098395072 -4.415166669045545 -0.710961197928242
H -1.2012832646772895 -4.2560457441511055 0.2974338752674308
H -1.3910386042450094 -3.2269953275849033 -1.1461943555264185
H -3.5734768280918487 -1.6640628974086045 -2.6237192465268997
Rh -0.64586495771893 -0.655096573836225 1.7729091300327378
I 0.4226523511450688 -2.8377514690924652 2.7732910511014444
I -2.9221240240655835 -2.2350585962646927 0.8946944652627072
O -0.702717953396895 2.10497616467033 0.7452514739274816
C -1.3370006238576306 1.1233282743208364 1.1352986554554878
O -1.5381414718705488 0.7445138270252795 4.2332264495597185
C -1.218818008637663 0.06440776540518928 3.343654799579712
O -2.704691845760136 1.3541083572962904 1.3440115448112953
H -2.926443372628804 2.28188598947137 1.139414888377797
Rh -4.27711236830498 -0.2696976187288292 -0.14538380539686702
I -5.8125491516428 -0.4546912280673024 1.9873150913159254
O -2.0871590393017794 0.7473408851915361 -1.5042005532734573
C -2.9521609572287484 -0.12357810142454123 -1.5652524179444476
O -5.774975354034069 1.5132858063434265 -2.01718341969661
C -5.283805914426522 0.7774766667377423 -1.2627899501933204
I 0.7043661700294302 -0.8058610440323091 -0.5029828407203519
C 3.5078484008919437 -0.09562328508356273 1.8455672202073574
H 3.9928436910074985 -0.26064903395655536 0.887617016747604
H 3.018710618908074 -1.010070265027696 2.177831211215832
H 4.2680506503835085 0.17996334570177988 2.575654466818053
O 4.303171288328754 2.255237308379676 0.8376567998367748
C 3.411150271523262 -0.47005383544371104 -3.572568541787904
H 2.95714578495821 0.10472559897914543 -4.372029818798618
H 2.6971259475803584 -1.1591253071850895 -3.130212209645827
H 4.3201535208687725 -0.9686965058916126 -3.889691338029987
H 4.560891977859546 3.1346810707204416 0.5132833953725099
Rh 1.7239551943052482 1.7132160609681986 -0.618259783159816
I 0.7247492661913935 3.026972816740237 -2.7443707699765807
I 3.9689545800249104 0.9412165063121157 -1.9973715766471216
O 2.2834457757331426 3.3025623361414707 0.8863353261131495
C 2.9288103428788963 2.215004433441087 1.0282378800281777
O 1.4846202753212931 1.0356709333977758 2.5320686724839008
C 2.5074576593931126 1.0409368233760978 1.7958735040213887
