34
## STRUCTURE-ID: 6458bd389d8e666f5c6a3ee8 ; CHARGE = -2; SPIN = 1
O -1.6835748398372812 -0.7330832139494868 -3.382702896041587
C -0.6124036303113003 -2.6307057038806625 -0.6017463703743733
H -1.0188811344796815 -3.612768794651065 -0.8179483360289592
H 0.15937725322657156 -2.6897827469500113 0.16424775759506519
H -0.22319858302306886 -2.153666763566723 -1.4981497340903618
H -2.158202961825953 -1.5710860792067665 -3.520262541683509
Rh -1.1159516963178742 0.9091137289524027 1.2833252842081573
I 0.3383475015444164 -0.5936492079923028 2.8890783643803455
I -2.26983134688011 -1.3941557224088312 0.19058912011815712
O -1.7299389600449526 3.2985038854492954 -0.17804666706124855
C -2.1262395557066167 2.1873473534526555 0.19939678209401712
O -2.3753383897420335 2.967509684796937 3.037896336517633
C -1.8462235053353193 2.0655497436685284 2.497003154602429
O -3.48261178597083 1.9235564692401597 -0.02472350359503022
H -3.9020048616487184 2.699871468837903 -0.4386363594697859
Rh -3.921085492829338 -0.3166715862601614 -1.5163104526122166
I -5.920618542257907 -0.7482330294383013 0.166887720680243
O -1.7912273431800672 1.2358279618899597 -2.397801888524041
C -2.345574177209228 0.1424856275381315 -2.548256214034679
O -5.217795022001071 0.4453951336962057 -4.095860738578841
C -4.802267409998345 0.07762931965929992 -3.0698883987277137
I 3.838673504882745 0.04231361732956403 -2.095693972058872
C 4.216097783833513 -1.4634238577611824 2.214323195401834
H 4.34730121312244 -0.620500830628975 2.8898453845463195
H 5.191140581613757 -1.7558608134797828 1.807158680721944
H 3.790135855150056 -2.3043669773524256 2.7679407803495226
H 6.771278506104979 0.571932923055506 -0.049606988185101356
Rh 3.200014867171425 0.7302007607913596 0.29785641421223075
I 5.709567519421532 1.3757804407486887 0.866780349868397
I 0.687306170365285 0.9142848405678922 -0.6696159040993833
O 2.6109693048859604 -1.9091204437888427 0.4612232604972284
C 3.3067244392300954 -1.210347803482924 1.0966119352972528
O 1.9225491419237424 2.47653056913775 2.3327750682130866
C 2.4534855961232105 1.6435900459862822 1.7423113758617401
