39
## STRUCTURE-ID: 6458f325cab7cf45042758dd ; CHARGE = -3; SPIN = 1
O -1.5476374872813425 -2.966151218751118 -3.445760896776879
C -1.1788865104762605 1.2036163967436684 -3.168713057001335
H -0.508165440639142 0.4326097844413228 -3.5326984614303947
H -0.6215694338199765 2.077487199324062 -2.8527582513609913
H -1.9327842828171478 1.459479204084496 -3.903777709549615
H -2.442199918876603 -3.281136622908374 -3.2192094484193685
Rh -3.1729717959665322 0.7732138720252026 1.3618607484050358
I -5.247149260636461 2.2494277282040085 0.7092932837217988
I -2.1984459279844426 0.39455460933981357 -1.4197352228866225
O -0.3880499102626942 0.3061303063106029 1.641433587584834
C -1.5068505380957253 -0.22162209537932065 1.7575672552992059
O -1.779380322854462 2.6937438878926923 3.1600600398128154
C -2.399138621733517 2.0246613707709664 2.427185640314456
O -1.5747307803838857 -1.524366809294421 2.1907130250028115
H -0.683302819254233 -1.847119489467729 2.4771039643043316
Rh -1.634362319081535 -2.1101221338814073 -0.6788426481951184
I -4.275573660200625 -1.5291497881764438 0.5312731574755281
O 0.2368192318113255 -1.8925434327533364 -2.7353646432971144
C -0.8421606976016979 -2.376538424307827 -2.4721545868665205
O -1.8446979978282798 -4.997374072739622 0.07168421122764293
C -1.7824219943284725 -3.931574748430665 -0.34385792526003517
I 3.9383240979030023 -1.4862071335720406 0.23308062162281512
C 2.2530229644731254 0.5468802699885288 -1.893308027295765
H 2.2187987588949105 -0.4415484248519624 -2.35055042119345
H 3.2778757990622216 0.7523228586261201 -1.5886621318616523
H 1.925138406095178 1.3024329792895797 -2.6077900422584204
O 4.110913026059274 3.1997321293297603 2.5571548425122286
C 1.4934719627713908 2.5835712021399115 2.3502946027276646
H 1.9293099797752526 3.5376021804137494 2.6002990939338613
H 1.0110123810921874 2.14049401901274 3.217853693253715
H 0.7721359367803936 2.6849430862014816 1.544650820289791
H 5.061691086366345 3.081982753312173 2.5248729066619764
Rh 1.4911069644001662 -0.6562865358159994 0.8595235891649341
I 1.6667669774877125 -1.8884092136716937 3.4009906510599315
I 3.036757913382735 1.3188464808751954 1.7023223375227667
O 0.4527367876723886 1.4301766353547938 -0.6228979440120782
C 1.3385105343958708 0.5846886990526535 -0.6904274465621703
O 0.8653295461725309 -3.370202149833753 0.0975181554799066
C 0.48075736552678955 -2.258245358897865 0.10977263684960978
