37
## STRUCTURE-ID: 6458a219171bf87f8c7a4307 ; CHARGE = -3; SPIN = 1
H -0.7604805439458555 -1.6674623803320279 -0.616974033679441
I -1.1146365752840988 0.20707011114477175 1.1311671830874104
O -1.3159625075480599 0.9691243845419629 2.9056072990397768
C -2.301982235117462 -1.32229220803488 2.0946283188880246
H -1.7813639778787254 -1.6276275617792648 2.9947454944333383
H -2.4002274128575207 -2.142256037978546 1.3932466844764766
H -3.271719536574922 -0.903873803295658 2.347011392967354
H -0.7556467800177873 1.7420927289735395 3.017538146919921
O -0.4912690916938824 2.4527156139768995 0.907022434172898
Rh -3.1133689727283773 0.8459673563208048 -0.42163067444641567
I -4.270636541780585 1.720753491058364 1.6720806426771753
I -1.5517810498675961 3.3875233962491804 -0.3754447470813055
O -1.950767746963702 -0.46824857623408156 -2.8444040891101747
C -2.3240601718403493 0.008000857787707918 -1.8685791048929445
O -5.554928237270676 1.169411835754102 -2.1024910664589744
C -4.639074104250022 1.056164983560992 -1.4304390208971844
O 0.4689349872292565 0.738217788421033 -3.323183367876368
C 0.7558136091127051 -2.4341875012001597 2.302941459500623
H -0.15422581053851728 -2.6739181543561683 1.7693153066399048
H 0.6610391076622484 -1.471183452854353 2.7941130910727554
H 1.0480572810649675 -3.219157185843743 2.9907772239129167
H 1.0471632770168686 0.39310874653167444 -4.0235216629324535
Rh 3.6994505064498426 0.3169608576131841 -0.07769631432664269
I 5.367994294212831 0.8741964023810295 1.7915643245458819
I 2.25897542857065 -2.2162776311801493 0.7924593812261101
O 1.512683471709093 0.7760658372026802 1.5628525223232548
C 2.2701034802915894 1.3085717887438528 0.7288331395810032
O 2.899659770962961 1.9433295734456635 -2.367898037131321
C 2.95675263594758 0.9499778617860113 -1.71522246462362
O 2.0487936653300607 2.587663503642301 0.3707955445193539
H 1.122252961110006 2.8213411628286855 0.6653619071824401
Rh 2.291536089591871 -0.9663231552483224 -1.8191633950502204
I 4.806881444323101 -1.8446337055494106 -1.5243431964991163
O 0.1281920419525284 0.8388509251229829 -1.172209057778535
C 0.8067746619471884 0.28818658560756216 -2.047725932468234
O 0.3549035060854926 -2.419416049123689 -3.566623187587785
C 1.246169075589415 -2.0184383896848477 -2.9345121443260784
