34
## STRUCTURE-ID: 6458ed0480d4482416415b2d ; CHARGE = -2; SPIN = 1
O -1.074230420261562 -3.2267818762398752 2.004086262963541
C -0.08920214451763923 0.8754213809063819 -3.0817300766655515
H 0.1805127034826904 0.13006555691166402 -3.8369169307670914
H 0.5333668032164065 1.7686209848995262 -3.1858081420205697
H -1.1394505214293214 1.1491620488061143 -3.1874612771422313
H -1.9863123672977692 -3.0609113232516023 2.325736151799362
Rh -1.72213855574238 0.7387173468262324 0.5554100364561978
I -1.544072534744927 3.0891480034679515 -0.4719976390370445
I 0.147550831246516 -0.11797192029543183 -1.0447979010930348
O -1.0051458383150627 -0.6997575102454152 2.872563233734395
C -1.6976270814806937 -0.9071960020740992 1.7977041931561637
O -3.773825617985592 1.0753384626454587 2.6617322958580494
C -3.0548490497919736 1.0251284698126668 1.7419191297297878
O -3.019978932123625 -1.6214666472620451 2.2188993280024243
H -3.1995682174524753 -1.375180369207739 3.1318989416426546
Rh -2.101703225058337 -1.6213498789554304 -0.2568571373066704
I -3.4575074430720076 -0.7029689042286322 -2.2395486871102914
O 0.3731203803683053 -1.9877123712635447 0.8685584011009417
C -0.8290058035179014 -2.139742885062237 1.1983566791268734
O -1.5221451174634881 -4.52273518002472 -0.42896904366242455
C -1.9041330288864178 -3.431905908998458 -0.5806691793371493
I 4.741736689669687 1.760872209928367 0.5243282975669213
C 2.1769018071675625 2.975846437297574 -1.0845093423008285
H 1.2669372837050106 3.009509858590359 -1.6855617764161652
H 3.0611874400350305 3.2586323531140766 -1.662618865600071
H 2.063200563647673 3.621728156424747 -0.21143980908674806
H 3.9213932711300337 0.9166419707960815 -4.03993949241731
Rh 2.445930722410471 0.9929897058390723 -0.40007756870709804
I 3.068151039791686 0.10653626380250579 -2.7853461671447812
I 3.119042703006671 -1.6879597713164294 0.41378803813337467
O 1.9809492431263522 -0.9237731424450694 2.9678365702718468
C 1.9740532732987026 -0.5648627547708343 1.807710493865094
O 0.5602273314700784 1.348080214887167 1.8110812561622747
C 1.506633812368327 0.7498370206856085 1.2826397262451519
