39
## STRUCTURE-ID: 6458f5bd64e8ea61f65ee8cd ; CHARGE = -3; SPIN = 1
O 0.12423140436791574 -2.5079383032080127 -1.0516106205971325
C -1.3279910774165065 1.146053169724634 -1.732518753624897
H -0.5195321230271188 0.6210157120700502 -2.2308326876713185
H -1.0157232244315026 1.4459982753024962 -0.7325308226316797
H -1.62509949963279 2.0216844117117696 -2.2977248719600327
H -0.3291014033329135 -3.117847323415471 -1.6600064130227365
Rh -4.752439445487486 0.7110154512670426 0.20407182985790062
I -6.325685823708363 1.6284768008250017 -1.6761673461400892
I -2.9611694136004783 -0.1479206212128677 -1.4705770781624403
O -2.411936361284524 1.157092150951334 1.811859412301314
C -3.3144052645700812 0.36090164283083 1.5197145843233957
O -5.896713656987658 1.8435114544216715 2.703884567789464
C -5.56263228637628 1.410810941973249 1.6787771191470704
O -3.3134473881810997 -0.8632773399189156 2.160775592361997
H -2.629223688804934 -0.9063994341377011 2.85490828895257
Rh -2.6279303320701013 -2.3069330083420847 -0.11669020055992324
I -5.2371270933591765 -2.2354022472851898 -0.6032823965166301
O -0.16004171551003316 -1.2853128648410501 0.7739889215937864
C -0.69265614593183 -2.0132717366341777 -0.0683448108516651
O -2.0072566134377925 -4.874157888534917 1.2708782044343216
C -2.317621123803805 -3.9221829592150264 0.703085533831472
I 4.271998445034353 0.4076706796018576 1.726378422831482
C 2.8183142540842345 -2.303509027831857 0.49842618143970263
H 3.1744545202462695 -2.193013972548414 -0.530283619245675
H 2.0612397258081336 -3.095459158613142 0.5268911517061211
H 3.6511096045894513 -2.606469731060127 1.1375907489245507
O 4.1599477516978745 4.747970949661539 -1.0180923434371743
C 4.2671476479370085 2.013769342038901 -1.6666803371969883
H 4.515891160311987 2.7072752262754163 -2.460405393237366
H 3.7290338677394868 1.1509455156682054 -2.041088480185111
H 5.142740728121865 1.7158797604294154 -1.0987496160555412
H 4.85350355473043 4.998574369382123 -0.39939611262417873
Rh 1.9257720674502945 -0.5615041832916624 1.1895531029704245
I 1.4975040511419682 -1.4909214524654948 3.666123483899096
I 2.9577753833045577 3.0619386927990035 -0.33288116176599597
O 1.7799685625346588 -0.08058611287173906 -1.7973747571957484
C 1.7118956532190919 0.23135399842239243 -0.614825679632681
O 0.7947727957489207 1.7287296718491758 1.052928560391705
C 1.590432502885805 1.4014391482215818 0.12022779555862788
