34
## STRUCTURE-ID: 6458d57d059339041b3c1cdb ; CHARGE = -3; SPIN = 3
O -1.957122507326341 -1.9062234009983454 -3.7601615021562487
C 0.46616580941693375 -2.5153917893630635 -0.5067627101835249
H 0.4330369151816374 -3.2368719938099657 -1.314341789281164
H 1.1343393176240886 -2.857955642718389 0.2791181734882271
H 0.8153978956164911 -1.5530691892766553 -0.8873255811597502
H -2.8148098149837617 -2.3627549774502374 -3.846198614420861
Rh -1.6275735636367874 -0.4448218326037889 2.2199575325893144
I -1.6376500250254415 -2.2627480135892015 4.14989699239796
I -1.4145070344792519 -2.2068445183167498 0.29122729062799463
O -0.2909542329535099 1.5780194771938523 0.7078290045273448
C -1.3424028214211272 0.9500564452112646 0.8046266504440893
O -1.7094329746853685 1.8797126685844083 4.081606669677247
C -1.7427310674350653 0.9628604685510951 3.3943196269130826
O -2.3600663412445075 1.215857666704546 -0.044759990211811235
H -2.17572445241757 1.9799909760661203 -0.6291127478954848
Rh -3.1788368397689113 -1.0415971785695024 -1.221102383088534
I -4.288182942962175 -1.3019535990582751 1.209965158185107
O -0.8555038830747838 -0.4353463999826115 -2.5338109109772695
C -1.8831880074566685 -1.083472751717295 -2.6909280341234307
O -5.46166767044613 0.011201721669698449 -2.848730153748289
C -4.577431499634623 -0.4287760768682588 -2.278317246471539
I 5.31636711247655 0.8372116594284659 -1.148859788379986
C 2.4142523647863423 3.3158286918231963 -0.24458428660117448
H 3.453108224990355 3.6272772661545885 -0.14055768083239972
H 1.9018608564167983 3.5117496764389466 0.6980849838256897
H 1.9277122875277686 3.8588009407434476 -1.0537362188412593
O 2.6868500738797936 -2.9845150259000994 1.6004005458678754
Rh 3.317328224832828 0.4380235255041629 0.5025091710660532
I 4.314634791971417 1.9308319437916737 2.585612970934421
I 4.260073392250608 -2.0620024044749883 1.0631303230881026
O 1.019377301098058 -0.5611504278217464 2.126057488374469
C 1.8142451832433708 -0.0673463888229387 1.425233017696769
O 1.705488071956765 1.3819828870910646 -1.4661326709407758
C 2.337547855682204 1.8334355963855498 -0.5241532903902507
