34
## STRUCTURE-ID: 6458c031c5747d370d591c2a ; CHARGE = -2; SPIN = 1
O -3.1497967539523994 -3.260094637923089 -3.0435443614203774
C 0.17014482994418875 -2.4316809553048966 -1.3101760916879295
H -0.39799128057426864 -2.669520152764788 -2.202305116413691
H 0.6975579682023301 -3.296372695412265 -0.9251637049980039
H 0.865202815396984 -1.6268851534879507 -1.5282421796938703
H -3.695358898351595 -3.866014379133117 -2.5155256397095385
Rh -1.099245707279319 0.7914293377825105 0.9907073540576201
I -0.2426598890233209 0.2555164404862193 3.5137173675808353
I -1.2012220492687118 -1.7316288781566833 0.15028788139777022
O -0.9853528727573887 1.9533613524218867 -1.6629210777225139
C -1.679917428386202 1.3462928078391772 -0.8616422956750939
O -1.1343018929167592 3.7533978488751787 1.266158222626682
C -1.1449410341900097 2.604267764380635 1.2467265537745906
O -2.969488309602946 1.083332762247167 -1.174253412414713
H -3.2118425713028023 1.44333764193195 -2.051146885383032
Rh -3.6342916521803237 -1.4768106399499046 -0.7252621425611703
I -3.822367756117762 -0.31767858108187036 1.7148577422086309
O -2.358212910068817 -1.2025165905317883 -3.116512251285338
C -3.0329277940916253 -2.019256562376069 -2.4951061162622508
O -6.504515241465794 -1.9536756185790238 -1.4415329618150248
C -5.39739532985229 -1.784421371666698 -1.1721637191786212
I 3.9278328719701103 0.585051300628542 4.0221590851086315
C 5.088938503434998 0.7418013564473478 0.7127235046657039
H 5.523287280903757 0.8409148697425753 -0.281477801862199
H 5.106316112193208 -0.2944571887604013 1.0400948231456237
H 5.678902211750777 1.3299691375619758 1.4183435225640582
H 2.5737027244866377 3.572711437690363 4.165743103168522
Rh 2.2532783715882005 0.8065518138421224 1.9444214715968966
I 2.0131256970612923 3.54616042163527 2.664849050345033
I 2.4530767616274223 -1.7955628344646106 1.3775109721405185
O 3.4108977204269406 2.2420561094141016 -0.06668100513332781
C 3.7100247910742223 1.3386245872128448 0.6838080574862405
O 1.1884170815034445 0.6650459720353816 -0.7493930974722941
C 1.0011236298174844 0.8267532774181473 0.41094114882154203
