39
## STRUCTURE-ID: 6458f471e34fab25524b6496 ; CHARGE = -3; SPIN = 1
O 0.25108160701198146 -1.1832064506082425 -2.0625842771734395
C -2.259257155283168 1.2983127967775248 -3.265586757135555
H -2.527158612929705 0.706026917730904 -4.134030470552348
H -1.1854337364293392 1.3235248288325827 -3.105222748575061
H -2.662058962331195 2.3055949466384744 -3.331133531277877
H -0.28130352316488927 -1.3972491221785155 -2.847902980191499
Rh -2.5309968015677784 1.840611029819673 0.6127463963210318
I -2.8667201139086234 4.077874895452823 -0.6772476666644881
I -3.1708115909568413 0.3562759630039779 -1.5046685538734135
O -1.1445749885477507 0.21994293081934457 2.513196870634402
C -2.0526175253431584 0.2544593089333355 1.6812811887308612
O -3.357571110893618 2.494668397686632 3.401440568368489
C -3.055905262273554 2.3632947390174674 2.2822947848603117
O -2.828053407250951 -0.8928432352183634 1.5734843706061112
H -2.583584468384151 -1.5405595047824243 2.2650859130787864
Rh -2.2825951800646918 -2.0044099752368276 -0.8291269238041161
I -4.766350206865992 -2.8085764294544178 -0.6813940537251011
O 0.19990482991454367 -1.1018268576912744 0.14977774527082557
C -0.4397882989710802 -1.3470971738471387 -0.873842839376347
O -0.583984618351562 -4.443294177701772 -0.6860350436928037
C -1.3615430630886936 -3.5779418586686984 -0.7626960669802257
I 1.8685775337518913 -1.6013124319024004 3.048913990415221
C 3.7959233499582394 0.8472978088476677 1.8147892847786427
H 4.627237343871226 0.15145787909721084 1.621477224517489
H 3.698001178948657 0.9768660566388274 2.8972763649152387
H 4.056835420431817 1.8226938943608493 1.391546195476824
O 0.781528481963647 3.4667968737858255 0.09477130331486508
C 2.8843938907041697 -2.8942554753897283 -0.6071443730578708
H 2.0851891171848664 -3.4792270275497614 -0.16495325768127267
H 2.5629637277367534 -2.4511605246880213 -1.542296870599715
H 3.210895634517569 -2.118369665235021 0.09153159863104436
H 0.40307889765412 3.910909845699699 -0.6966316024613943
Rh 2.0769817353979194 0.040709539600562956 1.0005113732817623
I 2.849312516317773 0.9226612748258161 -1.3262089367426446
I 4.518334340126155 -4.155306723160486 -0.9877001848512968
O -0.37439590077634893 1.6691468051371587 -0.5709899417407609
C 0.3728792512255453 2.2063244752460553 0.23892258551965032
O 1.025887514908694 2.1492442948091477 2.530406621998723
C 1.0456981557573466 1.5919411305511728 1.4479426994369862
