31
## STRUCTURE-ID: 6458b97dabab6e7632706a1c ; CHARGE = -3; SPIN = 1
O -4.195585843160302 -1.0086074282098498 -3.167175329130568
C -1.604951750239141 -3.9311609027502588 -2.3982874593120904
H -2.0798469401943964 -3.6061765994344825 -3.3167213415575794
H -1.362390422840543 -4.985819970937751 -2.4196868461510386
H -0.7283638619014386 -3.326395366052654 -2.193477054655113
H -4.998900958090814 -1.4093034604004024 -2.7891703584176533
Rh 0.560045241706557 0.41333263831079814 1.6406293536699983
I 1.777082832770056 0.9694686151369692 4.017046075249665
I -2.971611102167551 -3.5743115085648234 -0.7709983819846576
O -0.7080343035736522 -1.3160688769165063 -0.25776447221758775
C -0.3464066152848826 -0.1607020592827564 0.02038333056801734
O -2.3863481409631713 0.18347854553885928 2.0241076096965256
C -1.2213194909898004 0.3470455321361516 2.04710941537431
O -0.6188495143043841 0.8420209845590227 -0.8599133670169469
H -1.1819318698170624 0.49104802952302556 -1.6128204976747458
Rh -3.697265649030711 -1.1241255560179828 -0.3499143376431822
I -5.120097909442534 -2.138562781882807 1.6553163793832282
O -2.243447991297992 -0.13411959501093257 -2.7027325385670085
C -3.246524088643863 -0.6625312459981806 -2.2076301750919276
O -3.980474883635277 1.8332217062661122 -0.13493652101647327
C -3.9731121513258243 0.6658716404388711 -0.19222008468104304
Rh 3.8267795954010486 1.7501324783773746 1.96800334500222
I 5.810673087834324 0.5629421193100448 3.195596903921453
I 2.9050007595866103 -0.599935386808987 0.7500835873512393
O 4.425757623053893 4.228529776854686 3.4776021570551867
C 4.220843053874787 3.2868886257977645 2.867600125799569
I 1.6563677989700432 3.011918638994588 0.6913569496058669
C 5.201256497595964 2.2907349009761306 0.45422828990564484
H 6.086238958182122 2.7771943244688515 0.8633197676411215
H 4.702760068462649 2.958444663953142 -0.2500025380150941
H 5.492657969465314 1.365547517625927 -0.048931987091324326
