34
## STRUCTURE-ID: 6458e8c894565623080db824 ; CHARGE = -2; SPIN = 1
O 1.8198629234775114 -0.8082837325090877 -2.282976445681375
C -1.1305815114190758 1.5881505468300419 -2.8287528798939614
H -0.4638870383713837 1.2155166887684579 -3.5985118860319045
H -0.5757336627820336 2.2224765968557763 -2.136978243911307
H -1.9451326920517749 2.156103532173582 -3.2646816314025977
H 1.7098732822412965 -1.5725062513933379 -2.8718414350358583
Rh -3.111557494378322 0.8059749664124414 0.4635308043762388
I -5.5266775547519575 0.9436113341932301 -0.632756872021895
I -1.9411143298671192 -0.011657307048264969 -1.7202934658768436
O -0.49748927998606707 1.9921740948999866 0.5060437732928565
C -1.2167704058946536 1.0872871012757894 0.975355698722854
O -3.701116807189323 2.0105200240604955 3.121072072603624
C -3.54077386050601 1.5222873631476441 2.08263285818719
O -0.6749270600710291 0.17853226455443344 1.8023232666074658
H 0.282708978344622 0.32151199661007074 1.96970057985696
Rh -0.45846500441562094 -1.954966926717811 -0.6762625416662054
I -2.9348651811554842 -2.330332669954714 0.28735817677759257
O 1.3583673581409144 -0.06451547840467892 -0.2499750618767392
C 1.137317089942764 -0.9301988440884199 -1.11052688849908
O 0.7582357657339239 -4.68905272733876 -0.7655846951131429
C 0.3143872708510793 -3.6330320139025405 -0.6958364734064092
I 0.9379608718016019 -2.633994536304567 2.4453465939306045
C -0.8591832016506413 -3.505963230173049 3.260583673852303
H -1.2786907466851676 -4.157592859872911 2.5039709021044882
H -1.5459659238513455 -2.6951222232261953 3.467061579921716
H -0.580862234161895 -4.0389783913167605 4.159600436373344
H 4.511322231669573 1.2791158030395537 1.6350428044966134
Rh 1.7614384141427557 2.1043269979182684 -0.3316351936993027
I 3.146820910332354 1.6336725617277656 2.346038686052627
I 1.7526292084223134 4.699127352483319 -0.26180626226532105
O 4.55795356142941 1.4293070241612096 -0.901956953845596
C 3.436850852421115 1.7519081518272637 -1.2367764609915834
O 2.036257045294548 2.114306071129141 -3.291871121543959
C 2.4618082249431006 1.97028672018261 -2.1666373943933985
