34
## STRUCTURE-ID: 6458f6978e9cab575e7c6103 ; CHARGE = -3; SPIN = 3
O -2.6170485511292063 3.224045077380188 -0.5319817850004134
C -2.176779816080921 0.9353491918517608 -3.505529913984474
H -2.048156267290529 1.828711576434988 -4.10682455215061
H -3.0759140756954197 0.9737264534048595 -2.8976207836849457
H -2.1724875878330647 0.037824467084504376 -4.1176611964028815
H -1.9206120132774354 3.207444526018883 -1.2126087728841162
Rh -0.9146886479131888 -1.3143750763185609 -0.5799858899415187
I -1.7279341397924457 -2.82741924579192 -2.663304836876566
I -0.4700177719915308 0.8104448052385752 -2.1252947677827576
O -3.318389488986503 0.10865903710275646 -0.4775873902657877
C -2.427430801794673 -0.27616069985568803 0.2995675604191477
O -2.060598932320794 -3.250040765712167 1.3416116951854882
C -1.3648338825571458 -2.6198678399036646 0.6484137145862897
O -2.808984336443419 -0.49899919454246155 1.6086374223631543
H -3.7442380566656652 -0.24535964595927548 1.7221877399699603
Rh -0.8643227069529534 1.2303958896970157 0.8026244946547826
I 0.6054677855439167 -0.25920425937700825 2.68593304026618
O -3.240603182555238 2.398997389929687 1.4153234649205224
C -2.4100871184704773 2.4161325082104774 0.5245916160583803
O 1.1609824530676938 3.3187770083474946 1.477209155241002
C 0.2387511865367344 2.6604243022994405 1.2288358501832821
I 5.377378425233346 -1.1268405230810254 -1.0390090739509599
O 3.7669941336519925 1.8261555394370717 0.18275093104217652
C 0.8342511181831743 -3.7388005289301156 0.6576960026612734
H 0.5493676119557804 -3.273551813822247 1.597938167165193
H 0.05554702973324563 -4.288653755963095 0.1420883724203699
H 3.512257236487802 2.587869388803006 -0.38034210977144106
Rh 3.44015862320945 -0.9189965087426726 0.9461458004739453
I 4.083963838751515 -3.1378399379177706 2.3169636206041404
I 1.7633878672477012 -2.3300436155622943 -0.6401602912706584
O 1.8772492563366272 0.9782830439831358 -0.5971976650377638
C 2.9012522183566682 0.7988139765226955 0.07551920370653814
O 4.872932054845072 0.6907695852851632 3.002407635442217
C 4.323186538611394 0.07332964444901353 2.198663541640842
