37
## STRUCTURE-ID: 6458fc032000cc06fe63d63d ; CHARGE = -3; SPIN = 3
O 0.4449623996673687 -1.5781202617578969 -0.8674837132736165
C -2.3282377093082394 1.724271405033647 -2.624660786386852
H -1.8479118792088225 1.3998322548610491 -3.5397629454772446
H -1.579120975266995 2.027260266544203 -1.8959130687831223
H -3.0185723487095033 2.540516507983157 -2.8038670741923926
H 0.24452736041643844 -2.5280527291912924 -0.9465072840792256
Rh -3.616738573280046 1.1985751578205086 1.0539581405007645
I -4.57019382599525 3.397243928466833 0.04778784227858694
I -3.4046517945062025 0.08568784301778326 -1.7741535239162998
O -1.4135325931727796 1.414605146175146 2.1880897627847173
C -2.2805333599441906 0.5231662509854217 2.269504825502686
O -6.023475555913491 -0.15791651747183005 2.1360014515489385
C -5.0619383342157125 0.31567838906198137 1.7039685390887012
O -2.2016958235474897 -0.4182973129534459 3.2356309136322317
H -1.4334777099868827 -0.27886202978073044 3.8227715327391083
Rh -2.405992562641045 -1.5166448509015316 -0.019376144866701375
I -4.75407731662499 -2.5973631622496662 -0.46129396527608346
O -0.3280207463818436 0.4232302398764952 -0.31713139983136573
C -0.5923388384080713 -0.836465164868412 -0.38870032222941603
O -1.168139572701978 -3.255484349499743 2.057180547285825
C -1.6972075904222235 -2.652051475491159 1.2235357972483902
I 4.501069603585861 1.4007688618166443 1.4338930946917796
C 1.4537142336476834 -0.19403553091551637 1.964162451171574
H 0.6457403148551408 -0.9571208343605483 1.931372701001091
H 0.9608189064913719 0.7734493399154176 2.178914473456675
H 2.0632621079184976 -0.437037560936951 2.8541728453651314
O 0.994458328021823 0.6773200891396469 -2.1640289916262385
C 6.029233698879098 -0.5653639254877783 -1.836414384074778
H 5.997225672877867 -1.6091469120929844 -1.5399476928970057
H 6.433754581436741 0.04817138770484669 -1.0370581066164393
H 6.570569267497632 -0.42500540855435154 -2.7640974333315094
H 1.0924412256979064 1.5394076115033941 -2.5954570758160833
Rh 2.5821911935569704 -0.07012634121159826 0.17491561696186825
I 3.955763287206106 0.08669343572310712 -2.1758725498417393
I 3.5492686627676004 -2.5467435277570742 0.6160247734704942
O 1.1954502772338924 2.1333731652666774 -0.40755731752523194
C 1.0114059884778208 0.9145866145865785 -0.7326015286872876
