34
## STRUCTURE-ID: 6458d0617ff83077c02b2de1 ; CHARGE = -3; SPIN = 3
O -4.2164090516671875 -2.389997284328226 2.6889715124504203
C -4.5347038696652735 -1.5509297450640163 -2.32621351324231
H -3.9065763549732515 -2.423991283334254 -2.4790392160444368
H -4.538336420974785 -0.9146550766579002 -3.2095660281906415
H -5.537608628801207 -1.8125138260649463 -1.9987528294728762
H -4.669122058930003 -2.7636769843789972 1.9105999329209968
Rh -1.2983710509680837 0.8435467615455859 -1.3630801890110185
I -1.9359150488810166 0.8160289038807073 -3.91663501149878
I -3.6249442157818335 -0.36992124191442033 -0.6812406839838993
O -0.7827070128140321 2.2482791138540756 1.123310334778046
C -1.0539013030701323 1.1648878753027156 0.5916987972223503
O 0.5100383525385569 3.2127008005349436 -1.4792500836428488
C -0.18070532553611496 2.277227519956678 -1.5256266753168826
O -1.2511286349371127 0.10757934954905263 1.4648081903343537
H -1.0841568900490126 0.3573350876962089 2.3950797360434133
Rh -1.9146956327808522 -2.155228661104712 0.8313817462764662
I -0.07150174061731963 -1.7747102716568741 -1.1812050685080882
O -2.306006237321422 -1.5653539273851442 3.4208773806760506
C -2.930438502322233 -2.0738193400892397 2.504257596457075
O -2.0820771237128954 -5.114185529077504 0.5034296339464668
C -2.113078437777527 -3.9812773139056388 0.6886975093374077
I 2.7453858103796294 0.9984409576202524 -3.131414827570367
O 5.845647117845202 0.8109438429259969 0.9862835865145277
C 2.307949549025971 4.336782610466647 1.2998293152050355
H 2.52733457470302 3.771549778332626 2.2182021892553907
H 1.2820817595480858 4.060053903041653 1.0015064884945997
H 6.827972879511374 0.8322567099195727 1.035509388223632
Rh 3.398561648365951 0.8222021690837734 -0.4630869976168942
I 2.307262017448367 0.4335364214856569 2.055479729158404
I 3.5956553533508715 3.4999016180363527 -0.21661588096544282
O 6.197802295523328 0.6852750460423177 -1.205530163841632
C 5.406368338219458 0.7398859842805238 -0.28078638882264795
O 3.5734084918850226 -2.141369513214513 -0.659655908690655
C 3.5069153532371904 -0.9867844553791439 -0.602223600876184
