39
## STRUCTURE-ID: 6458f14b69074348f2378240 ; CHARGE = -3; SPIN = 1
O 0.14617993091892545 -2.147900434697227 -1.3891004533912497
C -1.6108716081657988 1.4177932185465252 -2.911497070996907
H -1.7427480848383723 1.020117934235262 -3.910785456464518
H -0.6164125052830199 1.1964724483046998 -2.542565653715029
H -1.7624065753596605 2.491793264584826 -2.899721992664526
H -0.2838583735116312 -2.858660639748235 -1.8926977564655216
Rh -3.9117613106992426 1.8556431647233798 0.44730632686831406
I -5.265135180246977 3.508616364404324 -1.0785667409496058
I -3.043836339762771 0.5242784871342353 -1.6060202725798807
O -1.8650922328308808 1.5272340369199144 2.412893073922895
C -2.6905988102774323 0.9288490754047829 1.715054341347256
O -5.077168242209709 2.3521403397130833 3.1377514619733886
C -4.68648244256614 2.239703749699567 2.047526541468086
O -2.821396710336033 -0.4260232242634712 1.9677155568209237
H -2.274053900579907 -0.6827680922162773 2.735200646784229
Rh -2.631264767865111 -1.7173159453597138 -0.3534987875764691
I -5.272682750049246 -1.2510867345190102 -0.1542939504157602
O -0.18716165537235804 -0.6093447846208947 0.1579866851231725
C -0.7036388719685746 -1.5011718616093483 -0.5203325085496376
O -2.203252361356202 -4.554633740346375 0.47789104212178407
C -2.421439561261303 -3.4704268716360205 0.1420646953600588
I 0.12586555305181557 2.843292054313529 0.01946417886791329
C 2.0480702536384103 0.7349652371700752 -1.8634747410513801
H 3.058316632793742 0.4211373198977678 -2.1535461192550827
H 1.8716932092044556 1.7135286853922718 -2.3272212216666834
H 1.3451890760895768 0.017776706005455306 -2.3108689703407483
O 5.276892747438738 0.5283484933162388 -0.4498690951426908
C 2.0551769663376196 -3.038484377589526 1.6390438497136512
H 2.519925150987767 -4.011095326183407 1.521072929218326
H 0.9961333984284164 -3.072512940016891 1.4014071508044015
H 2.207460633417249 -2.6298442598062888 2.6336712071852237
H 6.121858653810049 0.08154003284347713 -0.22155420255267608
Rh 1.8118325632691816 0.7387766400161554 0.23381272084578356
I 1.687265996575771 0.6195854544265997 2.9605842698925096
I 3.0094509142453982 -1.6883849135503874 0.23071318033467794
O 5.169379822816861 0.9967315013627137 1.7297307433919187
C 4.697446867816542 1.0651856850309491 0.6194376061826264
O 3.5072854094312063 3.01880365190569 0.0792749995255268
C 3.4158385042688693 1.8173406008120643 0.27601178602578996
