39
## STRUCTURE-ID: 6458ef1572857d64a653d22c ; CHARGE = -3; SPIN = 1
O -0.02152899786268993 -2.7579545196793314 -0.6577436959710079
C -1.4544800473086665 0.9293089596047469 -2.3991350302948433
H -0.5138017935358692 0.4019417587289478 -2.253295165022854
H -1.5396670607617147 1.7093363598552536 -1.644226187394683
H -1.4744257713271054 1.381976671331384 -3.384657994406392
H -0.44499671314908057 -3.5358803328382997 -1.0639662478600433
Rh -3.6662708111457705 0.7727343605771243 0.43084864908237047
I -5.246336300968681 2.5681296184906564 -0.6190752301921943
I -3.0052433010752932 -0.46049354895481337 -2.16464459480266
O -1.5708458222482629 1.9770404348974406 1.3285366705989505
C -2.2333917626416815 0.9837209773706698 1.6921564235786735
O -4.786490005494376 -1.4419870875616472 2.059137229972702
C -4.259522186331413 -0.7270822887254785 1.3031684094172573
O -1.9724097476946223 0.3506637227497922 2.8384797600817673
H -1.212457766344658 0.7333961719454561 3.3280475093304247
Rh -2.8419865531707686 -2.217088532424125 -0.27467780239435374
I -5.052133422007541 -2.7672198194489592 -1.6901527387015787
O -0.3541343168970809 -0.8942267173216679 0.44886309825819914
C -0.9011416569456469 -1.875886928505414 -0.05935836514537667
O -2.4961395637656283 -4.267147310062619 1.8665433034439178
C -2.660588629231898 -3.530825162450212 0.9947391341249526
I 1.7434805780381117 0.7750996514856398 2.867710123181608
C 5.0750390814564925 -0.6722308925240345 1.314754706161906
H 5.106795224816719 -1.6338004637388255 0.8026361354378793
H 4.771541451811788 -0.8396741545407669 2.3495001470982575
H 6.053549797751325 -0.19462090790255557 1.2837263645345134
O -0.33989437140625944 3.8168232412881906 -1.0550370826750268
C 1.870243812806324 2.492842915383428 -2.0643458808991357
H 1.6443498573790003 3.5374042106377486 -2.2284415831251176
H 1.374679900001028 1.8916342075028527 -2.821190426625524
H 2.9389603902939108 2.309511494972654 -2.063137797028107
H -0.9867657483005043 4.028881056933537 -0.38086457594982426
Rh 2.1645005261859835 -0.31186015008028495 0.5016484661181628
I 2.6718859272907753 -0.9812702159261305 -2.0088643572264164
I 1.093294535817898 2.04109653269527 -0.1497414911668834
O 4.318081874370465 1.3188927386863523 0.20274259654379323
C 4.088030352873781 0.23168976402395822 0.6552419587398421
O 1.8750748484086714 -3.0739907269787783 1.5607590428054816
C 2.2451441903130367 -2.0688850894971544 1.1533165183711875
