33
## STRUCTURE-ID: 6458e1dc830018779163f193 ; CHARGE = -3; SPIN = 1
O -3.5632154059734242 -2.2133559788120194 -3.793948146625216
C 0.044105770024682 -2.3615293298453417 -1.5892957743634235
H -0.40816889404274787 -2.571455528693165 -2.5507891033708106
H 0.5391176930226653 -3.2276169464120827 -1.1662997958123105
H 0.75325905829808 -1.5438031369992913 -1.6742302554757578
H -4.211091567743234 -2.8258070047861907 -3.400598162040798
Rh -1.0789805689106977 0.5705733920069536 0.9996110146918255
I 0.2438064722652798 -0.6521097564190979 3.1813576874535414
I -1.4456035158255922 -1.6950702685488586 -0.24468979807940397
O -0.7230910164746037 2.2584983009758566 -1.239066457280469
C -1.564810978614047 1.5835993777974284 -0.6721275218658924
O -0.2949912135493412 3.223197243075958 2.114821793728351
C -0.7263630794961468 2.223871067255233 1.7486028918751246
O -2.8153668424239884 1.5135099012822721 -1.110762938927679
H -2.979652521982846 2.0552301144944716 -1.914207555681155
Rh -3.780646681268394 -0.9348695948772686 -1.1495742454122546
I -3.7018351453767644 -0.13692695820633358 1.5352763615203326
O -2.420126482761601 -0.3677684764046008 -3.4013463821397116
C -3.239194173714931 -1.1822234897108603 -3.0101229585878713
O -6.761399294772736 -0.910534634731905 -1.4804029472116547
C -5.621050860393571 -0.950857669405953 -1.4563310125321567
C 3.0040913241112617 1.6066131232442724 0.8489475432928202
O 3.5700027644097747 2.6781343494924275 0.5835972048989974
I 3.0326343322254528 -2.2413451095078036 0.9765912243443089
O 5.331499505780154 1.4783131865828596 2.3096829074507768
H 6.209862922729587 1.6145033456513422 1.9088767463232692
Rh 2.934383818708078 0.03572235223040645 2.4181152588417825
I 2.668262275828594 2.274755293502206 3.917690421003424
I 4.272682658107102 -1.2095441574912058 4.434127431976871
O 5.110082317396706 0.14220631785913687 0.5479450581157413
C 4.589087698262071 0.6299492706550279 1.5535855244031695
O 1.0228481481534548 0.36715938159554273 0.05024652375450252
C 2.0098614840012483 0.7689820231504026 0.7247174617319285
