39
## STRUCTURE-ID: 6458f1207995db785f02f22d ; CHARGE = -3; SPIN = 1
O -3.3400418472344384 -3.045021981928523 -2.322228930676033
C -1.7017976824122485 0.31962455535670026 -3.893035797693692
H -2.561399938821219 0.2422591331472491 -4.551527896796406
H -1.1539692314356345 -0.6153613051459168 -3.8152953144118107
H -1.0317402101816275 1.1201334401495193 -4.2003883079425
H -3.8457066337035855 -2.526992314125655 -2.9736732088590134
Rh -0.3946665465952127 1.2730289753024986 -0.052053173389818595
I -0.4610784412127023 3.927917528421259 -0.5267858329666645
I -2.4759266692102333 0.8416919779980906 -1.895959578439499
O -0.32568080047961767 -1.5308496068252981 -0.42361528592880177
C -0.8388259341874295 -0.6145075441741501 0.2212308021124275
O -1.3566572057434196 1.4213329755009108 2.761811865343203
C -0.975773957937156 1.410250807876839 1.660542969398265
O -1.962906661134378 -0.8963699954865513 0.9536163817310915
H -2.1622015589323267 -1.8596577182884584 0.7697037042686663
Rh -4.072273301798322 -0.7657655713559538 -0.5619351604990248
I -4.927706708094854 1.4771655587403385 0.6005603640902322
O -2.7161124097985296 -3.143681997389862 -0.21287425955264672
C -3.3030138382785923 -2.48205027806099 -1.0849916562032706
O -6.433679868647785 -2.520197034463717 -0.031896681687826646
C -5.556351849359791 -1.7946574965791133 -0.25491071584933855
I 1.3926546897145395 0.821109449360974 -1.9551055350655266
C 2.0305414825277994 2.5607209338752965 1.7659215114718954
H 2.859402758154035 2.6011010076174275 2.4925049328867965
H 1.1297087070089675 2.848489222207637 2.336478595520973
H 2.2128124012588364 3.3486519828253893 1.02225951668186
O 3.2922027396260582 -0.29351508411890315 3.2200068084235065
C 5.219175956090063 0.011499197588740729 -1.5303552373539988
H 6.286996638928572 0.12815888281176827 -1.6786251396406422
H 4.630500600496584 0.427974403388385 -2.343321689800475
H 4.931428707963817 -1.0166529241821494 -1.3287389546179735
H 3.6804048011088084 0.1533998621476643 3.9943172037688863
Rh 2.0141278514714185 0.6252563419267311 0.9995802243559009
I 2.57854532845277 -1.9927906029882725 0.8016831732564931
I 4.7119536153547745 1.1651427165782038 0.2696534588982452
O 1.3826409888036257 0.5747092949401668 4.078889457457603
C 1.9437185228632023 -0.05207264984774187 3.1566468672667733
O 0.12337192752752313 -1.3850851657034173 2.3850922980436353
C 1.177323577848141 -0.7643889770965816 2.1468182223989962
