39
## STRUCTURE-ID: 6458f80415e9d730216c9d47 ; CHARGE = -3; SPIN = 1
O -0.8324919894449878 -3.255426635264138 -2.0710447413156987
C -1.8793859952705638 2.323341644369232 -2.817631853864022
H -1.056681764650363 1.9370952447379741 -3.4112501805795787
H -1.4931049208137817 2.690341262913716 -1.8712059886471069
H -2.408709223698773 3.1081702549709385 -3.344412376984331
H -1.517946271338937 -3.8466638875091537 -1.7174899702891242
Rh -4.336529802770877 0.6026002020791015 0.030828318048404295
I -6.257725764377183 2.329636760347131 -0.4134111118408635
I -3.1654615288220813 0.6921477645852426 -2.360148037436669
O -1.691940817602697 1.5712796510183813 0.31046118036991116
C -2.3820496407498135 0.5957733690201275 0.7237799530604786
O -5.211568801067514 -0.4014957029135619 2.679394129556982
C -4.89158265402329 0.0003886040727952354 1.6394187245490357
O -2.190253889752651 0.2860196347205262 2.0764471673721014
H -1.437358448832288 0.8049479954431548 2.4248919624107907
Rh -2.4175055450978964 -1.1155034749856703 -0.5971632089734551
I -5.0920676362688395 -1.7434246635787094 -1.8582914214188897
O -0.2846692854398955 -1.1488465347673988 -2.373211013597264
C -1.0407521644875153 -1.929479156922326 -1.7843028496842923
O -1.7813462956833594 -2.804855454542217 1.7742023517615766
C -2.0350275346125954 -2.2138672364618577 0.8055400081975014
I 3.214039990338635 2.580204902551044 1.4595529679615995
C 1.4593744779620395 1.5347419879338549 -1.1485235322579712
H 0.8677454075433733 0.8876519043726498 -1.809665288552565
H 1.9917886742096722 2.2635525097666136 -1.783743447033844
H 0.7331835495725083 2.0978411943375037 -0.5374154857167903
O 2.1969388654701527 -0.1947003832322404 3.3659027692402628
C 6.393419858113435 -1.4919184176793945 0.507151486782141
H 6.152221130729938 -1.7738396488941617 -0.5145986341493
H 6.8422769461463835 -2.311606248201879 1.0596914911033168
H 7.006664367070203 -0.5973125116448056 0.5396928613368552
H 2.1564301839627267 0.17125464680980254 4.277421538911279
Rh 2.753836858050596 0.41904968981120794 0.018957064902949208
I 3.49215918524111 -0.8578086694485592 -2.1473798505690227
I 4.485375409496786 -1.016926992134777 1.5280476007166077
O 0.3772814024927279 1.0198711215622005 2.8983288711701967
C 1.2656096690046286 0.26113649471181427 2.5523074287832683
O 0.6385449887100902 -1.179874438043051 0.7414081065188753
C 1.3772690106926158 -0.29349678391043965 1.1474630101564318
