34
## STRUCTURE-ID: 6458d3d034f8b62c7f11e55d ; CHARGE = -3; SPIN = 1
O -3.3185341283691883 -1.9390610096917968 2.576881191728606
C -2.6014231502690404 -2.262780089720764 -2.45783283476663
H -1.6540743205436543 -2.412480065148282 -1.9474445244575571
H -2.465773929815685 -1.6146500816534355 -3.3151141862154456
H -3.0800907157350066 -3.198170163369777 -2.717746649251217
H -3.6451048315859738 -2.340738064135347 1.7531531680891366
Rh -0.20494735359346936 3.132000504798753 0.2018237737945991
I 0.6819780135982334 4.808492284901999 -1.6742272309798536
I -3.9190057207334865 -1.2249744758889152 -1.0787723244251695
O -2.313020366565437 1.5015094846120258 1.2186472580527603
C -1.1559204283241549 1.9481327401795787 1.4278508012471052
O -2.287239054724937 4.549150850712307 1.7938996561526261
C -1.4578663841940576 4.156691624313942 1.0571887403167732
O -0.6231267859148917 1.7970290656755816 2.678591591541926
H -1.1166332942003756 1.0687439154668652 3.1403525101913194
Rh -1.5981561458604019 -0.5108314222183299 0.6440349667942864
I -0.49179379368615134 0.851974178989171 -1.4357179230258494
O -1.9652080783316417 -0.4393997601638789 3.4280062175118307
C -2.326446878066344 -1.0135667243672721 2.395433887766549
O -0.6081819011474888 -3.26653316333915 1.1165564848458753
C -0.9276117323436756 -2.211018066566672 0.7548940396338324
I 4.852690552550584 -0.9071709279450153 1.6140792337060899
O 3.0509019401210837 -1.7148998078664779 -1.5052656998681933
C 3.2143824408276926 1.4514407175330502 -1.8601042609013174
H 2.8086605767332884 0.8800323744840806 -2.6964561302216157
H 2.923817589957133 2.4959381839412336 -1.9250839654708862
H 2.9875392738439324 -2.339412308588858 -2.2589508242010945
Rh 3.435663129742091 0.45991351074632736 -0.13120371963075658
I 2.3348357290661084 2.5607651417896022 1.13396773638414
I 5.353277649330115 1.3412757251353278 -1.8834310289624219
O 1.205871728205258 -0.7513384189705427 1.3247838931144342
C 1.9997874462146303 -0.7438257371722714 0.39179962644192934
O 0.9704502278999254 -2.400621387332847 -1.0159006308688825
C 1.9403026959150267 -1.7116186291401492 -0.7486928440669595
