34
## STRUCTURE-ID: 6458e9117a56b820bc13c956 ; CHARGE = -2; SPIN = 1
O -0.36790331817795385 -1.220373086442902 -1.0709217230718817
C -1.1582526954132297 1.5878738357816522 -2.8272371758878583
H -0.6831146057753112 1.0776059516446763 -3.657000723449744
H -0.5378241136241055 1.5600437169274135 -1.9373231659236998
H -1.4181663549953694 2.6094748357034097 -3.0792252377512046
H -0.9102476703952025 -1.3463961693718025 -1.8689535974965847
Rh -3.5001338183438486 1.0696388150786929 0.7755577408993629
I -4.450949296243888 3.4620314925149995 0.4461431942108635
I -3.008057978670177 0.5538293983765717 -2.358507485189785
O -0.6896782485774331 1.4044970143722635 0.527630101923692
C -1.7023371762179313 1.614346833232474 1.2188779814814068
O -2.534292156093357 -0.6935678569049855 2.9076754345061744
C -2.8328931292700195 -0.37437171898611826 1.809850106156163
O -1.5799530947809342 2.1599476437952525 2.449196226613827
H -0.6406694151480926 2.229692705528202 2.7355081091654747
Rh -3.012512085105194 -1.3853686571195767 0.054960556299704894
I -5.6300695366272455 -0.6963044970798927 0.2158676659274164
O -0.33221925749705894 -1.3805055636385366 1.1166189661364907
C -1.053426238367092 -1.3430274246106386 0.11792628902786065
O -2.390180027371689 -4.30073697699043 -0.16777135839832508
C -2.7620684980281234 -3.2054772418266935 -0.23831915995355776
I 3.9780953714391463 -0.2855363093341218 1.6221769116955833
C 5.163118265634744 -0.6936835967910367 -0.1802875850314131
H 4.4608966654964215 -0.876172460744024 -0.9898019068113154
H 5.769741067406518 -1.5686539549301999 0.03221795490590079
H 5.775845809356011 0.1794378244566885 -0.37750205119217844
H 3.388340575499912 -3.918572543143918 -0.4786435653531639
Rh 1.4560029319355008 0.3878117809062238 1.2139260299730532
I 2.02754256459179 -3.155169681832699 -0.12085633800821943
I 1.1215273222245459 0.39777345517162693 3.9004407312453253
O 1.8089900082272152 3.1257317383861105 0.35821012628032084
C 1.8974000717118944 1.9524800805038556 0.11536194423706474
O 2.3677673629124896 0.2865179101649717 -1.6482265221535923
C 1.9796806982869786 0.7851827072025878 -0.617568475013097
