34
## STRUCTURE-ID: 6458eacbb0c18d233a75be63 ; CHARGE = -2; SPIN = 1
O -3.5603473300130664 -2.891227677529596 -3.199899414517169
C -0.2550059176282261 -2.200156130562188 -2.123080273324874
H -0.8008138989552734 -2.7140270983712482 -2.905839919597956
H -0.35288716494911293 -2.7568854728120544 -1.1925747225960535
H 0.7893700123945978 -2.088450006103324 -2.3885784760781514
H -3.893674956776406 -2.256943313099842 -3.8564386801852533
Rh -0.5705072393743584 0.5185949715629259 0.5829045199338918
I 0.6407620377658715 2.6950950214513454 -0.31567633196334394
I -1.1750433649387808 -0.3344518856132152 -1.7981211500368346
O -1.2714407789848128 -2.22823814497681 1.156259304001926
C -1.6672822289927816 -1.068480122073302 1.0238315476794813
O -0.8078737753882826 0.7290852314155494 3.538292658490502
C -0.6351049138859106 0.7700393342588366 2.3946480165871846
O -3.023612902224878 -0.8432740569849282 1.1175305135878644
H -3.4934158226874756 -1.672393347169418 1.3306750126121654
Rh -3.7144538114424934 -0.4545144648824859 -1.5893829300148128
I -3.202627181267923 2.11722256278381 -1.2417306465504778
O -3.2845162400201677 -3.173370432230927 -1.0221861454622763
C -3.563408656259364 -2.3700257217461367 -1.9084227753649636
O -6.6697577082150215 -0.8817109976611484 -1.7123160272070348
C -5.53835889614997 -0.6395498000728896 -1.6853413379129418
I 5.35671273439997 0.04355234800422122 2.604817520126475
C 3.681387655454429 3.3573623515691593 2.0738862277290755
H 3.486963553338995 3.854619289506567 1.1191899405642913
H 4.755197734763397 3.2017260603124735 2.1899776007224765
H 3.306192085348505 3.9899982623377275 2.87963988427143
H 6.372619718771531 2.26907406750242 -0.10014448865068826
Rh 3.431234460498314 0.5231285807338142 0.9291837177440189
I 4.975980140008256 1.8388617659863684 -0.8027199090348334
I 1.9229292023697737 -1.580985542223521 1.7662443302997684
O 1.9973984462309016 1.7765588918820034 2.8063674525826325
C 2.925286419734796 2.0910716841290062 2.136558572829006
O 1.7635339968117238 -0.08954489701586704 -1.3968056098825636
C 2.074564590263341 0.46823868769265514 -0.4107479813819963
