39
## STRUCTURE-ID: 6458f1f61f61a252f6143970 ; CHARGE = -3; SPIN = 1
O -3.4253644791544877 -2.644234008111606 -3.9167400240599832
C -0.4437873925516196 -1.7008666054918888 -2.2335453293734737
H -0.707454246950881 -1.9193644706744488 -3.261713991779508
H -0.6032523262752016 -2.586380814506804 -1.6181232328941637
H 0.5929900679851565 -1.3902135689643227 -2.168598724744282
H -3.780607248193459 -1.9034775079100401 -4.438094463422571
Rh -1.5572853472813597 -0.2401437499836955 1.1312838232182965
I -0.36216330309006467 2.1362462697963687 1.251065378622204
I -1.729858696625485 -0.21165175759253405 -1.4863012478075375
O -2.1021738714856206 -3.047120621566363 1.086135472118663
C -2.582206331316775 -1.914123033993468 0.9722826471696511
O -2.5031062543604987 -0.7351420949557982 3.9128790337262473
C -2.1422567125907275 -0.3943575346307888 2.852578529240986
O -3.936497774589578 -1.8254495031751399 0.7334824434133007
H -4.333328644450952 -2.7175382954610865 0.6907219459816832
Rh -4.204305896260829 -0.7616867630132818 -1.823810197206965
I -4.120677179133272 1.7240431351419845 -0.8819236363698478
O -3.312411682462424 -3.437037345779855 -1.8573982252652304
C -3.6532394853321315 -2.486216155980497 -2.55850934204742
O -7.021414857702027 -1.4793970199702213 -2.5170421328277692
C -5.945803548125904 -1.1347508078657742 -2.269125419945847
I 1.1571501839192364 -1.561114212114915 1.0372908322631278
C 2.1823050184363098 0.9001764150986208 3.3179653486391523
H 1.959266600114258 1.889525395271297 3.730309294787625
H 3.087985534541611 0.5153516825606954 3.7957155399078317
H 1.3538619588407363 0.23720834240490893 3.6150369529521207
O 5.542746863130026 1.2943209347165203 -0.13470791311928612
C 2.533577325966138 4.812236618271111 0.17571083686842323
H 3.0029454481159843 5.759755711135864 0.42246208927014206
H 1.4815308783337444 4.778322469561929 0.44806908576941673
H 2.6799442544443104 4.529714071829044 -0.8625781687315223
H 6.110620726629842 1.3532659543698158 -0.9332717257036904
Rh 2.3323843762175556 0.9633147031613741 1.2087357548422761
I 2.319825713797217 1.1866518113839544 -1.5421029540082138
I 3.5410224399022545 3.2931295123158906 1.4003776029745332
O 5.1163862960937 -0.82829977202282 -0.7089342627565044
C 4.935817115840841 0.13772038145533924 0.003708815884058423
O 4.474566432589093 -0.646168536056421 2.1674424865213653
C 4.062268043036263 0.05375077134752212 1.259267077892643
