39
## STRUCTURE-ID: 6458f5be5ca08b624b753690 ; CHARGE = -3; SPIN = 1
O -3.6133775888392474 -1.7149733138662566 -3.7030752329379704
C -1.4468202496469296 1.4714954334074086 -3.143228838843985
H -1.9981723268706721 1.3252438271534794 -4.064929247526836
H -0.7481326054601983 0.6514222241969333 -2.994625173286188
H -0.8904796363318641 2.402074016779422 -3.1602147106779004
H -4.418457910671093 -1.214330773149311 -3.924344200553455
Rh -1.1439952256059691 1.346825559992821 0.627230924460441
I -1.826947677158932 3.71223236773494 1.5523715514282956
I -2.73925894181335 1.4801184489741728 -1.4903200920545443
O -0.48687257009620155 -0.7699373917885596 -1.2055533589297325
C -1.0914628637544517 -0.45633202994194405 -0.18104563242939506
O 0.3224699749438121 0.614332564093602 3.0936738614240715
C -0.36971612469500725 0.814405931272501 2.1826859909898677
O -1.9539734801595998 -1.3526153307744677 0.37688711342203646
H -2.0820196489892155 -2.1009539486104396 -0.2704990741955617
Rh -4.2749423794897945 -0.5562982239705583 -1.0930570168600522
I -5.045506843073236 1.34927616107104 0.564649970983078
O -2.5047608510687756 -2.545353214548161 -1.9828810122312577
C -3.38361442879037 -1.7607900408185664 -2.351088377469103
O -6.3183333979300444 -2.71723708461647 -0.791303480261694
C -5.563892500400446 -1.8602754784772517 -0.9075865544500926
I 4.245067662136268 -1.6435571863139964 -0.2073401561658271
C 1.3919631994347847 -1.699169719568183 1.2251495392337064
H 1.8697145588156006 -2.556250789334217 1.721508442548352
H 1.0616844640783936 -2.069008836387746 0.23902093175088546
H 0.4680225852056885 -1.4876706300820908 1.7915376120017787
O 1.381808578047599 2.54634585821317 1.089171706234394
C 5.886674726334742 -0.46246237234499415 3.4318337828002936
H 6.273351807692538 -0.8130189073327013 4.3819113821805065
H 6.16104296825888 0.5676816222640815 3.225448334147613
H 6.169617938894155 -1.109746917184418 2.6068695723947775
H 1.1253229302770218 3.4896921548042457 1.086751417939992
Rh 2.648253086083564 -0.011594588918851878 1.056949741692433
I 4.426694802030537 1.9537370153654605 0.7342343499220582
I 3.686711779461198 -0.5369677743476993 3.5793859474625873
O 0.3836801567253621 2.6095096334321295 -0.9599375303780119
C 0.832717203539206 1.886152801012677 -0.020108259937413855
O 1.8434240743466417 0.5155768055277012 -1.659426201072962
C 1.722514754539274 0.7024221270849554 -0.45670802275664807
