37
## STRUCTURE-ID: 6458d78e9fa7433eb91c5e60 ; CHARGE = -3; SPIN = 3
O -2.0335424594349645 -1.2433827151438093 -4.370282130180844
C -0.12329443626793105 -2.128797259252861 -1.4506874441312279
H -0.3766976209474912 -2.3836677551499736 -2.474518033709586
H 0.38412246685971646 -2.948715070160653 -0.9571696515765884
H 0.5155497135664074 -1.2482472430104548 -1.4602798702374051
H -2.822286464189989 -1.8003407213371383 -4.494084577865687
Rh -1.939424418380661 0.2357153724333666 1.432823879758303
I -2.3277471042507116 -1.3932072275442011 3.4589831598776324
I -1.8833488383692571 -1.6166514862983505 -0.43277567267821265
O -0.972796980791216 2.38854605106545 -0.31340791091563774
C -1.890380556567916 1.621474004949329 -0.02094160958390361
O -2.6014901093522074 2.7112378068288083 2.935230237933884
C -2.297579876733063 1.7220943335816765 2.4329574320026675
O -3.0821056924190637 1.8048909850673784 -0.6743331026206854
H -3.0655154183603375 2.6047430934320603 -1.236617275294442
Rh -3.5987327111299074 -0.4855918645250554 -1.986180634786128
I -4.829126910618276 -0.820778306044989 0.3576583477560785
O -1.2452667510746451 0.4243054497422334 -3.153419493266088
C -2.179048768366567 -0.3630603595730129 -3.3206882177705803
O -5.601053014484583 0.4352198272621991 -4.0102389362960835
C -4.865074076305235 0.049596601253769475 -3.212632803917083
I 1.0710794256822893 2.2436254868024608 2.4079432027704244
C 1.9635826606988838 1.0555067896642345 -0.8528712110601084
H 2.2006849025466733 0.3711216036216198 -1.6978581519368607
H 2.3597388745316037 2.0460281979206543 -1.1618550113061161
H 0.8644423151300475 1.1669978374801584 -0.8812886139660694
O 4.049873952976097 -1.5090636887204258 -0.43410316834151275
C 3.1154304532207586 -0.12456358163443979 5.019960903289579
H 2.5383860139972048 -1.0128482416771245 4.781332223113014
H 2.460799652039755 0.7290819268197972 5.16256464238177
H 3.776700035823405 -0.2812414563690795 5.863564234701751
H 4.845975471671295 -1.7506609150456902 -0.9501244533631024
Rh 2.750141509219608 0.5760080489703271 1.0914680290171763
I 4.378959403359332 0.3152064653035858 3.281196208157047
I 1.260448943513872 -1.639947572358148 1.6910730863554726
O 5.079257578033721 0.46972807061951394 -0.3604940874114427
C 4.119338835173419 -0.2203624889734427 -0.00990352489924344
