39
## STRUCTURE-ID: 6458d2c713daac057910d303 ; CHARGE = -3; SPIN = 1
O -1.6177505367491776 -0.7480891543906035 3.499607554093805
C -1.3099101239132578 -2.545857031319761 0.6929100941743381
H -0.6318614111351284 -2.9146519542304308 1.4561562251078086
H -1.2911957088138903 -3.193579534325674 -0.1785667603368016
H -2.321169611049002 -2.496397083978692 1.0778310573909609
H -0.872267306980446 -0.12420132012083768 3.4764766831355085
Rh -2.4565098507899794 0.25569685460448466 -1.7379456723285047
I -0.534913123855543 0.5690529806916828 -3.510224678210636
I -0.7440073976983219 -0.5778978578757439 0.11953078771842364
O -4.05031695500249 -1.4798488405461887 -0.1529289992453244
C -3.857600881011107 -0.29101778753350194 -0.467534234040234
O -4.867291215394852 -0.7146410758833135 -3.185556160540331
C -3.855772657625805 -0.2828321927237945 -2.7778730941147063
O -4.933472659090207 0.5735531749441334 -0.24162182036884028
H -5.660047081778586 0.08001278512742968 0.1769469469740193
Rh -2.4757739125581595 0.9914987965141322 1.3054984787689698
I -2.342202929510211 2.9371400233177516 -0.5445058610922583
O -3.6281772637750507 -1.1755788126964946 2.702647524822917
C -2.6413662722945737 -0.45133611947357477 2.6041797886074187
O -4.196128878844519 2.1232039926404167 3.4612182097542843
C -3.4946227148508053 1.8175495571977671 2.585214525633526
I 5.0840733638231095 -0.4452912160471108 -1.1451005372521297
C 3.031324642095659 -0.6722681287087442 -3.5640451707104335
H 3.456858654803793 0.2316033079746263 -3.9993029830064675
H 2.0844594316012066 -0.911717841744895 -4.051822910399394
H 3.721442300412175 -1.5117998939841533 -3.662529930440939
O 3.297642113650428 -0.341107863786132 3.144046883336959
C 4.238854995663403 1.7534768234406775 1.48278973939278
H 4.109361600735469 2.2278973213460254 2.451743845048088
H 4.200546569117005 2.4693356110449773 0.6674476384469128
H 5.151225841825842 1.1592946784958182 1.445000619054357
H 4.157722227444874 -0.7763610955011891 3.095831091100167
Rh 2.5602873797138637 -0.35231990187765677 -1.559812732496349
I 1.7600170664606443 -2.838129927741501 -0.9910063575407738
I 2.527053912794919 0.43552834055037326 1.2316955886681562
O 3.310924023609589 2.4717801150264536 -2.22457432990808
C 2.701644102917668 1.6241039600853984 -1.6412268850264131
O 0.5641404970238905 1.628089213241028 -0.5127666153622171
C 1.8247797690269583 1.4961070982469564 -0.5278275488086449
