39
## STRUCTURE-ID: 6458f6db67789201b74665b6 ; CHARGE = -3; SPIN = 1
O -2.4048301859060377 -1.003655381843127 -4.103458949310673
C -2.0177054881589185 2.344840457792038 -2.6299258271096355
H -2.504323589056198 2.8588613035922195 -3.449800913460352
H -1.3693229014210497 1.558683631278332 -3.010859223287285
H -1.4218575130499065 3.042964711466788 -2.051361013660818
H -3.335182163781379 -0.9452834033074373 -4.383505843624014
Rh -0.9919259666340047 1.0485502434716714 0.9055830898990975
I -1.0240078608340402 3.7198539836364906 0.9810888825835729
I -3.4656332735197357 1.4203705770265926 -1.3975428809068218
O -0.06648603117593983 -1.6827866782265424 0.5806693993858215
C -1.0670909980874936 -0.9495023443119941 0.6578696047027459
O -3.3027189023122525 0.7477272716996353 2.7696996871777118
C -2.4093987323344055 0.8927299196555499 2.0566495844273365
O -2.270332799614891 -1.599819256185817 0.6350283973440172
H -2.1504373155855725 -2.5708186521222016 0.5714703640938782
Rh -3.8747491446068314 -1.1136608107698642 -1.586057778064649
I -5.859575251723106 -0.2831255588611677 -0.08040949392518257
O -1.1564279902253216 -1.4869508278382417 -2.3371506776542406
C -2.2993729429588847 -1.2765076572048262 -2.732814902926192
O -4.183106978899972 -3.9866927468724507 -2.3199681589076895
C -4.17075865245179 -2.8689741105811963 -2.00577962419495
I 2.690101321231071 -1.256383339248943 -1.8573919173945614
C 3.876138355715088 0.45089963176241776 0.7432509526707248
H 4.687407002170434 -0.2637995456893218 0.560334433036346
H 3.9642200457492343 1.2295165065694962 -0.028838280357025643
H 4.035235269035869 0.9181456077271523 1.720182447263961
O 2.1470439773995422 2.7337517800897273 1.2507674809849967
C 3.977263077307155 -2.4173740307267595 3.7437972920833804
H 3.3615837441992995 -1.6447886526148103 4.197011310721468
H 4.995406328709784 -2.078355621462912 3.593904910751266
H 3.9371798549258137 -3.3466201726870164 4.300477675762883
H 2.6493406097061007 3.56925891897266 1.1865334176501046
Rh 2.0315167667681795 -0.5168949125679009 0.6355722190408178
I 1.1680558854756145 0.3440005321948991 3.0000148996968607
I 3.12787920053067 -2.82451148016379 1.748921093961111
O 1.9570363720252582 2.9283044740050466 -0.9677307307693074
C 1.685979674526169 2.3296648587841755 0.07158677996345604
O 0.09539754316279003 0.9529385864745289 -0.9400062130036946
C 0.9584596536996176 1.0254421870866595 -0.027811494644358066
