34
## STRUCTURE-ID: 6458f6f4dd494416a02323f4 ; CHARGE = -3; SPIN = 1
O -3.2201171809143534 -0.4482699514029097 -3.742840336076272
C -0.23074773208546429 0.6816492036556465 -1.9891592224154833
H -0.6946424126663164 0.3125593020763309 -2.8973137000451117
H 0.2882854851658029 -0.15509385247789934 -1.514882764408032
H 0.46532214789376747 1.479764538455217 -2.2245097599883663
H -3.8499176812652975 0.2786995671347324 -3.888160048592665
Rh -1.2895345711921318 0.5438283785331229 1.8273716864676055
I -0.6042350174230883 2.911564112808337 2.777713071766482
I -1.739674600464912 1.329094982193745 -0.6722418720015944
O -0.6980181590656297 -1.76976298730286 0.3175232619822658
C -1.6169981374589424 -1.171349846838142 0.891470446532705
O -2.0850784231601946 -1.013226447638824 4.2445644145210695
C -1.7591506163295854 -0.33096265806770014 3.371553822912066
O -2.8797798887757393 -1.6624340230656278 0.7771678890196521
H -2.8900607860839167 -2.4666817827951824 0.21932329239681567
Rh -4.003118238298656 0.16806223545745935 -0.9948290715715363
I -4.367427903339733 1.9357236329403456 0.9699012540007642
O -2.5244891947202928 -1.881866020262519 -2.209916835653569
C -3.2142620205901196 -0.8910175576971301 -2.434172280942225
O -6.667121308516475 -0.999900510904295 -1.6884690081688305
C -5.662861421413452 -0.5033545788045939 -1.4169492669267758
I 3.8747631670137705 -2.816542041600888 -0.556692985205454
O 5.228197076346047 -0.7626591113007607 2.5449116125358455
C 2.2239221182243716 1.3697254625045119 0.41741057144943783
H 2.738640710298107 2.155557829014935 0.9721375964162486
H 1.3570316018663626 1.7989992740537781 -0.09486683562549689
H 5.255135776304538 -0.6925693751892393 3.5234438487291095
Rh 3.196501149729467 -0.2854810267662933 -0.27955480559003715
I 3.4755870133912494 0.4624759769470529 -2.7982310508692514
I 1.5984427710245397 -0.15443120185095874 1.8158823955558157
O 5.882196804437605 0.5423171785130344 -0.21059649888735366
C 4.90417631742223 0.2759635342732809 0.43858101965028445
O 4.624145502944703 1.3941955384285218 2.544329195765245
C 4.884887651701739 0.36542222697576454 1.9601009632666584
