35
## STRUCTURE-ID: 6458aff1b74563313c0921fb ; CHARGE = -2; SPIN = 3
H -6.987138427245274 -1.5094159924247632 1.8321622571341378
I -6.106198272976377 -1.0557939064101391 0.5874779748468556
O -3.340630177341726 -0.5304891827983664 -0.9674428503492515
C -1.7280628994839218 -3.584904120481083 -0.6927552901769334
H -1.1384072654187452 -4.494495298601218 -0.7477386793413296
H -1.0817713574633876 -2.701934251907477 -0.7132422941592187
H -2.979237917248711 -0.22875098798101914 -1.8232113569094426
Rh -3.241544111955257 -1.0600290018504943 1.7912216475915008
I -4.338887603507399 -1.9262163399279755 4.032062568862477
I -2.8739476652369493 -3.588567205553171 1.0593838868469236
O -1.3407070619486694 0.021645056958523 -0.17032343343258677
C -2.457361038405444 -0.44923767863078135 0.052410495696974695
O -2.992594385004469 1.8731804038234883 2.1636057329535374
C -3.202071793808353 0.7380601715657491 2.12244067242138
O 3.2455590754225367 3.9715291865456006 -1.7029399985306144
C -0.14368716826669034 2.854212556451789 0.022713020186928213
H 0.15598074730034156 3.8792591594545125 0.20554428886305473
H -1.1139802929571827 2.650806029742694 0.4618086170588291
H -0.16097965115181828 2.638544858536683 -1.0409791849218875
H 3.8747799817644464 4.318229364930405 -1.0475136678405825
Rh 1.0903643126269733 -1.0953823786696042 0.7718844886546959
I -0.3119154724998099 -1.2505185869865945 3.050442239164683
I 1.2860596839494838 1.5514476165234232 0.9024179350697726
O 0.8167778648116149 -1.0714699674067603 -2.066865921638465
C 1.6189909542254497 -0.9611851951220984 -1.1472832681651524
O 1.4242467721089231 -4.013502554098562 0.26127849675448217
C 1.237130550100667 -2.894584640607835 0.48352807668039827
O 2.928845814415474 -0.7562797260127104 -1.442594640488825
H 3.082120362830114 -0.7493055456928099 -2.4092645233212893
Rh 3.667225633281372 1.4831171305351194 -0.1651063212200438
I 3.80214061359863 -0.3381518704603862 1.8597810497540366
O 2.2685420788644306 2.1274398240560797 -2.4162297886125494
C 3.037566981629645 2.6366047470427505 -1.6104067398340571
O 6.558854329103837 1.7984404532016305 -0.8798296911585742
C 5.443936805886147 1.7176978722553438 -0.6164357984398569
