34
## STRUCTURE-ID: 6458d98c8a1b15617b738a4d ; CHARGE = -3; SPIN = 1
O -2.843239716338326 -0.8889930187675499 -4.582230306800443
C 0.2779270605027087 -2.0525917130976494 -2.2647103781139
H 0.026493043172697052 -2.5917731325195303 -3.170139683891579
H 1.1754680492392016 -2.4528484454304627 -1.8067259711052603
H 0.4181047030401294 -0.997864386873777 -2.490189559570443
H -3.5585246626859224 -1.536654696539682 -4.701647216456633
Rh -1.0792324348857054 -0.7380329624691722 1.267154513068865
I -1.9697451886555744 0.60177550391852 3.3641560500263425
I -1.3370223988787822 -2.188646872011285 -0.9187648802031759
O -1.0474672350075334 1.7655532263234772 -0.20704385569064743
C -1.7017229538701604 0.8060681271448047 0.19676758718573154
O 0.6419546806293961 2.191196672570396 2.778202739516764
C 1.6558655715269524 1.6623267630344911 3.1556715982364687
O -3.0512862303024737 0.8068598911033132 -0.0679024379892635
H -3.333022278741413 1.6586259063163775 -0.45440462701194645
Rh -3.6001889864375194 -1.2472399582213005 -1.7241543979949774
I -4.049658638175335 -2.341185807761491 0.6920572867108621
O -1.8288233871814137 0.3591492249007012 -3.073377270644882
C -2.7054964313417624 -0.48299985443866095 -3.281493256074218
O -6.360148484053751 -0.7175062932835687 -2.752662622592933
C -5.290239300138384 -0.9415253296890473 -2.386928986005658
I 3.2796941319518407 3.69186887981507 1.1919932074487014
C 5.52243414304834 1.0899163955341116 3.085695862186287
H 4.889370150581675 1.3632569382589874 3.9235032595876893
H 5.86601896611836 1.9685461927005383 2.548490338336698
H 6.337622139715326 0.44272326436613313 3.388537244195324
O 2.31954281014018 1.318840828072881 4.081222679864078
Rh 1.8801669615067103 1.4355025301372255 1.1346190303723889
I -0.32968083073458193 -2.861383655368646 2.7404139623836574
I 4.263228648793077 -0.07669292415865911 1.706727076097405
O 1.4476663575939046 -1.1914448922963696 0.31909846509683465
C 0.8562378420349211 -0.28595728080336896 0.8576872295433609
O 1.531957575406588 1.083350812313154 -1.836467953473731
C 1.6957463224266756 1.3477800672200273 -0.713154726237829
