39
## STRUCTURE-ID: 6458d3d46fec6056870c2d91 ; CHARGE = -3; SPIN = 1
O -4.214275753441257 -0.21722534599181986 -3.7989999026094297
C -1.2381063622579631 -1.5175851504539284 -2.1913885763540377
H -1.687721595935953 -1.5480298019120549 -3.179597066999017
H -0.3817396270128902 -2.1827990266899433 -2.1434255269175755
H -0.9141386857661419 -0.4998947184124716 -1.9979105562956505
H -4.8673481473900555 -0.9264004453276328 -3.9359504794153315
Rh -1.4651336585294112 0.5908367812932419 1.2181010430611063
I -1.5842298441306233 -0.9230953083212894 3.3593757236867834
I -2.6900443550776525 -2.034227578414148 -0.7753371397223914
O -0.5975081473858986 1.6226978368204523 -1.325326009269941
C -1.3008710536032762 1.793915161483326 -0.3076909559731489
O -4.398440271902556 0.8699713041400092 0.723826416536158
C -3.2589662306221303 0.7679383712806647 0.9889071860689407
O -1.893070078300047 3.044450154052141 -0.18801765023355332
H -1.7114871828388099 3.5948968664867196 -0.9737405994314782
Rh -4.987455441456458 -0.9019682399387854 -1.0558327832122336
I -5.356692466050474 -2.8176106971445716 0.7193922193263466
O -3.4735983163885487 1.19038954020132 -2.2596082035323417
C -4.178089271706738 0.199273411076319 -2.460130375106182
O -7.515350887479135 0.5063707435503461 -1.768093878713355
C -6.596982196321718 -0.1352231218531169 -1.4734131165579896
I 0.8970927465522376 1.5346798201924916 1.8031631496840577
C 3.6791811596699255 -0.911699347842764 2.2141614936980916
H 2.909656917794292 -0.8608219449161546 2.99333349107753
H 3.6937608422222197 -1.9093490129011381 1.7677779260228266
H 4.660362073714892 -0.6847340531526074 2.635745203468356
O 1.8592053758972795 -2.7874766980564325 0.4297266565141091
C 6.608000489670447 2.3977697833252836 2.235270258225173
H 6.942092233030036 1.762359002670518 1.4175465094215067
H 6.869327801496674 1.9875527206651542 3.2058540383446767
H 6.950340028845762 3.4225656452478965 2.1204579924634355
H 1.3252509627410431 -3.4547309063154272 0.9115486030875086
Rh 3.1567540777104575 0.5182243003517235 0.7846657684827127
I 5.267007627229729 -0.09856181442627122 -0.5483113309507602
I 4.333572953980814 2.462359362446971 2.1492487741339126
O 0.035290737936004 -1.4906639758868514 0.4665734458197607
C 1.2194199602134692 -1.6568716313761305 0.18450390266443717
O 1.8600745639578857 -0.16258684796914125 -1.5534228747291112
C 2.044859020946784 -0.5446951379691234 -0.3929827757614113
