34
## STRUCTURE-ID: 6458feb1d81f604c2e6c9d3b ; CHARGE = -3; SPIN = 1
O -1.285125649370363 -1.9888900315711004 -3.15864427558784
C -0.776432341274513 1.9123217192885869 -2.8701804265700654
H -1.1886129543876363 2.380873324809046 -3.755232755392396
H -0.251824667645427 0.995905997075917 -3.1231344200302424
H -0.09027086926676431 2.592930834853785 -2.3746459712738996
H -1.956617602151234 -1.6827366392618601 -3.794306018634242
Rh -0.9998979846305741 1.6032639666339403 0.8791063125898761
I -0.45376941431050555 4.167349555802114 0.37292261119831516
I -2.393655098032231 1.4073153221086547 -1.5403907503909886
O -0.3299449105879454 -1.0368947026652524 1.8840513785402417
C -1.1746381750957906 -0.32579974684467194 1.3409028616691896
O -2.9219398001319314 1.4255556284011013 3.1417415006229374
C -2.340551194379532 1.7731819386513796 2.209995810241703
O -2.4137735816825407 -0.8728353056249101 1.1438832299541002
H -2.4520726913574675 -1.7951780817362177 1.4696957832299538
Rh -3.3611139839021518 -0.9832321531614919 -1.3428659159970833
I -5.277526263430935 0.574381761159159 -0.4128502030286354
O -0.9988457531531981 -2.4124390331541936 -1.0006510668393624
C -1.7301446004175256 -1.9180911408252623 -1.8556252171324705
O -4.5548889544812825 -3.677423560498312 -1.8412842828587135
C -4.1701264383363315 -2.60377125153403 -1.65356255069057
I 3.280274866799245 2.0840543854861115 -1.1822737283782112
C 5.652664862212777 -1.8618134750592896 1.788845352559727
H 6.711225634713993 -1.7856475346738296 1.5645364959267283
H 5.255683230441694 -2.8428820405076465 1.556932432622057
H 5.4451757557710625 -1.5775322752437022 2.814394260464569
O 2.8962301358465985 -0.7254088628892368 0.9609660830892313
Rh 1.7260446308659951 1.6263900225478825 0.9625933162549047
I 3.5898019783769213 2.393742673819207 2.6513123532638496
I 4.664001656011075 -0.41715098909310067 0.5140555941763982
O 0.30753014140135454 1.3680748669133636 3.5540377018091003
C 0.5234718270813228 1.5128865240895988 2.396311629993179
O 0.5455374392070527 -0.060278611975979196 -1.0861803442491462
C 0.5241307692968035 0.7497769146802575 -0.21445678115232436
