31
## STRUCTURE-ID: 6458b7862751d408da25a9a4 ; CHARGE = -3; SPIN = 1
O -1.8531766976562483 0.290789421058641 -2.337874408783807
C 0.5352555557376738 -3.3025883779435175 -2.2555920266977894
H 0.36672194596940527 -3.831306753046997 -3.1870788204281952
H 1.1079995620160392 -3.8869791409225085 -1.5424933079775542
H 1.0088891570770386 -2.340788317174711 -2.4200019136575013
H -1.61632903523609 -0.6535678374845042 -2.443588908687875
Rh -0.7528738001634002 -0.11492535367081515 1.886883447026451
I -1.1003425089828802 -1.3048227741878984 4.263776441299981
I -1.472361261911707 -2.960460647051563 -1.3476373756442268
O 0.19431859263583343 0.8831205207562096 -0.6695194589762723
C -0.40654255385227106 1.043417532748979 0.41709709702030295
O -3.211425667804617 1.4789211906845912 1.9218382856205904
C -2.4906101004130243 0.5795059019079177 1.5948475380661606
O -0.6852528954245398 2.388448115658788 0.7319529587308572
H -0.6229230033940039 2.9388685824738356 -0.0655205279614058
Rh -2.6894953249626763 -0.835981568778788 0.1795851839093852
I -3.8589377031630665 -2.7661229187357232 1.6416824691003469
O -2.5422746019059494 1.8169159071923184 -0.9276003565928455
C -2.2496306253095373 0.6228442694077725 -1.0404527890887012
O -5.134318155584543 0.3395633870478008 -1.021498011010002
C -4.287329406916751 -0.4033947785617173 -0.7122250417291878
Rh 2.4050502759864503 0.8577206336241988 0.45816589505179056
I 1.3299784248130129 1.5778791310300255 2.899857113326188
I 1.4796831622000475 -1.5803622000494932 1.0568337565861743
O 2.2747346191837994 3.6824623883507805 -0.3768171752230793
C 2.5251669718733454 2.617719605215704 -0.0203017184979389
I 3.324459295437679 0.0796470457121532 -1.8502563033621637
C 4.3653867097284005 0.7269498494187868 1.1947505601813573
H 4.6007770610022085 -0.3409629027486681 1.215170750756407
H 4.385527080673289 1.1423596976972321 2.2033890102382268
H 5.069874928347025 1.2551303903712814 0.5526276374042375
