34
## STRUCTURE-ID: 6458fd18f2659c6fae5dbc93 ; CHARGE = -3; SPIN = 3
O -1.1739113177137437 -0.7686099323819844 -4.033386763045638
C 0.35366616201906254 1.6909407426778698 -1.7754691903357778
H 0.2898033260262534 1.6005503617067744 -2.858115228753009
H 0.932087092039693 0.8370999929140329 -1.4169031128833363
H 0.852614156286792 2.6249508401706136 -1.5230948391254977
H -2.0272710443547477 -0.519321510542686 -4.433262094241596
Rh -1.2051465259258056 1.4306170152907285 1.6512936320421385
I -2.4878308967273264 3.7096310628501956 2.0397897752813208
I -1.5429802361616194 1.5760465837168731 -0.9585037283522955
O -1.4979443468833513 -1.2032745177442468 2.786295532841259
C -1.8290317463099866 -0.5069990485066177 1.8390564743694062
O -0.6440209569203393 1.2929918376953329 4.570606820956369
C -0.8981406454806045 1.3524190258264142 3.4606983109115954
O -2.6465704089490383 -1.0230343681987772 0.9044429558153857
H -2.9976673525562685 -1.8989304757582566 1.1830243688661783
Rh -2.9010706861265407 -0.43778499824686906 -1.7183237520391068
I -4.52028798924037 1.2153495020971836 -0.43038700985240647
O -0.2877633219872615 -1.4791797526508121 -2.130869892740772
C -1.2978414535326341 -1.037732996684684 -2.676248946132334
O -4.384242247619626 -2.747903385183116 -2.901522393911107
C -3.8721866364950857 -1.8292048113773485 -2.4385516880646714
I 1.7130725074915278 2.483262447163959 1.4970072271448032
C 1.9039025746795404 -1.3550817352194358 2.6763428946500682
H 2.3057106815917225 -0.6415210670284639 3.3968432667190367
H 2.638678397064006 -2.148995155554251 2.5430998875705257
H 0.9612050539353378 -1.7635500136239035 3.042990346506794
O 3.115952346247245 1.1682016450833026 -2.9855206519843813
Rh 3.0242995661367353 0.42487301068569533 0.4032688390159905
I 5.150066262078923 0.262592811971192 2.061936579728619
I 4.215489735513864 1.9089075049166955 -1.6127623400534985
O 3.3006038489884086 -1.8231904910417513 -1.5561788084438588
C 3.220343119585647 -0.9944537367950363 -0.7456396078016925
O 0.5709594624376962 -0.7234019078010626 0.7922765216820753
C 1.6654535208620291 -0.6762644804276348 1.345766613659405
