37
## STRUCTURE-ID: 6458d72e14b4a91bb07e3919 ; CHARGE = -3; SPIN = 3
O -3.1340223953551294 -2.4986166826659244 2.705092034558961
C -4.5678623677878205 -2.5554484820997256 -2.2859279187863364
H -4.012844940667961 -1.805215955517436 -2.8427702848234624
H -5.5699935346405045 -2.7049331949615874 -2.6733129246630916
H -4.010362482597028 -3.481420143598493 -2.20715991181816
H -3.2242229976907755 -3.081193907158308 1.9279154293291199
Rh -1.106582523889103 2.357462791278919 -0.315445022994577
I -1.418466796910098 4.4457008737893045 -1.9184198033010103
I -4.7992618422742 -1.7654533774680683 -0.24201864361564676
O -3.3315673258525336 1.396312499171397 1.1335084477110633
C -2.0742106841662236 1.5207364883085388 1.2270821699421568
O 0.5157058297980402 3.79890135689144 1.727105400650026
C -0.1343210189458386 3.25180827879578 0.9286691362813728
O -1.5574895034854694 1.7175396837065497 2.4997749419704105
H -2.1775898482235774 1.3053915781060386 3.1419300488361417
Rh -2.383630374587709 -0.5984067733697828 0.6223640262964507
I -2.0984867863867827 0.5158803437292814 -1.8594577296038939
O -2.7971721785337333 -0.45559100645963246 3.4106453981387195
C -2.7903754822175704 -1.2126669752233235 2.4485465438486522
O -0.09090921618945709 -2.288299760801939 1.4920785071496763
C -0.9107510502739642 -1.6754852264213014 0.9473776595466604
I 4.921567222272172 -1.0076993101220755 1.3822177573809569
C 1.8365327528050484 0.4629260211335273 1.6544707785021469
H 0.7674558180916607 0.6301573362070123 1.420975322146033
H 2.1179465459388815 1.316380588365053 2.3151063151550457
H 1.845967754735782 -0.4386227480994673 2.2999312112924564
O 1.2642752228948055 1.8550756617707238 -1.7277757645246694
C 5.703369730529482 -1.314382317688358 -2.558229256002451
H 4.8508252445802755 -1.937921598777976 -2.8109248147527737
H 6.208028052846069 -1.6862707599934537 -1.6716927886645094
H 6.380496947271517 -1.1899244708240508 -3.3950679193960784
H 1.1570973500146702 2.728250807286738 -2.1652714016194494
Rh 3.12503458146331 0.3564231888151721 -0.03170214882654705
I 4.910842452536465 0.6865094966841798 -2.0699347119262015
I 1.7742155798392059 -1.6127754508494483 -1.412522089224501
O 2.602880231643529 3.04501894237362 -0.37791501678545064
C 2.2078820334147697 1.9198522056871203 -0.7192429774074147
