39
## STRUCTURE-ID: 6458cc9cfaf80f10c96f9e1a ; CHARGE = -3; SPIN = 1
O -2.2048678187366475 -1.6329605877923334 -3.78739398835626
C -0.09514859137371437 -2.3592857401258605 -0.9500581155049689
H -0.3208995509582427 -2.847565169053801 -1.8929608082909957
H 0.5491864980478275 -2.983245664184128 -0.3387948585460442
H 0.40425137378571696 -1.4162846355644607 -1.1680410186058918
H -2.904665958307847 -2.3027247772360693 -3.6811089468641254
Rh -1.083193287685247 0.29998461542536836 1.7422460641516015
I -1.4273529086349992 -0.9446006737240106 4.007020527959091
I -1.874631635801471 -1.883190618905053 0.04649712763020209
O 0.09356981244875079 0.9622437223249403 -0.7671330997164509
C -0.9498958638722732 1.0303478830090118 -0.09503717684016545
O -3.3062501842773044 2.2526741956884626 2.1142019304112254
C -2.4835142929434078 1.4607945945558978 2.0033111929056595
O -2.0669549852074764 1.520517385048801 -0.7009346567744866
H -1.917143116950214 1.5664521952920103 -1.6776061041881443
Rh -3.6322046733480775 -0.7281069814676873 -1.4253854436880689
I -4.804662760528907 -1.421331498142421 0.8456153199654602
O -1.6332455192267212 0.39708233023141315 -3.1336395946851576
C -2.3888000972563375 -0.5618382440813606 -2.9361931168131323
O -5.7362606552847115 0.411488187030148 -3.2163471524213505
C -4.961587256844564 -0.05892816117224639 -2.5081872876194193
I 5.148262028568539 -1.5836432566683438 0.7907637026300499
C 2.991482488399309 -0.4658946060910327 -1.3899616735197702
H 2.864074888325082 -1.556424421346172 -1.470440901086702
H 3.8540194719157155 -0.19456929894741795 -2.027869948265086
H 2.106091268443079 -0.0031843606484612207 -1.8633768135764672
O 0.7799650135279743 3.687314607974941 0.2532807517093401
C 2.037316882081683 -1.2956864768241378 3.591437202763047
H 1.449559464968363 -2.134592437448055 3.958623868536037
H 1.9308746591626043 -0.43277261874515843 4.244831779432321
H 3.0856377299609177 -1.5672272686641415 3.4833482036109724
H 0.0432344354505723 4.065836023868231 0.7649593990425587
Rh 3.3578068241412935 0.35754010281335774 0.4898805426467355
I 4.126149084337183 1.6723513228499174 2.6878057763465626
I 1.3221232007770014 -0.7539742903477216 1.5921111369295002
O 0.7532308801627894 2.1547881792757866 1.9178132856768557
C 1.3051349832107602 2.6064474681644323 0.9090252872960042
O 3.1323019471695477 2.6429944630097766 -0.6316808695322629
C 2.457006222352173 2.039174510615562 0.219378475252447
