37
## STRUCTURE-ID: 6458da38fcc50e3edf3a373d ; CHARGE = -3; SPIN = 1
O -2.9704589725257047 1.562806380699317 -1.618444663308323
C -5.614027788220515 -1.6153955246338134 1.581028192221034
H -5.756355918117113 -0.6410928403956628 2.032440189307167
H -4.82980872127385 -2.1785160372590804 2.078862119917588
H -6.538888058996424 -2.1766157629268466 1.5192756274511947
H -3.423292638475115 1.6191797586764323 -0.75877415656383
Rh 0.5171536760564226 -3.340610717241081 -0.32520214870042796
I 1.8220704141654656 -5.222606584435633 1.064539656455316
I -4.931809475321605 -1.2804833739407282 -0.4939282594263466
O -1.6950937967432365 -2.4304663806992703 -1.9827548328047833
C -0.5186867782532043 -2.1868395903514832 -1.5517757389696603
O 0.49799053236757196 -4.235942599718417 -3.172342214354544
C 0.5609727319632734 -4.0450274653187925 -2.000739296324507
O 0.2657044195281651 -1.3644564592830173 -2.3853107932613855
H -0.3774331904121766 -0.7611177525459352 -2.825340417958214
Rh -2.0437622689683517 -0.9485280511226116 -0.3756825004766937
I -1.8483920714450641 -3.1081088628128195 1.2702985376342304
O -1.6895328747966012 0.337796232940172 -2.8994342434816494
C -2.16864374876032 0.4523179959019953 -1.7662498712510257
O -0.9507080378953804 1.11108330057237 1.481668674891049
C -1.492747411108095 0.32560136700895675 0.8123383622707147
I 1.6621261541609955 -1.3281369682564927 1.0260051423426189
C 3.194784077775429 0.19156020534635762 -1.5921957957066155
H 3.2537399540860505 0.9147878068316686 -2.416692624933705
H 2.455256872901867 -0.5576919078803354 -1.9172453354768568
H 4.168762530624833 -0.3361949118987419 -1.5389006887383798
O 1.2076035887779202 3.2119536317526642 0.48345577229031395
C 3.6629714409199576 3.556611317741299 3.50452651009845
H 4.503988972343071 3.7282071120868903 2.8372600456128727
H 3.974253417504272 3.412125535873956 4.535403617755548
H 2.914787094165082 4.336449811339975 3.406478404066942
H 0.44577392423667456 3.7795800255130216 0.2451673645706613
Rh 2.8108169177218962 0.9702921107965952 0.30135806341848476
I 2.6829392782895805 1.614887005543113 2.8806844506292077
I 4.488554440283926 2.837853961425183 -0.21721858385385825
O 0.469080405902886 1.7282825063542473 -1.0309078496711723
C 1.2903109075377108 2.0664557243162145 -0.19165071567148073
