34
## STRUCTURE-ID: 6458beab0d47f664990fd863 ; CHARGE = -2; SPIN = 1
O -5.26912304902675 -2.8064693900838646 0.5263988454691514
C -3.7971264310917 -0.4888682463682157 -2.1847743643034434
H -4.604154568464769 -1.2095562953414563 -2.2385368880415637
H -3.512712447685477 -0.1391154371852495 -3.169842451760854
H -4.081155734137927 0.34604887481623076 -1.5493724983010422
H -4.938713536161903 -3.7053747594256943 0.36131784276054235
Rh -0.2886774000648848 0.24610412234134182 -0.33114428565269954
I 1.4995742609890286 -0.08458452413538699 -2.2855476715666065
I -2.124092724143193 -1.390396889647156 -1.2536026622513103
O -2.6603532493166058 1.5612460973380438 0.5073847115773046
C -1.7956220756994403 0.7422687769015178 0.8288603436080141
O 0.7320633137933089 2.221629082549122 1.6371748482025732
C 0.4774458614673152 1.507416234637115 0.7547839410031685
O -1.8966057088904795 0.13290934151192005 2.049904461806636
H -2.6871570577118487 0.4446101256922346 2.53101321664935
Rh -2.414674466702557 -2.420691733055105 1.0974080655134093
I 0.2259532935687591 -2.562862210644632 0.704132987760464
O -4.684868761890167 -0.8417012468434701 1.3487092058090753
C -4.312661155990831 -1.972358535738105 1.0530136430603907
O -2.986336108726461 -4.039227913105233 3.5490784397801187
C -2.73356729903875 -3.4502361002420217 2.58858275137708
I 6.231182741071196 1.2787932749361386 -1.3062052002152964
C 4.148536622455145 1.1077597892786513 1.1579920816109248
H 3.2134121038358794 0.7452404318025875 1.6128749632061048
H 4.270964712813649 2.1742845376232722 1.3617735307767977
H 5.000606180819285 0.5600616929094971 1.5594623038287878
H 3.213372026681937 -2.918930285847891 -0.07643661265073258
Rh 3.7520910994500887 0.7113398399072692 -0.8331730836522548
I 4.451912449909591 -2.008038998878607 -0.44082500625717136
I 3.879033576808818 2.9166102630923714 -4.0655125580054445
O 4.527249068411567 4.435228569072921 -1.629100440259925
C 3.958041279826312 3.457445499313243 -1.9779576841370363
O 2.0687578555206545 2.9316202629555517 -0.7305406361757059
C 3.1374053273213054 2.517795749863086 -1.1572941405688613
