39
## STRUCTURE-ID: 6458da2969dde71f18662270 ; CHARGE = -3; SPIN = 1
O -1.844024975692139 -1.6777484134562513 -3.6786982946254567
C -0.8348967048885663 -3.621311782513042 -0.9185855886393628
H -0.19159531187149573 -4.056361169971227 -0.16262801245346717
H -0.25029209977107014 -2.9934657368570936 -1.5853975379120422
H -1.357057117101419 -4.391419612472003 -1.4732659892448197
H -2.621425420619131 -2.2499256758639983 -3.7972789594952685
Rh -1.7005490512171042 -0.6116625134393041 1.9430873181741652
I -1.9307222995277338 -2.4335813349259823 3.811662731602665
I -2.2869606822770683 -2.3653704548897787 0.039642767026722946
O -0.3935294913873633 1.384097464316124 0.20045920277766863
C -1.4303078708819061 0.7884942237414534 0.5485256794766352
O -2.461850662832528 1.9747902359958232 3.186670152732072
C -2.1834144558932067 0.894796718755969 2.850585317500238
O -2.577881433197126 1.3000503748144614 -0.027527203151819175
H -2.375359762196665 2.0619062826556087 -0.6066449163526118
Rh -3.584281063971831 -0.7523981062475879 -1.490909222159516
I -5.214060237841302 -0.9153694129920604 0.5901027532483163
O -1.164619364115352 0.12679719210979734 -2.5896919693701332
C -2.0637530816351086 -0.7059318680861216 -2.7054022489420517
O -4.933249394635754 0.6418316405656379 -3.759365299252722
C -4.5094012363159806 0.08354475428437101 -2.8328032766065094
I 4.473571168878582 1.0275805090512715 0.6219404311715907
C 2.835954700379094 -1.9518164152173991 0.8423435361381514
H 2.4182417728811827 -2.953199975802009 0.9662983740356721
H 3.3626877397236044 -1.6563049237591143 1.747484577010109
H 3.536838808821369 -1.9511037637873825 0.007329403645856822
O 1.9785287738432866 2.2605871317262776 -1.9191200701121758
C 3.2948803761821766 4.113727808111651 2.6021879680795665
H 4.285855209246111 3.920029712045603 2.2037894281065107
H 3.049861791891649 3.403508790149896 3.386963436512542
H 3.1791551991132754 5.137852052057091 2.935380625258716
H 2.01952027872546 2.2331622201784205 -2.8947205894998795
Rh 1.8752401859406465 0.9650702427001749 0.572061821353495
I 1.8571924222130223 3.7967774962995686 0.9680684952978279
I 1.2140235110320226 0.5073491214156798 3.17481263838812
O 0.6080465079237536 -1.4120798267508328 0.20247904768523983
C 1.7131612267624035 -0.9875291202325657 0.511098188642884
O 2.1549441538776852 0.040899303384095594 -2.099626709305008
C 2.051527890435509 1.0237268329059717 -1.3713080067422982
