39
## STRUCTURE-ID: 6458d3d36fec6056870c2d86 ; CHARGE = -3; SPIN = 1
O -4.013812450705164 -0.6289683319480277 -4.105883545779939
C -1.152560208603296 -1.2893181343970388 -2.2385431960180084
H -1.6898438438903773 -1.238487674975764 -3.1796308780351357
H -0.46836640654900497 -2.1299694117349173 -2.23134216802996
H -0.594871946767112 -0.36459626619873137 -2.1057166752933947
H -4.673305164570125 -1.3381376583726057 -4.0044727133714115
Rh -1.7961956518731879 0.25689620887229514 1.4301581513782038
I -1.5176530052036803 -1.684658036212262 3.20051788597241
I -2.539109597537908 -1.4325658688389393 -0.6713070168935718
O -1.0775244070315166 1.6984179219764355 -0.8774309654706837
C -2.016073619263653 1.4456402078958823 -0.09433658306625764
O -3.443882390604699 2.494078021129852 2.4881248780413863
C -2.9346097514644254 1.462504659812729 2.282952394904107
O -3.2652364928179383 1.913002890212824 -0.4505914802308023
H -3.241852282024104 2.234493337399326 -1.377404779494533
Rh -4.776708738478873 -0.38234343651616937 -1.3122810140022683
I -5.236865253237486 -1.708160202332188 0.9230745112556538
O -3.2836881800310516 1.2240915374741073 -3.1524872669514488
C -3.978079369869164 0.21602851110269464 -2.9999949844962934
O -7.292403859569541 0.9755046928334867 -2.167255299715928
C -6.366976012798182 0.37555488048411506 -1.8247585812151914
I 0.7679137773837253 1.1835118841191798 1.8408598102364382
C 3.810151407733379 -0.914130502075804 2.245898030485659
H 3.056868205368456 -0.9087414588269566 3.041319647662047
H 3.906704612454588 -1.9183692810012747 1.8280361784445303
H 4.775926303333299 -0.5847262764753018 2.634282590633377
O 2.2646130976417305 -2.9344759218685788 0.5007970792620184
C 6.460862596914105 2.4454499009956567 2.2006653812789874
H 6.817849305397311 1.835073110195152 1.3741743109719502
H 6.706611704135501 2.011486078522819 3.1643081860630855
H 6.798744466573789 3.474454976244373 2.1217943909777337
H 1.7921627165591356 -3.6766478568728895 0.9321864714287109
Rh 3.123095263106004 0.4131621316700596 0.7864041074206977
I 5.244257062511408 -0.08313495091426874 -0.589886769155166
I 4.200898597879697 2.49316946151271 2.072047398851523
O 0.24069746007426004 -2.030817926008783 0.15085297486165647
C 1.4684782809932815 -1.97141428807639 0.07498438000089408
O 1.808015656677364 -0.21752547428923016 -1.5014333086978515
C 2.1157681181495382 -0.7153314545217426 -0.4086815342096916
