39
## STRUCTURE-ID: 6458f67f6b3cd4673946620a ; CHARGE = -3; SPIN = 1
O 0.09639847196365477 -1.3947461758585218 -1.7071800385705995
C -2.205629206482928 1.5577682212784545 -2.249194572477472
H -1.3836128584419736 1.3290424443407107 -2.9151051579870515
H -1.8056569081917333 1.8179444666813727 -1.2740885959345238
H -2.8089924046395685 2.3694081366461837 -2.635716798802673
H -0.34801449075249474 -1.7048854115764351 -2.515667750949229
Rh -4.784837942240199 -0.1699694242130026 0.29395725938982414
I -6.970358022132228 0.7871718424486356 -0.815736943428851
I -3.4180256304970587 -0.15179772333340122 -1.965782620395045
O -2.162872901394262 0.603093631747965 1.0340189028277644
C -2.9992506478982843 -0.3113010143338541 1.164095812437167
O -5.452009055770901 0.19425184111891744 3.166619121770918
C -5.291683537826581 0.03507587183331851 2.0267054138110776
O -2.748279176474385 -1.2663092626007966 2.128543311505593
H -1.8996650562162893 -1.0949408082905403 2.5767102981179764
Rh -2.518233199401467 -2.241700986009514 -0.7065329955190298
I -5.05586231865656 -2.921944554543631 -1.013069535028119
O -0.09191165335383278 -1.3477938938689704 0.49874264874148483
C -0.6772316639597259 -1.599070564166785 -0.5509561590136104
O -1.118463054616091 -4.688465703665086 0.25918492421759676
C -1.7486485713015645 -3.80087493989317 -0.1314449599145986
I 1.5326736468730857 0.9624882115436936 2.770449743374248
C 5.048868372874859 -0.07654420089624792 1.873220163122962
H 4.535702246445968 0.04714706870621993 2.8245712700499968
H 5.8615163390076965 0.6422758180857048 1.7807405558345457
H 5.4562130789924765 -1.0880997938584855 1.8436638761782886
O 0.4678446659715385 3.087169715038281 -2.2200533112285936
C 2.5898127185364714 2.9518178991551114 -0.27902310762361276
H 2.154369264122196 3.8441608073655735 -0.7082081248995478
H 3.581932525032444 2.760230668855289 -0.6703557647598853
H 2.603304582348439 3.0105511030061414 0.8042931575276943
H 1.0218044244087103 3.1941527562621315 -2.996097174845973
Rh 2.2499091991604447 -0.583344421799699 0.760386656912678
I 2.7279133066308527 -2.7820776718516727 2.2919282231669333
I 1.3244111641832397 1.3273176510733746 -0.8608662131576343
O 4.532108701262355 0.5991191503318047 -0.34104958159596105
C 4.135347194386991 0.08606440656760254 0.6841019889587476
O 2.913715471833689 -2.3498522017375105 -1.5441664318309267
C 2.655392926212828 -1.6325329595898244 -0.6816374899825056
