39
## STRUCTURE-ID: 6458f49f519ecc6ae41f54d4 ; CHARGE = -3; SPIN = 1
O -1.6354392145163217 3.5155576010208054 -0.5912965584737833
C -2.263210232718463 1.9287227788084065 -3.416652200522506
H -1.6215070179830733 2.7478744192898796 -3.7159517430442124
H -3.092394807155827 2.2960998185983246 -2.822344024165281
H -2.63288529684444 1.3835516314821155 -4.276809113512273
H -0.7801897018737609 3.0559789304558733 -0.5600653159345877
Rh -2.861414936496773 -0.9835311555381566 -0.9739450707945587
I -2.4142980806006613 -3.0104037953039438 -2.596807718612386
I -1.1072979567839318 0.5866320847153659 -2.1874696754507665
O -4.4534321869147115 1.2306272614214575 -1.3171980044882523
C -3.9547581333951305 0.661603926262189 -0.3164333435666135
O -5.1901094334384785 -2.296892230863883 0.30528347364717323
C -4.256055474470566 -1.816157423427362 -0.19267493332360644
O -4.839142078064755 0.595673543155925 0.7844000566546344
H -5.6196128770606295 1.137701004233341 0.5793879473558577
Rh -2.132757635883567 1.0315187888244555 0.7778923162959797
I -1.3557175062738738 -1.328336240309228 1.7724359318318252
O -3.66050333789265 3.4235946410624556 0.28863610474210766
C -2.615766308338115 2.807546463694353 0.11658312326258354
O -1.6647486018138777 2.9985844853442787 2.97081000994926
C -1.679815560856247 2.1548787844185604 2.16000379660725
I 3.610586325417675 -3.3097982387320233 -1.0226540677174276
C 2.244970770946062 -2.8552402738217704 1.942098567281814
H 2.930989416501339 -3.664515488113366 2.2019651346044706
H 1.3259753871614435 -3.292489921447284 1.538181741909126
H 1.9752504257399246 -2.290095127943457 2.845976347848726
O 1.8618449439178104 0.38925031016296097 1.8234613102732338
C 6.890928074668106 -1.5365395301017186 0.2580156091899476
H 7.880715333333577 -1.5250651854252255 0.6993184568432165
H 6.697661747192755 -0.6614170114467435 -0.3548973763939027
H 6.690215783666532 -2.4498757836688463 -0.29377905226867845
H 1.723607312991126 1.1896736532470178 2.3598310815394714
Rh 3.004968650847042 -1.430073960858366 0.6518185073094631
I 3.624496876405559 0.7159472853695105 -0.9125906825260235
I 5.456384090063237 -1.4786775150197555 1.9107567697836583
O 0.5449896316817089 1.4296486161867927 0.32346282640635365
C 1.2242767720771146 0.45064057461793094 0.6255961859166977
O 0.7185039919348547 -1.0301265310104795 -1.1811649730731406
C 1.4246908448302165 -0.7720711893414769 -0.20318144538433375
