34
## STRUCTURE-ID: 6458d92496885d0bed1a57e0 ; CHARGE = -3; SPIN = 1
O -3.485159159812999 -1.4099157834565228 3.7970500546950245
C -2.177709025953267 -3.234322307329552 1.4878213380732472
H -1.9634554612150703 -3.79621687630117 2.388964184175552
H -2.118079514550085 -3.86421177536832 0.6068581402709204
H -3.1400086733067387 -2.7349589930069818 1.5384742478645907
H -2.572134360505669 -1.7229672972298542 3.895002267646484
Rh -1.4757417645916289 0.16951787328351042 -0.4253876291854488
I 0.05486536432675465 -0.7407634171367166 -2.4018519591625886
I -0.6535603024650096 -1.6911105615277264 1.2763936343212439
O -3.97709631952165 -0.6416041213391711 0.47146537709483927
C -3.2373422037795945 0.3534836767789325 0.6163724360184799
O -3.025866370316776 1.9518896646724748 -2.235981000493977
C -2.403143653478002 1.2520079943495228 -1.5479092902588192
O -3.889435626760371 1.5831735440982084 0.6942615670998868
H -4.847798672525254 1.4316008382077658 0.7850021230411198
Rh -2.036346938678322 0.7766693731692438 2.4072192454233177
I -0.3440985393830263 2.5400234429805297 1.2267233708895176
O -4.70415240388121 0.3038530609364001 3.1533581576605396
C -3.5775820996519623 -0.17330415719572798 3.1804711028965076
O -1.3446039785845483 1.156637187109843 5.292869162139085
C -1.5650481507202405 1.0475069508895414 4.158719038476022
I 4.137514815824913 -1.7477848939398073 -1.0101596482603625
C 5.803353221550014 0.8471726546319064 -3.305600730814713
H 5.435877106592659 1.1333139600661863 -4.290565453860277
H 6.079091149377711 -0.2072376848382853 -3.3514471397304697
H 6.665827706836702 1.4516787765777284 -3.028996706270787
O 1.8003238007509625 -0.1870864852500408 0.42393963832380255
Rh 2.9043365944808786 0.21574142452229084 -2.3935046584216124
I 2.3183549306143783 2.2499389926652715 -4.0546811543345695
I 3.3021151966691353 -1.2609074078509348 -4.514084429355709
O 2.2600180937039904 1.649538161947182 -0.8610780768721655
C 2.129263791264844 0.5406783834769989 -0.45283725472819325
O 4.892512750035488 1.7069230335173318 -1.2652842312090555
C 4.754908697652961 1.0510427678898382 -2.261595723151394
