39
## STRUCTURE-ID: 6458f80315e9d730216c9d3c ; CHARGE = -3; SPIN = 1
O -0.3083704136108418 -2.752302527522788 -2.070210101120864
C -2.170203701002716 1.875525365243767 -3.1811103901684965
H -1.5580879765572937 1.4060656842605428 -3.9415544520169625
H -1.540231913993521 2.1793035281932687 -2.348522009024438
H -2.725581245634197 2.719722487635583 -3.5718676978586568
H -0.7661891657679357 -3.531279840320631 -1.7162331409835825
Rh -4.4300774985532385 0.8616231366388033 0.04000688660694137
I -6.5164021551426385 2.2084234490046084 -0.8055036641395927
I -3.4937345928174404 0.4198962215373851 -2.388121342141932
O -1.6498262777530537 1.4450630666349096 0.32797384763194326
C -2.511461236482844 0.6072705213941526 0.6993677111313877
O -4.797384628290129 1.416338726098519 2.932326605741086
C -4.7263929759198176 1.1774115584807634 1.7969086015295344
O -2.273319441669483 0.00998396911293536 1.9418492845038742
H -1.4167247056015222 0.3155270482107384 2.3072808513025382
Rh -2.607014546752675 -1.3754691612025975 -0.7381783592449415
I -5.3557908524413245 -1.8371669714490513 -1.0020714371428483
O -0.4288278133521735 -0.5759413051742847 -2.329809723783123
C -0.9287736684353898 -1.5591275563368738 -1.777713997731288
O -1.5646384711621406 -3.1533675869419873 1.413721855908479
C -1.9795440792810044 -2.535874914439513 0.5208213548095177
I 3.0488994707932546 2.464248676295201 1.9866673715401981
C 1.531817377032484 1.7565017049934672 -0.8678736747710564
H 0.9609361854103811 1.2058275135237264 -1.6254839852831549
H 2.1052665839822087 2.544530010513873 -1.3877690158084859
H 0.781672108976204 2.254058978817485 -0.23267384208872985
O 2.149747285885165 -0.647573375978574 3.342766312913363
C 6.457886035089505 -1.4516990718233638 0.4874781811649751
H 6.187377252122599 -1.692275915743458 -0.5374813302575255
H 6.9064013903243024 -2.298376502773333 0.9984711793104021
H 7.088240374390873 -0.5699399877408108 0.5370483078371483
H 2.0386436058062753 -0.4355420828622084 4.296532533880201
Rh 2.80175393261263 0.5287738220795487 0.20823990008075186
I 3.4827580453599087 -0.622702583313443 -2.0406977820943806
I 4.581781264587593 -0.9890229545677603 1.5725666656980475
O 0.2717055900219548 0.5065658268633159 2.9698778861829456
C 1.2277727801292286 -0.12894218779917643 2.5580062169718008
O 0.7110861199933157 -1.2891775703262986 0.5365634364387176
C 1.4148319577038173 -0.45687919921617404 1.0884009544762911
