31
## STRUCTURE-ID: 6458b5be6aa5625bac239c2e ; CHARGE = -3; SPIN = 1
O 0.11389948942443079 -1.0114496147304641 2.8189539986718253
C -1.0599190523751947 -2.9993423870138045 0.3219716829318591
H -0.254834627605223 -3.227819594253304 1.0125667475829316
H -1.272209292309581 -3.836455681892595 -0.3325979502960757
H -1.9533195468632782 -2.6867747393498 0.8535864875565956
H 0.9953326464092364 -0.9887534318941086 2.4079977689896377
Rh -2.398488791533868 0.022118098656595652 -2.039437004694869
I -1.6687991573887715 -0.692168517553844 -4.498985022859116
I -0.4695544879595058 -1.3347304859333968 -0.882709997725023
O -3.5459819857736887 -0.8886920523033783 0.3789837715248617
C -3.123563446745952 0.11531303389218127 -0.2103845400438734
O -5.2735934634209425 0.745502174510449 -2.3258973921018185
C -4.1390883248052415 0.46786818073001435 -2.351812797275232
O -3.3398582443296276 1.336035954318003 0.38872125051934453
H -3.762192770986 1.205556458782899 1.258350865825257
Rh -0.45300700197926047 0.8342310185566653 0.5717915907507294
I -0.46723550981625356 2.2672454289673154 -1.7050155720193603
O -1.929597975466042 -0.20588307045671644 2.709838543051724
C -0.8188406831422513 -0.21106340397483767 2.190106771069916
O -0.008616741895202992 2.8353864636766115 2.7434488200924596
C -0.1609750757607332 2.1267030691065227 1.8360497774985192
Rh 4.130477350078496 0.04205916950585909 -0.7745741211499645
I 2.9181859934775156 -1.9495505194697353 0.561177926433473
I 6.299177040534505 -0.204045119579614 0.6139191567874481
O 1.792263684261942 -0.26767795461757266 -2.5820162037497787
C 2.698954090138378 -0.07759474553449812 -1.9024959736887368
I 5.325728446972252 1.5589350409235603 -2.5366403118671195
C 3.094188660575148 1.558542311469562 0.22412027341609383
H 3.613890079598476 1.724415018796816 1.17643570496589
H 2.048728539981439 1.2594229386908662 0.4319108027496118
H 3.0688501587048718 2.4826669579737026 -0.35736505294706505
