34
## STRUCTURE-ID: 6458ec8fd279f363bc31c1fd ; CHARGE = -2; SPIN = 1
O 0.36029173174601475 -2.0688310931487384 -0.0660656334611933
C -1.7737779986386173 0.09356254686970508 -3.9409344602860554
H -1.8122903622320903 -0.7541300362770332 -4.616584830420528
H -0.7952691497507262 0.5626830607954775 -3.9452821926601565
H -2.5606195126673152 0.8152341443314808 -4.137557060274418
H -0.12224685611367538 -1.7242846444643067 -0.8531164948376203
Rh -1.983578959281257 1.1183328001861346 0.0009346948669523783
I -2.346549696295295 3.0612243688650524 -1.6944801658158037
I -2.1360086515083068 -0.7499643773354007 -1.8756226198777473
O -0.06951949976488188 0.34112951444498646 2.02044511945214
C -1.2694449598189768 0.11121537619670127 1.75997185828066
O -1.6561585773931065 2.956901653209726 2.3018253975806453
C -1.8343344786205562 2.2816063356411544 1.3803018119674528
O -2.0866476060604096 0.06398618264732397 2.912415192586201
H -1.5340955953088353 0.13015236670376418 3.708980211774134
Rh -2.3249203710370425 -1.5101072985493564 0.9043614400106297
I -4.648851278508079 -0.21873835201160538 0.8582421277307206
O 0.028269883195506742 -2.50814372673387 2.082136662207967
C -0.47124714471742996 -2.1203187598007096 1.0303240117923251
O -2.556473189871546 -4.480695185388643 0.8036471461205918
C -2.6671311140059344 -3.32998252120457 0.7659393782804675
I 2.57412356851646 -1.0881221506645684 -2.636382977313293
C 1.8602063956344095 2.347698229767471 0.2336046048585995
H 2.474472376647088 2.3349004094885943 1.1321515595407066
H 0.9432708729326645 2.9139895070504434 0.42864467590620453
H 2.410767380641064 2.83240792841892 -0.5755289956837137
H 5.445263040906936 0.8506474307310782 -1.922372267138637
Rh 2.6574588226657427 -0.657898934118656 -0.0694226203188665
I 5.102038919234595 0.851967673087746 -0.3607933257848843
I 3.869374907724632 -3.0226880894543475 0.5743610195927946
O 0.38601552258166544 0.6930933391881641 -0.6642722568635313
C 1.4772702928570138 0.9660071505980898 -0.21527429173404264
O 2.5161034253094825 -0.5536446298491049 2.913690689438934
C 2.5442378610007865 -0.5391902192210768 1.7617125904823583
