39
## STRUCTURE-ID: 6458f11681194a4c7b6c9d33 ; CHARGE = -3; SPIN = 1
O -3.254960717666257 -2.7473099283122924 -2.259466418345003
C -0.8941400008747757 -0.014023969224091772 -3.0853210750917106
H -1.4714892380191453 -0.4572328859804778 -3.8879354081000286
H -0.3824741156521262 -0.7855601426649267 -2.5168838512984957
H -0.18158115343033712 0.7127800526293897 -3.4600721301677644
H -3.7814171926247138 -2.29113214408431 -2.9392142107377035
Rh -1.6796502857659446 1.9726851530750806 0.6378635319508632
I -1.3565490686567179 4.464671111014865 -0.11112222748503904
I -2.260060303755645 0.9808807079164603 -1.7488594593004074
O -0.7767219868543915 -0.7044368116183295 0.8739785953804011
C -1.7206512373843472 0.05873294157393357 1.1073226251806354
O -1.9904451417421676 2.0822749126123683 3.5914714394040583
C -1.8668830154276714 2.164119037252913 2.438719424524862
O -2.8496987829305516 -0.47803059675735293 1.6771997193644335
H -2.7640623220385043 -1.4516496941377808 1.7357791140751513
Rh -4.2082490891557525 -0.42911091465642215 -0.7200496903172288
I -4.868704124099113 2.060593683217486 0.03235199488215086
O -2.80045956736774 -2.7374416357071594 -0.09810701986061589
C -3.3596057714630323 -2.1587336566516333 -1.0273958870898354
O -6.6640948399030995 -2.0937702998434715 -0.3396436465756583
C -5.754578596990154 -1.397296570388338 -0.5012218863244929
I 1.812626147161624 1.7467873280994657 -1.191955684654024
C 3.646143511417291 1.67071670992607 1.6625182685941733
H 4.126205180134967 1.196720420589468 2.53595655203838
H 2.9759472797848887 2.451939639929593 2.0433476979590797
H 4.4168591394851155 2.1792608344771165 1.073353208226286
O 2.4469849743746055 -1.166754801389493 2.7882074762174898
C 4.946794742446575 -0.40413525886440044 -2.604378786458418
H 5.919183409004193 -0.4433922916458487 -3.080367380593712
H 4.413796357240529 0.5155822474601126 -2.8252674520682675
H 4.335754097487516 -1.268915024797451 -2.841792036079123
H 2.410162020836093 -1.912650070774088 3.4166855312234903
Rh 2.7293882035492962 0.1115003436314637 0.614697883898933
I 1.8804098783008694 -2.13191517596758 -0.640829329680401
I 5.2857053650880585 -0.43827027993592055 -0.45066179911628046
O 0.37824295664233765 -0.7216785854733803 3.577232504052311
C 1.2838347452996917 -0.4407390445131015 2.7935130761017315
O 0.5984436160594793 1.6640233183794308 1.9251872648571127
C 1.2799949274906528 0.6409113416025519 1.8051594714128711
