34
## STRUCTURE-ID: 6458d37ec781003a434e4133 ; CHARGE = -3; SPIN = 1
O -2.9993708728603994 -1.460928591532391 -3.4167151693116797
C 0.00203814471239356 -1.3179645069574282 -1.600170124197324
H -0.5249296830216362 -1.628475812740717 -2.4954585943698304
H 0.8534044961222091 -1.966155228498133 -1.4248384437176778
H 0.3360484083675164 -0.29171123322693904 -1.7381676928104834
H -3.5512798964080865 -2.2137778421371865 -3.141302426191324
Rh -0.960509624649634 0.6962011535787789 1.7533687446891273
I -0.17064834392507533 -0.8113686174990993 3.755886542133584
I -1.3494062717342683 -1.3136798909232497 0.005587243900376583
O -0.5965514955761483 1.9019610339809294 -0.7433697309547307
C -1.4589568375131152 1.6313887066692705 0.10473290515400555
O -2.614327849181721 2.845197309150094 2.9978134804565033
C -1.9399003456199024 1.9757841421076334 2.6390474077525963
O -2.7703923924856633 1.8881411142752997 -0.20504794733568335
H -2.8427944200149273 2.2409706432617758 -1.1143591956407322
Rh -3.7341734543849756 -0.7095117400421386 -0.701098809399354
I -3.8947015773924085 -1.4811450675568 1.8347099336553987
O -2.5121369691685036 0.6286240165824605 -2.8782168294540473
C -3.0652808327404695 -0.40637221567102727 -2.5129624936022883
O -6.4902574593786815 -0.18347177484120403 -1.7288290445384047
C -5.450372080928094 -0.43557199156855453 -1.2977748846176154
I 1.6104499915342543 2.4711023432137935 1.8783758781047781
O 1.7298951005042829 -1.0550330978805382 1.0938666570026156
C 4.918623064603618 -0.3064508457643571 1.9202366051891644
H 4.38070723337502 -1.1289697890085963 2.400230117589496
H 5.86388468106835 -0.6224817437384074 1.4873133130146114
H 1.7762713968420643 -1.9607413834451766 1.469376414703636
Rh 3.7326579771760886 1.0898620521591265 1.0828071120462353
I 5.698304421872292 1.8240190658935815 -0.4895280517125365
I 5.293070910107548 1.2236637186964123 3.3763580187383004
O 2.3014078209813134 1.004792795552757 -1.4773449088274468
C 2.6801444711939406 0.5419969026856645 -0.4205755901107979
O 3.176365371385583 -1.8024703483954276 -0.46518909379320283
C 2.5727169171373734 -0.8674232763799793 0.05123865645465028
