34
## STRUCTURE-ID: 6458f5b040acd4150021fcb4 ; CHARGE = -3; SPIN = 1
O -1.1478198641800925 -2.2685767821754785 -2.4529894099894545
C -2.3086155219533047 1.2943144979972836 -3.249092403942333
H -1.3804822893072186 0.7359198831138479 -3.3117220858027876
H -2.0902644658859457 2.3478692416876936 -3.1185715660264512
H -2.9388562758088788 1.1240932668347454 -4.114483395378802
H -2.069009613198495 -2.454910248692169 -2.710111452114786
Rh -3.211052303567498 1.4553014471008805 1.095987632337797
I -5.167784511405713 3.2001898192001597 0.8038003342334893
I -3.40032051968518 0.6087069755126866 -1.4996384991076597
O -0.4510165162439162 0.7428446356724354 0.9110198552325152
C -1.555094692309826 0.3901396499900746 1.373046379104298
O -1.4536587613880168 2.7193815549475846 3.1362188971977525
C -2.2549116473517796 2.3394220828860584 2.3707079434857152
O -1.5643938685351215 -0.47677384119178234 2.4552758623574276
H -0.6632152262444645 -0.7847105302517186 2.6847912014831263
Rh -2.6652981704789993 -1.4756713636801773 -0.11296449338642542
I -4.898823676707973 -0.9016026637871998 1.2433309839621953
O 0.14020873864024233 -1.6345314391332757 -0.7991956569401976
C -1.0252669833236943 -1.7932443572352672 -1.1568986006357522
O -1.649788681968596 -4.035102981793439 1.0343899467737112
C -2.150920620256137 -3.079755374121547 0.6121700263419532
I 1.7760881201190448 -1.8373797816401152 2.3828049903055204
O 5.512436054327097 -0.9837336448744916 0.03323937753628981
C 2.553320376769571 1.3635541753356177 1.359180352624118
H 2.8601432598911574 2.18107862216635 0.7000833418988361
H 1.8005378650934523 1.7649758460075853 2.0602945525251974
H 6.381525202288533 -0.528139524620456 0.07633410252105235
Rh 1.6698362383865701 -0.16566556324847836 0.345180418090236
I 1.4317653399744543 1.3467459912417576 -1.8037744562458753
I 4.285360722250149 1.0659468793220581 2.5778740299087244
O 3.1207465128752636 -1.9994499899208018 -1.1069848623056637
C 3.2194587706443447 -0.9500212372232528 -0.49268677882510453
O 4.7356542035995215 0.9101389608454306 -0.8608988372057991
C 4.559512804941677 -0.22135420627253585 -0.46571773001288885
