37
## STRUCTURE-ID: 6458d890b11b1802da4c93b4 ; CHARGE = -3; SPIN = 3
O -3.1477350341758257 -1.3030470226926978 3.736922381717805
C -2.427699270953962 -3.555540109889529 -0.760400565915586
H -2.164088085806137 -4.354418842484271 -0.06836206051428995
H -2.0499350866947457 -3.733533033077185 -1.769876803794779
H -3.4921533315884603 -3.331160869043023 -0.7820750938957172
H -3.0597858433486707 -1.9600194855843307 3.0184649710191875
Rh -1.1806506221036215 0.21725864601545405 -1.7602636368255695
I -2.5815693771272215 -1.066897478613628 -3.456625910501776
I -1.3072142244073448 -1.6712239945880463 0.029097212224225462
O -3.0983768474863775 1.0697712244534048 0.19161647763354164
C -2.5410853452371907 1.1934216451628765 1.285631688782428
O -1.0682460382510042 2.9530139529886763 -2.8892900259164525
C -1.1387937746240941 1.8292957167109425 -2.5893492684351034
O -2.7970810761751723 2.355247123617401 1.9716103901197723
H -3.4741206065407018 2.8853896024559487 1.5033219557297037
Rh -1.0797920835474344 0.12894637984336996 2.1472469675937633
I 0.3661282700260662 1.194998072547027 0.2288600059261538
O -2.417158265375413 0.6085590546529401 4.539711864393175
C -2.3510467421355505 -0.21425714650852043 3.6331609942263072
O 1.2497338244611391 -0.09914235641662279 3.9743165764720114
C 0.3825379420834784 -0.31931858989762346 3.230152569395418
I 5.305780115012773 0.6210936367954107 -1.533018387837657
C 3.2057946877251347 2.129548817943923 1.5916878279300315
H 2.715365944977789 3.136492570829978 1.5182661059399127
H 4.26310850625989 2.332410473636227 1.8637059294359408
H 2.751776249018698 1.6614894576221755 2.50141460316509
O 2.981111333960502 3.5138950961382776 -1.248228318212183
C 0.950424601528032 -3.06245142356683 -2.928681538056871
H 0.722989104196993 -3.4755043004807216 -1.948600389277536
H 1.809260541211445 -3.543150970501489 -3.3846871188632464
H 0.07981596301657835 -3.068663190300193 -3.58254965638967
H 2.790690174930816 4.139350693446912 -1.9738896550501204
Rh 2.862590522261091 0.7642744651717014 -0.41958198130266583
I 1.5057925916449215 -0.8792576129264363 -2.6188124428837853
I 2.9966943409091544 -1.518842433614735 1.0154780091066395
O 1.9022043920936602 2.172180294146523 -2.666382477658965
C 2.53473255026075 2.2497919360066905 -1.5999911994790845
