39
## STRUCTURE-ID: 6458fb3aafd0795df11c326d ; CHARGE = -3; SPIN = 1
O -0.32060882181788186 -2.259790338216801 -2.8028603527793456
C -2.617014221232624 -0.2403113057296968 -5.23495510237297
H -2.161755843875778 -0.9177579327066295 -5.94743593726077
H -1.86681756540883 0.20466024456125487 -4.588090716339217
H -3.2083167504251757 0.5229274790120166 -5.726493521222739
H -0.6362525922641943 -3.1715512836310604 -2.92460535125876
Rh -1.2267980595935457 1.6113070486851617 0.5862180379662394
I -1.5371495182735824 3.9004954630428017 -0.5701064745253817
I -3.9386147968400964 -1.3820730918921433 -3.9525202363633776
O -2.5034372505869036 -0.49703955549174245 2.024297320488268
C -1.4145090470659882 0.047226545350430985 1.805327745141812
O -3.414969886028478 0.15452057691086055 -0.8205163862755304
C -2.5181313271414987 0.7532452189821922 -0.3905197661723175
O -0.38737940946175947 -0.40531367473490315 2.6212361407048776
H -0.7127964522731999 -1.1043356439645977 3.23049233712141
Rh -3.0176628883698275 -2.149770646880275 -1.6479937500152189
I -5.386742928406461 -3.1381981922487685 -1.126981259441384
O -0.9276247837889039 -0.2590381462350621 -2.084553999513828
C -1.2613203879664476 -1.4402536819485834 -2.174471226025117
O -1.4349586296673733 -3.0368892253055577 0.7206546664564165
C -2.1019901535108656 -2.7517388334547097 -0.1960962956748137
I 4.05827852515329 0.8947305905046241 0.7233498051104847
C 1.4858878537766143 -1.098893637530231 0.12612583513516085
H 0.6106396544978009 -1.7460494681403715 0.32455073110523625
H 2.31908857511041 -1.7708074977432753 -0.13268177750959195
H 1.252646851461431 -0.5234928512358352 -0.7799171948877235
O 1.9548630333803032 3.429857090753856 0.030974000667225235
C 4.251084044202879 1.2367945390681074 4.800368374468209
H 4.423567244599842 1.9062769007500278 5.634725357369449
H 4.954536530482078 1.4045660176680506 3.9898371187354726
H 4.257272720902366 0.19509647213004147 5.105866006560793
H 2.353694604511526 3.835517636618441 -0.7643116906566522
Rh 1.820200150768123 0.09418204677671384 1.7817957513478657
I 2.8002725216895454 -2.052965268684077 3.0950537162820444
I 2.241214035014814 1.687545187783337 4.006921061942058
O 1.3915387086613409 1.7616212659085653 -1.350114051482802
C 1.3830422285419017 2.250360825292642 -0.22775964647367047
O 0.20824765733470738 2.4164883663832755 1.8204966814558081
C 0.8287763739104864 1.6388507595919466 1.0146940481924114
