33
## STRUCTURE-ID: 6458e34082ded24d9821fcbd ; CHARGE = -3; SPIN = 1
O -1.9365092532630146 -1.285406439888787 -3.9683860505120694
C -2.810122715383279 -3.907791722511673 1.0307872091444796
H -2.973899890975862 -4.748307469253688 0.35599154078726464
H -3.6978651864744285 -3.286659314153752 1.1492372424934636
H -2.411930427198049 -4.2239861825871765 1.9954584075602984
H -2.2785125134595314 -2.107895185434809 -3.5642541631188074
Rh -0.5902281415835738 -0.5350886170243427 1.5016213855516747
I -0.6938070480197787 -1.959222790716089 3.7612665460928283
I -1.229498175632315 -2.6561064907463865 0.05082457866013679
O -0.0769368244393755 -0.23820900603066728 -1.3069440695799277
C -0.5961293367757932 0.34716087273982105 -0.342753061636801
O 0.4233665660088043 1.6772379137598514 3.218310135197301
C -0.020373830830256973 0.8707862993783024 2.5262373721959763
O -0.6898431874628257 1.7144541777290645 -0.3037152237881089
H -0.1378520193987094 2.1041435987117927 -1.0103931753602389
Rh -2.4079691665817613 -0.1936566223116258 -1.2810667422897013
I -3.1482126402312325 0.22942492877552007 1.3991438491783796
O -1.5960973057291248 0.874530982486204 -3.6331629451258327
C -1.976222850242829 -0.19579455935322634 -3.2020372704248343
O -5.31240926694943 -0.4079202722350966 -1.9534459325977975
C -4.18550710389316 -0.41530716158746395 -1.7795880776481205
C 3.8689192644635186 2.5179270340498654 3.284376658597885
O 3.4187252209277625 3.1060815048250565 4.239917083635591
I 1.869234311070944 3.849622009172049 0.9124637372431693
O 3.0010497371783758 0.25822176920084705 -1.9978239539858806
H 2.6226458482640767 0.2340984006456967 -2.8986204836962464
Rh 3.317365751057416 1.4057825224168423 0.48054246302000625
I 5.470587557500749 2.399562967825674 -0.9299800408076013
I 2.0730927187720627 -0.9664512727978372 1.0076352065097873
O 1.6126595924258005 1.9914292967072411 -1.8047674296005949
C 2.4936030236599884 1.306575914237134 -1.2723729925941267
O 4.69325647805947 0.7497653881485875 1.8333556196404777
C 3.9054208151353818 1.490997525823048 2.502142577258051
