33
## STRUCTURE-ID: 6458e37f741f31135f04a074 ; CHARGE = -3; SPIN = 1
O -1.9851458946678122 0.12934229382303888 -4.572868546483932
C -2.0829374373742855 -4.401998227723627 0.09186047469910853
H -2.133710533068428 -5.173028883270289 -0.6713049518930717
H -3.0565732200011486 -3.97271300447774 0.3149749537290174
H -1.5951457362327237 -4.752617302492674 0.998320473911421
H -2.2602141351165215 -0.8012025511752152 -4.650857419662739
Rh -0.3751818791185622 -0.6101273243371731 1.1144877227011805
I -0.30209632995508395 -2.31750131240417 3.187056053729579
I -0.8095769728109138 -2.766255078014753 -0.7307561114078864
O -0.03841717267074841 0.03096878141542451 -1.5867448937849105
C -0.5355872440346477 0.46894031258350377 -0.5319466027653548
O -0.901427103293665 1.3004221186442793 3.0478635840631934
C -0.18440299978041322 1.0978650305144564 2.079292274584787
O -1.0947102576646814 1.7303725252047586 -0.5318008260509013
H -1.2068327698527808 1.968511769832934 -1.496438025392691
Rh -2.442002940034735 -0.3007257813094815 -1.6351646894553438
I -3.0608877623210944 -0.3959804557983771 1.0864699441939634
O -1.6335601841358243 1.78610733445679 -3.1712410661482653
C -2.011440436202427 0.6157256403483751 -3.3185375941321507
O -5.057395034341093 -1.376680614616078 -2.559552959929539
C -4.034345192840695 -0.9478373509386214 -2.264853320007025
C 1.535051183672277 2.131061861212463 0.729125172077889
O 0.598664199766119 2.1698897924927016 1.7281551356397133
I 4.495682671741826 3.7272241969719935 0.4525526313724419
O 4.662294133780787 1.7285789345405924 3.1979577785273263
H 4.69758621242979 1.674389456531249 4.177876252492795
Rh 3.5026530822684365 1.3225711071311208 0.7262964033480448
I 2.2200664509880705 -0.9508633154587044 0.6780449997657364
I 5.78660805597403 0.13039906173424662 0.34030986002716584
O 2.552735703994214 1.0023615390802936 3.3545421737741634
C 3.5065673041261216 1.3453520448744076 2.6782732791953716
O 1.7602548006808685 2.2593072418716655 -1.7165506865963231
C 1.483427436093613 2.148140158753796 -0.5448414741215356
