41
## STRUCTURE-ID: 6458e884d56f2d4924175836 ; CHARGE = -3; SPIN = 1
O -2.599614832120306 -2.224340675127581 -3.385425277851667
C -1.0900703951190984 -4.466493198812503 -0.33436015655507884
H -1.5549269214260875 -5.443354293884836 -0.38684276563194664
H -0.19785196849887995 -4.514353565428588 0.2876845058427875
H -0.7975390831614306 -4.121274812741413 -1.323128146072437
H -3.47844367415984 -2.6088320048121743 -3.2130185275403704
Rh -0.14877002575932416 -1.7647862736563247 1.8612135395718057
I -0.1495426426694677 -3.5595853887185775 3.785128404600823
I -2.4368560428215247 -3.046011091921381 0.47496461119773314
O 0.18200023386860126 -1.8412308514955484 -0.7758000433270033
C -0.2088211959076577 -1.016922561824359 0.07803955167636259
O -1.0272251839425814 1.0547995891018511 2.2846515126361413
C -0.9328677228850859 -0.09017379757468517 2.445391663183688
O -0.800551931913779 0.12540428420615995 -0.31557799310358076
H -0.904310256192205 0.05516750818068724 -1.3201123041984444
Rh -3.3308722178236425 -1.0095257264720732 -0.8372472154742772
I -4.728438088412489 -1.1230945471348848 1.3869257143088638
O -1.2558861700451414 -0.5908767534828031 -2.7651460844355253
C -2.2676715785029886 -1.2478638036278777 -2.4691636072167307
O -4.4212715368309174 1.2728144143231304 -2.4127476777732504
C -4.086011118155695 0.37857091962876743 -1.7711714626806414
C 1.1126273457795006 1.5983338934852012 -2.4146220739193094
O 1.6530814766006698 1.1774961685460508 -1.3518045786207529
I 2.299876876385637 0.3755914366503556 3.799995551927614
C 2.3158830651816644 3.8277606601385314 -0.030933055374265158
H 3.0767027832316014 3.9964828230051483 0.7254053066717399
H 1.7160325848319482 4.712673420375135 -0.21478576051811343
H 2.7702644355892247 3.4648189581784448 -0.9456909100083379
O 0.16027617642922593 2.5537361820737514 -2.09156046487251
C 0.8523021082440819 3.6215044652268253 2.4557464234952824
H 0.5460851161080614 4.604772414645921 2.1182440355045307
H 1.818343515756524 3.6470695933774753 2.950470299688927
H 0.11129702815795106 3.206791940776827 3.129954298895451
H -0.21683244588629264 2.944204586115967 -2.894986638385639
Rh 2.5441521221952663 -0.18774228211411073 1.2650357057755026
I 4.762221478146108 1.2192715563147374 0.9529296631055669
I 0.9824537020520719 2.2973900755016174 0.6908860321998742
O 2.9856714924679024 -1.405011031339773 -1.401905617826507
C 2.75996324329906 -0.802983418920644 -0.43195573621860023
O 2.138956437181159 -3.092065314880533 1.0444457887482115
C 1.846183810728215 -1.978133495881913 1.3508734885741203
