33
## STRUCTURE-ID: 6458e1e1fcd4d33d44378243 ; CHARGE = -3; SPIN = 1
O 0.3657681588770802 -0.6345275181245736 4.58216745869664
C -2.3080143385879968 -2.740413627645671 0.6057422776010343
H -1.8990697783989925 -3.104332989075867 1.5398961654463972
H -2.3722339744605447 -3.5188527595765553 -0.1445529873768094
H -3.2586230644408722 -2.246486929418667 0.7690348665423814
H 0.8682318210748184 0.19457881150185494 4.641914590032523
Rh -2.088262368865201 0.7803053325662274 -1.5705021235529553
I -0.059674699697572706 0.31207550478719304 -3.29585188957883
I -0.9812105820951623 -1.233558448521712 -0.114180874835336
O -3.728972420903438 0.11990613803877961 0.6767361157316811
C -3.6216506190650124 0.8251657679299229 -0.33350420672837405
O -3.7771135385772245 1.9786379067775564 -3.7260932608075445
C -3.1556712697274456 1.493505322375515 -2.8753387084021242
O -4.581515178784625 1.7680866117983243 -0.5361954830868345
H -5.227236087362586 1.7787952489709664 0.20055116085131053
Rh -0.3525433214955092 0.5939874050780755 2.024840054717528
I -0.7877937600642567 2.727969104249593 0.20352121583463859
O -0.7884175062341722 -1.90855204840936 3.212044806418885
C -0.25679581377528704 -0.8200910621781842 3.37862940144087
O -2.801373102121321 1.3950440059405331 3.552811830142133
C -1.8183296792508215 1.114001710739787 2.9936558930806902
C 2.808351615041649 1.314437104536748 -3.2067304634434577
O 3.0681783629354413 2.169783124828884 -3.968101444545878
I 3.592630736905517 -0.8438766012612549 -3.6295952910665905
O 5.223931001027109 -1.201074884457742 -0.186081369240005
H 6.186055639675348 -1.0832802801816932 -0.014629075587579251
Rh 2.73111149134292 -0.5688237855194144 -1.068204614425671
I 2.2548556584706883 0.2644442112190811 1.4685813216662627
I 2.4688080579958376 -3.1525033463128294 -0.4842598358909405
O 5.150293085733372 0.8921420357607565 -0.9771836150608827
C 4.635720259272318 -0.16497091128184768 -0.713205824656681
O 2.044578448296912 2.2618762985776324 -1.2439347203783995
C 2.4659867672590683 1.2366035462879919 -1.7619813695380884
