37
## STRUCTURE-ID: 6458d78d9fa7433eb91c5e5a ; CHARGE = -3; SPIN = 1
O -0.979982703266222 -1.0715283723460063 -3.5914101368699773
C -1.6991147005368101 -3.2033597115036505 -0.5984029212559392
H -0.7778140366003916 -2.87572243400968 -1.0728125058796814
H -2.2303079706442572 -3.9091035945563672 -1.2254432715772814
H -1.4864455260873797 -3.6303400507543118 0.37725356935148163
H -1.7312780751463752 -1.6552737589930897 -3.79248350505846
Rh -2.0965572745220356 -0.03706906798828305 1.7528984213380938
I -3.5720105035636167 -1.3932038931164987 3.4798851018903094
I -2.969701380464946 -1.4465765731994595 -0.3072434678412407
O 0.07395404541301587 1.4075546357740238 0.4008760705643035
C -1.1333970303719887 1.1295631348317845 0.47806587085802116
O -1.9248014018621493 2.748126178755098 2.798958265533392
C -2.131126405840379 1.6227566413771444 2.5390657216003363
O -1.9464732673374783 1.89795634295722 -0.3536877219175431
H -1.4032576823348901 2.514248110228001 -0.8812805822726301
Rh -3.1662164025178945 0.32412052150952875 -2.19644513189754
I -5.463256112852188 0.8450411764055161 -1.0138085224647622
O -0.4924007564959634 0.9188106620720542 -2.748144654042378
C -1.3735298881779507 0.07370302726409636 -2.9068313461873143
O -3.314763451908679 1.5925318078477526 -4.893642164306182
C -3.370730631659102 1.1177520223885105 -3.83320125744595
I 0.3333515928323734 -1.4458226252033 2.2806164498322246
C 1.590565037004742 -0.9496908210106032 -0.8742730064019334
H 1.6631404638578202 -2.0254261111897303 -0.6604402721978578
H 2.2269553561992783 -0.7419620293754641 -1.742827213576318
H 0.5539537786329253 -0.7477099552368061 -1.1958717414610278
O 3.70737462055068 1.2187367582090292 -1.297291888219496
C 3.6071000569983855 0.2934104043935669 4.469586446325926
H 4.580556601391956 0.06776545168319296 4.046026246855438
H 2.9949348483781417 -0.6022882997585608 4.523361682757387
H 3.6778227153507204 0.7924126116096436 5.42871075800564
H 4.039935928266134 1.997500503648316 -1.7876106243291685
Rh 1.9956688116722163 0.22030992644100333 0.7933321307261225
I 2.5977965208716425 1.690209827944516 3.089139566332709
I 4.2256702339242 -1.0585139801752808 1.0166243648306554
O 2.549151608497921 2.751103615054089 -0.17240535557919512
C 2.8452329823485516 1.5699779180230078 -0.32884337602015284
