39
## STRUCTURE-ID: 6458f6d867789201b74665a4 ; CHARGE = -3; SPIN = 1
O -2.550439766591387 -1.4419196218541517 -4.121539555616121
C -2.0227791234965053 2.0681663936932377 -2.921444121274176
H -2.585214818948997 2.237408229516537 -3.832819834065188
H -1.2486830933386848 1.32401408380982 -3.0995695741218237
H -1.5589940310331845 2.990979238617629 -2.586635263280053
H -3.4859644959313054 -1.5325836739691916 -4.3737198483516275
Rh -1.093545215029627 1.2995874340897826 0.43613901927864335
I -1.1942966143399674 3.977967812529802 0.3923947283559734
I -3.303991870583991 1.3059296661012452 -1.4170182739280335
O 0.008970812227306092 -1.421070509285726 0.39314159553868094
C -0.99639533408199 -0.7039328532928553 0.4444763224283038
O -2.514531889774588 1.013546863527281 3.043989501954863
C -1.9619962278211582 1.166377280149699 2.0454749149342297
O -2.1831350152441797 -1.358221814759046 0.6031375179772642
H -2.058190223980318 -2.326554213507979 0.6976767293913879
Rh -3.8833305910268248 -1.1961614583924953 -1.51321613118787
I -5.630654980313228 -0.11514920151286333 0.14012252557788923
O -1.2162427997731846 -1.403535587152373 -2.357789264894562
C -2.3836797038454605 -1.434718917765181 -2.7470864660417633
O -4.62812389751081 -4.046031135480445 -2.0173322305532326
C -4.402528065217643 -2.9317805643294346 -1.8094507644493885
I 2.8811965101679946 -0.7850842270304397 -1.8902191984439611
C 3.8549098434693 0.6880416603763282 0.9605631933638455
H 4.715180455486702 0.027405374892722285 0.7821192257110776
H 3.967205437430156 1.5346903728005696 0.2653486356397214
H 3.946877442100091 1.0892742173551622 1.9776963869278725
O 1.7215415044013165 2.809936369156381 1.7203157514115501
C 3.9085560271657815 -2.8834077790067703 3.480694188462287
H 3.257014437570328 -2.233222405804366 4.05734376852065
H 4.932788638095642 -2.530216046007787 3.4974052089828063
H 3.8329407607004637 -3.916080772172651 3.80048552177769
H 2.2337196273395055 3.6285121166391203 1.861194496316096
Rh 2.0664052345070005 -0.3368036968519435 0.6422411821948056
I 1.2198408587596175 0.03816060140311382 3.11976085985694
I 3.218392499090661 -2.7965168140949888 1.3853174432833602
O 2.2021508112774137 3.1868721129149007 -0.4312827755976496
C 1.6461311828136511 2.4935240363286537 0.4203321131519067
O 0.33609242883441476 1.2709200575027193 -1.0869382330381328
C 0.9528032464454258 1.2416773708654798 0.038690703805776876
