37
## STRUCTURE-ID: 6458fc9c5a647f37e421c078 ; CHARGE = -3; SPIN = 3
O -1.316696150893191 -2.8934829374075135 -2.8392428731423776
C -0.5849142812835245 0.974840934668569 -3.11691618037151
H -0.991423250256663 0.6781515839218973 -4.076711784009839
H 0.2881982378816965 0.3807778829455165 -2.869584559170417
H -0.33206309926618705 2.0310595650160277 -3.1117850834946097
H -2.0203467532401564 -2.567211657214773 -3.426839126406774
Rh -1.5778478151501976 1.7723683748904837 0.7213619260110394
I -2.244395517329657 4.114230261703304 -0.21293171714587075
I -2.0777106101505307 0.6444246320472455 -1.6151656595473298
O -0.007317157714749509 -0.19270756998136437 2.183876730244455
C -1.0355408089750109 0.005291839800212361 1.5228366769588209
O -1.7471037831582352 2.195551596659487 3.660474226644236
C -1.7238109852335053 2.1522835635648385 2.5050089048129927
O -1.9275732053679349 -1.0449306271658738 1.4585012187973407
H -1.6188077532622576 -1.8122545475477647 1.9768558902489888
Rh -3.089584522445048 -1.6214007506568044 -0.8792615398459573
I -4.8031515122867505 0.15420370165004485 0.12283898777717935
O -0.822687727300684 -3.229943660239225 -0.7138435897800752
C -1.614075049099441 -2.715496743471252 -1.509472937634124
O -4.4065578241439205 -4.298268840302095 -0.7513329912318545
C -3.980631881899689 -3.223039964812496 -0.7911614803457394
I 3.5371876654530747 1.9023574445659717 2.8357285637697687
C 3.385682264751044 -1.4562875175536893 2.15776832550202
H 4.3606144335336845 -1.2279331406669074 2.6139553683366215
H 3.5080894960990583 -2.382477601459537 1.5800305345780092
H 2.6806807571310114 -1.67688199782487 2.979839439538086
O 1.6032487452944013 -2.3993932106899676 0.04598933967425095
C 1.7486888984702105 4.203177860023972 0.1377953563595066
H 2.0437293045857277 4.340129006595416 1.174556161332719
H 0.8963514225394786 4.830546119305641 -0.11223946969090381
H 2.5875806803613006 4.394799517813578 -0.5244566473056925
H 0.8287757539823202 -2.8430555344361363 -0.3916713528217408
Rh 2.637805081567813 0.17526859959052463 1.031604915319703
I 1.1524447512506037 2.0950707799168415 -0.13613779326576153
I 4.609843791240711 0.19272934520333063 -0.8884903482668485
O 0.5675765330480781 -0.5959661327808907 -0.733173505612367
C 1.4857418712659336 -1.0565301756714185 -0.008603926817990125
