39
## STRUCTURE-ID: 6458d3447e80a0280438cc43 ; CHARGE = -3; SPIN = 1
O -2.549420857951609 -0.8426335685496864 -2.608423227908555
C -1.9611814678457673 -3.754288353175976 -0.49826818278200646
H -2.741003032536226 -4.38936225472312 -0.9044882962332218
H -1.2814259299516932 -4.315806400854497 0.13685476578625935
H -1.4066397178949916 -3.2287069444426746 -1.2710340471077162
H -3.2612751043728445 -1.4971943413831101 -2.728336693603628
Rh -0.7428692829155462 -0.8133142857220643 1.873496455571941
I 0.28509316138390717 -3.0323163292951274 2.8645356822602364
I -2.9377533905487816 -2.252142131664661 0.7789344588202015
O -0.6840528400774297 1.9741795271274414 1.0529446636526725
C -1.3739804577363806 0.9864261753059816 1.3209182162552529
O -1.2840720635835974 0.8242828568685879 4.298655147633353
C -1.0753838078565663 0.05607792393226364 3.4394466160628885
O -2.744636319663246 1.226983238838868 1.4486576960304678
H -2.931699098291114 2.170784459306914 1.2903881453082584
Rh -4.220175527223037 -0.2314715972107452 -0.2693283109339602
I -5.924711233142447 -0.49142082483657396 1.7256359721532863
O -1.9403042384348543 0.894819885182351 -1.3873524032002125
C -2.775962667223636 0.006503519488716739 -1.5515261236527802
O -5.573857702929042 1.576221284588047 -2.2243785896178863
C -5.140673214333314 0.8298322574598863 -1.4420183272671296
I 0.7309533491080897 -0.9029257034457231 -0.31427357513414755
C 3.7528974751291155 0.08805345194909311 1.3239223093617072
H 4.629346479686096 -0.2051171067859474 0.7333208704116474
H 3.2897800282280825 -0.8158080072855473 1.729161514930141
H 4.146234193308593 0.6570979946663227 2.17422965519598
O 3.8363221426806615 2.9550718169735957 0.8551906827207352
C 2.958017958569317 -0.8896241998342462 -3.6936817677467455
H 2.5641716804763957 -0.08196974069492483 -4.300502494937773
H 2.1662528302150212 -1.3842107098882428 -3.138911147934999
H 3.562758349382304 -1.5851194958623291 -4.264127483351723
H 4.031060003416545 3.901921576174827 0.6966318017614955
Rh 2.5745558012758343 1.0426708882172069 -0.23262801165765362
I 1.4816723821540434 2.588623008725486 -2.0843233759234514
I 4.265421352384187 0.014101685059215493 -2.2111054268504837
O 1.921473335053051 3.7656401308365504 1.72709035024412
C 2.6102552871439086 2.7930765560042867 1.4274683972406998
O 1.55888529369048 0.971202000133503 2.5952216620806565
C 2.1859268512268706 1.3898617588164173 1.6320024223619003
