34
## STRUCTURE-ID: 6458bf6fe9e75113f959965d ; CHARGE = -2; SPIN = 1
O -4.233950298302633 1.199158430151106 -2.9436894230574095
C 0.258147093079062 -3.6073352281668405 -1.372359051250646
H -0.6844349024221276 -4.1512525401478415 -1.3741262546786406
H 0.8610660555039297 -3.8710022297069995 -0.5016563812362813
H 0.8242393243411588 -3.7522978092847326 -2.296409653669491
H -4.145202035285463 0.3736033900009677 -3.453087867454076
Rh -0.09478572845695465 -0.37178351996214015 1.0930503797820748
I 1.70937885322538 -2.031908517800808 2.2903443111933104
I -0.24374068295060186 -1.4194000424099344 -1.2852094395416427
O -1.2648896910978127 1.1063315645540837 -1.0368644532251456
C -1.3279310078942717 0.8631806012210839 0.1766884351197128
O 0.5837478813217409 2.386837774730014 0.19723766241462592
C 0.9937057911049696 1.3888670626656783 0.8004762344540165
O -2.028677109796286 1.684377653197994 1.015886381696843
H -2.635197042800132 2.2282831717667286 0.4576180893807388
Rh -3.003398702869019 -0.33717084630503275 -0.6648520770642574
I -2.3995139902903873 -1.7046388915522444 1.698232642564903
O -3.8753009366971862 2.1621341900819333 -0.995299290365156
C -3.828187064548161 1.1342232927643068 -1.6727277332842
O -5.045939498118002 -2.390998183179303 -1.373046196743035
C -4.290300767306304 -1.5581972098102568 -1.1667170749719846
I 5.035010488683036 0.2363639592230731 1.7305153215346618
C 3.069340575784388 1.503905680260505 -0.6330537359031372
H 2.319226739441626 1.5405668852360819 -1.4435749686768065
H 4.0505484419291955 1.321512421350441 -1.0903458016265137
H 3.101275573494828 2.512256640877535 -0.1943622017592794
H 4.186531670742745 -3.150185065077325 -0.8817275062675478
Rh 2.550658418311306 0.08257883207128927 0.8136117598173357
I 3.4215260921007085 -1.7502296197684966 -1.2277277146849734
I 1.1400117567835975 2.313840351737235 4.908302474820038
O -0.2090591499320846 0.6073088323330885 2.993204130763447
C 0.8940985525260562 1.2213943257743034 3.1036738221407214
O 2.533196363892059 2.624516666796297 2.2437277809121547
C 1.7787989365022199 1.6051579763779533 2.0842673988655536
