39
## STRUCTURE-ID: 6458cd4bced86347d70fd85a ; CHARGE = -3; SPIN = 1
O -2.8895904285966023 -2.6745235085620536 -4.108448278684268
C -1.456352165318134 -4.10140371051432 -0.9828877740175327
H -1.8389214788023012 -5.033580107674195 -1.3813441316226593
H -0.7373082336392961 -4.284878808601409 -0.19106154669379985
H -0.9922984974737672 -3.5046581037315687 -1.7642408689646703
H -3.6827895634216667 -3.2221878247081177 -4.237266184844995
Rh -1.6945543807141605 -1.093761606043477 1.0350869609334503
I -1.0435475776621972 -2.88529032139388 2.900731995549661
I -3.0874753151922847 -2.9427258383267114 -0.19271497897230816
O -1.6329478111122626 1.1917849330128556 -0.7436072411526787
C -2.3266677200003603 0.31234836208285316 -0.22738833437194395
O -0.48879414005980737 1.4387604429564218 1.980433780603795
C -1.0715014779427077 0.42598114293895717 1.8434871625639018
O -3.687595689145958 0.4039063941717604 -0.46854940602906653
H -3.8863047857724426 1.2051276379348888 -0.9940187774049037
Rh -4.584997879718496 -1.7310989945522055 -1.8860791136201558
I -6.196520255857255 -1.968578106323186 0.1874264909347988
O -2.102220500074885 -0.9796422106383198 -2.9305059477106505
C -3.059207933667207 -1.731614734414514 -3.1087369707222505
O -6.205497834223338 -0.6694601667000206 -4.161524014123615
C -5.63717928909705 -1.1152107790608567 -3.253054564765054
I 0.9181634342335437 -1.204707798055626 -0.4058562113929938
C 2.24402680968527 -0.14525495965091328 2.5143829057476044
H 2.8520098327209635 0.3335716582772778 3.2888480540604177
H 2.7154271071385407 -1.1051783773276427 2.2721632295813396
H 1.2653685737566889 -0.37724013649903615 2.962147117472025
O 5.292107350551474 1.2999551917006502 2.126535799551554
C 3.1679591732306673 4.954340159805858 1.2145950824409117
H 3.3887380185764795 5.698080316057067 1.9734972680140577
H 2.418030534783731 5.292744512864554 0.5067507651408739
H 4.058457070421894 4.614876156883502 0.6911327447052702
H 5.963125358484209 1.9252183752871843 2.482832885954259
Rh 1.963193992656436 1.035259450969789 0.7887578225793933
I 1.6839685251558973 2.577812633050046 -1.4097813754032904
I 2.346238086672907 3.210170750434976 2.273454667379923
O 5.180376021229262 2.689675177445873 0.38607132684765655
C 4.824574461215072 1.687262261347392 0.9569003323839533
O 4.201033915441789 -0.2196319114035894 -0.31622639123991536
C 3.8194746915378346 0.6937524469608097 0.3780557192916291
