39
## STRUCTURE-ID: 6458f94ea8d6cb3c7114396a ; CHARGE = -3; SPIN = 1
O -1.2212170998515266 -1.3224283514073174 -2.1574380439209846
C -0.9091698375893759 2.596748837202563 -3.4785535366307463
H -1.4752220030237386 2.3574703322776807 -4.376641134635871
H 0.00986524081266495 2.0248641504823697 -3.372122193547536
H -0.7321855907386194 3.666369580778427 -3.3848165822115215
H -1.5207704101681985 -0.5266301232401243 -2.6496464757959335
Rh -1.3553508855538747 1.2017412113552937 0.7113292964459267
I -2.3301094618898417 3.1759928038914764 2.1013034994562863
I -2.235591871747003 2.0502263966279615 -1.726229415563968
O -2.484303281826861 -2.1963646258758 1.8434944964257451
C -2.71051041673381 -0.8503853667160285 1.650176362700138
O -1.2121572363562156 -0.08517709072798725 3.3502887986779557
C -1.5505048573712854 0.04544549605793643 2.1714633872872575
O -3.831985490040702 -0.49056220906249115 2.430451614378855
H -4.255477573563743 -1.295012123740889 2.764820292039427
Rh -3.156565693542104 -0.2952476537752893 -0.28735961015787986
I -5.323836189726111 1.2218776092422354 -0.043159865170824485
O -1.3853128327547979 -2.5703600360741974 -0.37645078515780966
C -1.7195286443825561 -1.5023498721338964 -0.9043205947988688
O -4.558758653628442 -2.8956949864609784 -0.29354153453274434
C -4.181738212965438 -1.830036061045149 -0.5377968539926536
I 4.921186928234566 -0.056141027786606165 3.042440078080102
C 3.595390595016571 -1.5568979259637596 0.23121047343137294
H 4.634108494871336 -1.8616222330057375 0.39851764215268615
H 2.9313173540142072 -2.3036033274002694 0.6996329579919128
H 3.3877815245756544 -1.5358519069874264 -0.844035041766724
O 0.3376212262478938 -1.7158769546875003 1.475214786481144
C 4.051294090448556 2.1063029365339485 -2.561604324683166
H 3.0019797621289044 1.820228497435756 -2.5523614754300072
H 4.627017300632484 1.5549145045646284 -3.2976794172429655
H 4.180621228163259 3.18023824548793 -2.656303391934976
H -1.912809729629887 -2.4736311230737673 1.0629249391760787
Rh 3.173779911985504 0.2692256568824334 1.121623416112415
I 1.051617391363683 0.6811606054892925 -0.3060598657972702
I 4.853724821672645 1.5392191231719887 -0.5744256312909285
O 1.1791471703645815 -1.8890355941691659 3.555807301601646
C 0.9862802802407463 -1.300424116181177 2.4670924285643325
O 1.4378161229454234 1.0428362155632076 2.9693087275655685
C 1.702556529365791 0.01847050647080752 2.333445275694424
