34
## STRUCTURE-ID: 6458fd15f2659c6fae5dbc8d ; CHARGE = -3; SPIN = 1
O -0.8708145879029671 -0.8482513982486265 -3.9654742567221395
C -0.2141152484066038 3.4679864613516664 -1.9428771465035735
H -0.5771611937599804 3.9245691617428755 -2.856073700125759
H 0.6531231866600677 2.8463112844126894 -2.1365608673052714
H 0.01445784042704641 4.220236655914833 -1.1924232052320811
H -1.1696566382864082 -0.03336619493780813 -4.398427278938735
Rh -1.0803012332852275 1.4882732212733314 1.2987916584879498
I -1.3558965382567718 3.9340642344034955 2.206668482312061
I -1.8108727524294035 2.2103579597709118 -1.1402095689171294
O -0.06403773702358272 -1.235703433637994 0.7391578558086014
C -0.9883150720297936 -0.3930063140264031 0.6796280549972037
O -1.7327231710775939 -0.36088478134042473 3.535703428854836
C -1.475342341941428 0.5057627901383166 2.791000222031844
O -2.204546985173762 -0.9484932752964365 0.3294424307299722
H -2.0984422037802304 -1.9018856503440422 0.13209765756099648
Rh -2.9605831712694184 0.012062618144278215 -2.019849642810122
I -4.9864718375881205 1.0466153157043996 -0.6785959011979336
O -1.0572645061430186 -2.024470614534396 -2.101945788932156
C -1.4324836169792807 -1.0075403158291476 -2.7048241307854752
O -4.081301767870444 -1.9608367500783002 -3.9510464260464273
C -3.7673256138824174 -1.146905625836325 -3.1745757260521104
I 1.8113492930168789 1.6402217230486278 1.0519867243979293
C 3.463157446747771 -0.6322654908561117 3.6156417225249955
H 4.292478594123074 -1.3221289597946566 3.4470805067992503
H 3.179355417132294 -0.6278507267518622 4.667781802508545
H 3.803254437895006 0.35685388821439895 3.305056944497118
O 0.1083838828169588 0.4224038660825107 -1.7803214234029825
Rh 2.2223111726092597 -0.9623111641941641 0.769409220458766
I 4.75896055941317 -0.7807423234269577 0.37377891360364407
I 1.7038493313615803 -0.5854290454062043 -2.001063134933304
O 2.09743327682345 -3.910591623399583 0.43482403645093004
C 2.26421818530848 -2.7857352707831358 0.5827872693787739
O 1.266867478135829 -1.527873729973569 3.269477461312482
C 2.2884561146156104 -1.0794464915061115 2.813953805189272
