39
## STRUCTURE-ID: 6458f6250dbfa477ee25a9a4 ; CHARGE = -3; SPIN = 1
O -1.952265283162455 -1.9980366111522627 -3.2788030488475144
C -0.6751168462642287 1.5105112309033817 -3.033884160725133
H -1.3208310920519195 1.8256982799986121 -3.8455790038282602
H -0.2396250052161522 0.5358156905109835 -3.2294360243092686
H 0.10817630632591546 2.236328365292721 -2.8536828127840708
H -2.5857966120503804 -1.4572051414561316 -3.7804090553081706
Rh -0.6127453293105775 1.480313879278477 1.1807696971411097
I -0.5751876710745252 4.1380718351580565 0.963376457357199
I -1.8772048141347835 1.3512599870927355 -1.275660670833973
O 0.050644037390330805 -1.2335109114928497 1.8158972174095915
C -0.8233283718951037 -0.4815234361092374 1.3760519583975048
O -2.6327004763581034 0.9663163789550413 3.3377540944390685
C -2.0516572803806628 1.4088703020443907 2.454344164532309
O -2.0476952802599557 -1.0381327291941345 1.1490362876332156
H -2.0510340687046416 -1.9935856669966603 1.3591222175872304
Rh -3.421138251285234 -0.7013763951693891 -1.0764736612553805
I -4.717376452973019 1.1289097386179152 0.32345017694562256
O -1.534536209166919 -2.7259834542820376 -1.23130885156246
C -2.1923045791008215 -1.9537470857105754 -1.9234799501749162
O -5.3948006715464425 -2.8789796120152125 -1.6225607161638333
C -4.688433027807144 -1.9936126546533666 -1.3937915993251477
I 1.0999392353274138 1.3464745393198227 3.562269608137129
C 3.113192247744802 3.387522029365884 1.6908829869227937
H 2.352693317194062 3.9231306564766846 2.2619140792518797
H 3.278630169067522 3.9051363227493923 0.7441289061457086
H 4.0476074544265455 3.3477753053682817 2.264464314061384
O 3.663653938901369 -2.7911248481639537 1.818526232788201
C 1.472913421400707 -3.017505104144567 0.30469246230545344
H 1.173446130082024 -3.3979280286731592 1.2700727879939124
H 2.113465117551737 -3.725504142811751 -0.2022992718887518
H 0.6103238524644446 -2.7697910282892746 -0.30206234558940653
H 4.5219582351096665 -2.5097003422582116 2.144716867801752
Rh 2.594463132187351 1.4117274031712286 1.3598968422581075
I 4.655589169674605 1.1813378242389498 -0.239835981764979
I 2.5954989348558177 -1.2686704414095005 0.6035712144021266
O 1.2661369734477654 2.217236719621587 -0.9697700136955597
C 1.150897118596234 1.344187128845259 -0.07233355184794567
O 0.36719378320985535 -0.6338159185558667 -1.2125884820286905
C 1.1573547477855783 -0.07689006447095983 -0.44097937157870964
