39
## STRUCTURE-ID: 6458cfaedda74661e4088c84 ; CHARGE = -3; SPIN = 1
O -1.8389421943556323 -1.9954899296411066 -3.162276131811445
C -2.2498305413784343 -3.823841067373116 0.22260067922556837
H -2.8705859428407967 -4.5705055809916235 -0.25879191926723194
H -1.9496935872523917 -4.148927790088809 1.2122693975705126
H -1.3702568303308018 -3.6066029768547456 -0.3748371448650537
H -2.610395423929131 -2.5398593629958692 -3.3978206004205274
Rh -1.1889065288546126 -0.45568221180408625 1.4024404146922271
I -0.9992595781588428 -2.2394255655962505 3.400366969139817
I -3.3959857108822886 -2.0169761005017914 0.4214812200801043
O -0.8633412336445737 2.03490454232809 -0.0753610907172862
C -1.613476967258855 1.115132129266383 0.2387411868161802
O -1.6391747537368928 1.7519406444926886 3.344291977034574
C -1.4982976449502827 0.8546552015036794 2.6229108285304257
O -2.9393391930555657 1.2739918709363327 -0.029664884138253418
H -3.125529502257247 2.153764389027598 -0.425513553634342
Rh -3.961243614889177 -0.5940219036242906 -1.6642127723320959
I -6.027487713607103 -0.18507928811450583 -0.10714259934347832
O -1.2843359731740165 -0.06381005417386322 -2.2401007202657617
C -2.1986372379188657 -0.8745156773359659 -2.448541246819813
O -4.593376454819428 0.5574372961377471 -4.34468046140083
C -4.430126729257675 0.1137536301451062 -3.2900475067054207
I 4.6893741007988465 0.5924927206899455 2.5112379900989654
C 1.7528789925487633 1.9288250443493535 1.9791986470230218
H 2.2931594720836634 2.790286992977922 2.3945953200972356
H 1.317678061954655 1.3901817850306863 2.8425159796969437
H 0.9081075073388629 2.325027262276392 1.3914615858413149
O 0.9192090881255092 0.20719704444071205 -0.763155006301906
C 6.140354394577037 2.54568575204598 -0.6569287591058819
H 6.5866119297649055 3.37031925066165 -1.2001262915281137
H 6.282708380472121 1.5959162581075748 -1.1638365027915205
H 6.486880712345962 2.4891815025112507 0.3703595972692221
H 0.1893785550963245 0.17946253941584112 -1.427548333467148
Rh 2.8445491399322242 0.7023217610906992 0.6938569272984841
I 4.0934715787344 -0.9648731605427038 -0.9926354879179642
I 3.9679817004509306 2.925737005803294 -0.5883463766328227
O -0.12200377796631524 -1.6690250710344743 0.038592254781950296
C 0.6216563715495409 -0.6588131297804909 0.2814063515155442
O 1.9004582893856368 -1.7167978565242623 2.0055258070711504
C 1.7757688593600127 -0.7739678962597518 1.2377142556826823
