39
## STRUCTURE-ID: 6458f1f51f61a252f614396a ; CHARGE = -3; SPIN = 1
O -1.7729167529657892 -2.6204749593782997 -2.8401514495217564
C -1.725114070641001 1.0661480664628813 -3.0533643279993843
H -2.2166454001631237 1.1146348258600647 -4.018003921066093
H -0.9415803899243621 0.3121636359475666 -3.039113452234397
H -1.3228788060868206 2.035106555007547 -2.768689504871179
H -2.3052427531573056 -2.2516649527381527 -3.5682351080428516
Rh -1.6738588914644736 0.27542220785330884 0.8799041424294217
I -0.3104777549676728 2.5236991492676775 0.4417362356666168
I -3.239129839887794 0.5171700715692708 -1.5587360438193227
O -1.790681592175543 -2.2395399466683528 2.2688611802639564
C -2.37934567635985 -1.4552034180578428 1.5082671256270859
O -2.934488238405349 0.6726899553322313 3.5422598287529983
C -2.493194263429434 0.6964641051116153 2.4531498088858985
O -3.7028623788069566 -1.7749747516845296 1.2268696680025146
H -3.952482756924498 -2.600203522276773 1.6849594497628417
Rh -4.238494649801202 -1.9041579910273283 -1.409356131013894
I -6.503706287606543 -0.7369909269600253 -0.78809646032284
O -1.8769177488884734 -3.2361643478141664 -0.7193931866515921
C -2.4802721338775977 -2.6946914482860773 -1.6508129035640038
O -4.872602413043351 -4.729695066653645 -2.1206407788617114
C -4.74775740329646 -3.5969968488755955 -1.8746790641267705
I 0.3525303027611018 -0.9852359992670625 -0.35996432801567646
C 1.4010853290959961 0.41630801338753604 2.726091721901832
H 0.8457040661150067 1.2621934209381385 3.17603615885508
H 2.2122211048169893 0.17275070025609657 3.4339051318086615
H 0.7138199324756304 -0.4557804437409463 2.780151823887317
O 5.480223715761301 0.4859776671067871 0.39926607864004643
C 3.80040642260243 4.425893134180479 0.2642308744288141
H 4.45867395652963 5.137760521781311 0.7554935055487305
H 2.800481481459302 4.8181475829457305 0.09860558146764924
H 4.218922578526704 4.022756089625218 -0.6551631549485167
H 6.27473510637796 0.5328658844697943 -0.17920919004966096
Rh 2.083023321891851 0.8140653853914244 0.7341025248998104
I 2.890633429504622 1.3588845405832197 -1.734427994433148
I 3.5924963786287174 2.7357839533184776 1.68160185100728
O 4.961926730290083 -1.4471168735613216 -0.6036131091918836
C 4.7022285585028625 -0.5394576779692033 0.15517343063030364
O 3.2696298066664924 -1.550867475704995 1.7287681887359083
C 3.421907979868611 -0.5776688157313258 1.0022157975327355
