34
## STRUCTURE-ID: 6458f6af6da95827425084e3 ; CHARGE = -3; SPIN = 1
O 0.9350477668554238 -1.1852487566560297 -0.8576081151188226
C -2.296921079357072 0.8486538480337413 -4.238581579842601
H -2.6308342872855683 0.16256694812502512 -5.009463876354378
H -1.366135886517622 1.3419810296198538 -4.496430630372793
H -3.0643940863286203 1.563557598496301 -3.9576958026776605
H 0.5546169725667228 -1.2718658657533366 -1.7618438059238946
Rh -2.3827843489354708 0.6935503978095762 0.03355601487106565
I -3.1368653160166904 2.9565334831695766 -1.0916739674405698
I -1.8851040313306473 -0.45571983473635763 -2.404365476036756
O -0.8933730090673498 0.930127232321874 2.329546011946141
C -1.6646290694570787 0.12113033584736009 1.793340397353418
O -4.555952765172952 0.9559008509908461 2.0199311608505126
C -3.7423641548498674 0.8585139894511845 1.2026880939294917
O -2.1394500629581144 -0.90125142714011 2.5900133017675526
H -1.7696448691637494 -0.850542407810695 3.490397412901119
Rh -1.8090257044367475 -1.8894401639617444 0.03434955713628662
I -4.346333523415031 -2.4333251922714547 0.024733179924310206
O 0.5248658990721426 -1.1575428751559267 1.3315758456378528
C 0.011765368234241399 -1.3164381819207307 0.13263960934370006
O -0.3058498134130973 -4.456114045550188 0.07685793704789777
C -1.0548397459469072 -3.577623737730673 -0.005652188111252636
I 3.178106538936168 1.2213256637278387 -2.1068451684292078
O 0.3214804123629695 1.2618836643306959 -0.2169638055420045
C 4.712403684782461 0.6137450469977377 0.9204940234023916
H 4.7618397874691025 0.291965940781878 1.969430230405303
H 5.5789993248421395 0.21347786072534572 0.37584348394552586
H 0.36046778524421746 2.191758972564605 -0.5143621494199416
Rh 2.9812048557254176 -0.07046558612475627 0.1551069976657255
I 3.708715725628252 -2.54853497150362 0.903316109927334
I 4.995549564458404 2.7261804396463742 0.998642578636748
O 1.9076453239574584 -0.06590097020849789 2.715415893916952
C 1.434553849388202 -0.10886170326664173 1.5531873364201783
O 1.7697248453382437 2.198678123647593 1.2411319376516927
C 1.307514048791031 1.1373442935035074 0.7692894505885977
