39
## STRUCTURE-ID: 6458d2c813daac057910d30b ; CHARGE = -3; SPIN = 1
O -1.5418189893054304 -0.7922315716717295 3.4438742070995954
C -1.3169565648566657 -2.54845204259049 0.573113719410945
H -0.6468239993184131 -2.9493161443426805 1.3271817085077875
H -1.3097305914917776 -3.1731694072654166 -0.3153037723836607
H -2.3276384217335275 -2.4914140446223305 0.9591207375477119
H -0.7970719336146137 -0.16774658829609979 3.4190472515000003
Rh -2.491179965297316 0.31918344143475325 -1.7490724353518732
I -0.6544328335068836 0.6712102530621966 -3.6078524894522874
I -0.7209666258648896 -0.5749845741128057 0.04770661781512627
O -4.068869484390794 -1.4254932934668278 -0.15252769011836936
C -3.8645877895585623 -0.23290855983832795 -0.4493486154439006
O -4.933222592227857 -0.6790201668088611 -3.1252752123908754
C -3.9119975001756617 -0.24228778355159558 -2.746546264856422
O -4.935350113168845 0.6366562165271711 -0.20538469436968768
H -5.663399396404281 0.14158570333088558 0.20814657761160216
Rh -2.4408231551407864 0.9764340362100159 1.288585485511767
I -2.323025859487395 2.963067904513045 -0.518347485535333
O -3.5676886322390367 -1.2080049565812383 2.684910963946802
C -2.582543369514837 -0.48438181667673724 2.5738446109484054
O -4.132501856362859 2.075312330991666 3.4838497943397035
C -3.4352794914082048 1.7815490387313762 2.6008892686620815
I 5.128891381573764 -0.42687987206723693 -1.1379821384039714
C 2.950335863957605 -0.7467272568332383 -3.469941991498907
H 3.3705592554185464 0.13493164081418352 -3.9546406794336164
H 1.9669744457553862 -0.966367598659594 -3.8954134648196415
H 3.609815682033446 -1.6071541859248655 -3.5988450059591095
O 3.2995784634987544 -0.32441017442170184 3.1429176973693718
C 4.252584498487306 1.7784131400547771 1.5002080556267932
H 4.129432209106047 2.246029543718319 2.473994785495229
H 4.216189172543825 2.500966698546786 0.6904941745749398
H 5.160571498612323 1.1776048497804767 1.454478440077324
H 4.166008338319691 -0.7477532973203691 3.0950814083309197
Rh 2.5955865880012405 -0.3817402281401142 -1.4580470613590704
I 1.8525048000874766 -2.874688253653806 -0.8517557844908539
I 2.5283408413317106 0.47659125424860865 1.2465005299086096
O 3.3139547355732595 2.4132283239706926 -2.2731854705317462
C 2.716074945392806 1.5960047512058413 -1.638813361390595
O 0.5725938529958422 1.6365743111771367 -0.5412949709984205
C 1.8359125923815418 1.519788378530045 -0.524367445496704
