34
## STRUCTURE-ID: 6458fd9bcb9239535656060d ; CHARGE = -3; SPIN = 1
O -2.380239674112474 -2.4608499697185993 -2.565918954715369
C -1.8779466334938753 1.255319845168466 -3.201962808519495
H -2.5740281455985676 1.3964551365946418 -4.020365785052952
H -1.308117759327182 0.33687065786902864 -3.3095056341514217
H -1.2051331622025419 2.101536544209234 -3.1104415832407724
H -3.1933008209593403 -2.2762867153495145 -3.068812547617219
Rh -0.6794058622044843 1.191856258476688 0.609312283465234
I -0.02143612512089588 3.5747341714663374 -0.40206254055071383
I -3.0371427513402773 1.114441546907116 -1.3696240018948294
O -0.39243317390956045 -1.2917776083785042 2.0433896130815676
C -1.1899853307679125 -0.5266855126893413 1.5056685193261794
O -2.3861225414486023 2.253164445853789 2.7980508661838783
C -1.7631502721986918 1.9091534244467299 1.889280904117226
O -2.5255240356080506 -0.7682870305903371 1.7204633107794334
H -2.6434787963846067 -1.5715621168110652 2.2655877284246664
Rh -4.010094277502819 -1.1391286608408977 -0.5034387299564226
I -5.77286311855895 0.45585525105321184 0.632508496248002
O -1.5091271109746716 -2.3533191228204546 -0.5360185086495265
C -2.489642883870844 -2.1081498864624106 -1.2393889752523464
O -5.104071811194559 -3.909392282491336 -0.28948511017573175
C -4.768603073565499 -2.7990561936866323 -0.37378555400588676
I 3.5863639861641463 -1.805368854161651 1.9272764643794211
C 6.489131926651352 0.11985141467352978 0.12767878833702345
H 7.074669627161105 -0.2613338137274817 -0.7055012516493564
H 6.308008653880534 -0.643874742252323 0.8813516699931717
H 6.910877767848311 1.0270801390705546 0.54790564317547
O 4.289949387235283 -0.8111955219807288 -1.7773070415528425
Rh 2.5477003466611685 0.6412323632754394 1.0024840490834737
I 0.9119060126289789 -0.1413313378141987 -1.106509193960254
I 4.571271448528854 0.654770213656066 -0.7401853829505377
O 3.3966566150923496 2.629235614587798 3.0483743412425084
C 3.190324173331188 1.8946207453712125 2.174279333128497
O 0.6300350570930308 1.248010503930094 3.146777466681175
C 0.9249523580681553 1.063411093165597 1.9999241262485807
