31
## STRUCTURE-ID: 6458ed1c6b5aff21960c2d7a ; CHARGE = -3; SPIN = 1
O -5.099654814230793 1.2032114343489049 -0.9614967929401548
C -4.040336534244772 -2.4159306186631277 -1.1991053754921213
H -4.035643664855218 -2.392035646589438 -2.2825318570282147
H -4.947136686699218 -2.004240815397364 -0.7719595172333819
H -3.829961330010014 -3.4105837623904156 -0.8211207949699095
H -4.929351776222387 0.6237953429870778 -1.7278993864135244
Rh 0.2666070864735212 0.13904021730148078 0.1025534333420504
I 1.9285450949225362 -1.9278653753575243 -0.19576634533068904
I -2.2821402728550004 -1.0990402411985514 -0.4810407760778911
O -1.5851912311988672 1.7983377342396185 1.622252675184967
C -0.8291888857711917 1.7531495556653665 0.6300944205330412
O 0.37986912846089743 -0.004360377584867833 3.0690078553613396
C 0.29250313752269735 -0.0535190754667304 1.9061756166719463
O -0.1626857206598292 2.9552664187787627 0.3296320166758258
H -0.4534160522187484 3.6401012618468935 0.9556740104664128
Rh -2.2124979256472423 1.4524803139038782 -1.1824129176783102
I 0.2569047765949673 0.8792622478361592 -2.4253413322388964
O -4.183131482828359 2.6143564556874095 0.4551066247337849
C -4.003663420517773 1.8332700764691519 -0.46156609657425945
O -2.4032325243182244 4.264462086548964 -2.1839084661583836
C -2.3574719814350527 3.148862466639549 -1.8757922075233933
I 6.610861985674265 -0.44975981880541444 1.6098211739583401
O 5.087029574655541 -1.4641198251399887 -1.335504273652541
H 4.513715241704563 -1.5918718321897263 -2.095904684945633
Rh 4.238934064207272 -1.1155889994760186 0.7907494353022474
I 5.9579852243693585 -5.938926622683107 0.5608601831630345
I 5.179391436788189 -3.3758142825716297 -0.2014091004842373
O 2.6226680529986015 1.388400664160061 0.8166413273193234
C 3.2824815282320805 0.4882204485117941 1.3500821080057008
O 3.2819101468887277 -0.5529678467177372 3.6050729342506385
C 3.455297824219446 -0.3855915846934375 2.3990361097728967
