39
## STRUCTURE-ID: 6458c822910ebb324714b5e0 ; CHARGE = -3; SPIN = 1
O -2.970649775237598 -1.3053473371628075 -4.19191922833362
C -0.5991808456392407 -2.6667143357784497 -1.8461160622499144
H -1.107090874407134 -3.0961426757794195 -2.703026816904915
H 0.08205917585619862 -3.3838813813614017 -1.4004630855022204
H -0.05299233083929714 -1.785046982763399 -2.1699582128691626
H -3.724595106845546 -1.9208787885793814 -4.202032254149614
Rh -0.6250638449978501 -0.17757044770194078 0.738606306772821
I -1.4394874315996624 -0.7800950673152912 3.2570192280006096
I -2.0467118434193172 -2.0501052031187617 -0.4318832499870394
O -1.2180129424451627 2.3753131542951462 -0.8692111438308533
C -1.6293628664939894 1.2102157094096262 -0.36643848312821287
O 0.4466162618198456 2.427478341535308 1.6120672526443671
C 0.28298077709895036 1.3142254507089253 1.2813775469890625
O -2.9544482627585453 1.206275047924354 -0.2796869152900035
H -3.3535244086331963 2.05801251508077 -0.566666280398485
Rh -4.066304193277429 -0.882868517197144 -1.4901453046932405
I -4.789980061944016 -1.5964094783541325 0.9419780718201878
O -2.113113688201626 0.37503341973397564 -3.03170759058416
C -2.96966839807655 -0.5094265419018615 -3.0636853162012834
O -6.444282401064055 0.13960704310209845 -2.988554087332577
C -5.565795085898633 -0.2844687412944043 -2.3751855946467737
I 5.193867502270503 -0.46852755028131565 1.5572184496317274
C 3.6003309295790036 2.380659919809043 1.2032352686582024
H 2.790364599350862 3.0711440787210416 0.9145557744437247
H 4.4104648642507085 2.529569695666997 0.47707609888482344
H 3.9767958827215 2.683577375571007 2.1875452043114447
O 1.30681213893793 2.2805264130441434 -1.2424863426143895
C 2.380880549625136 -1.5068443972902323 4.826786845533026
H 1.353988282383951 -1.8626784729765877 4.820110376076772
H 2.7707560896573167 -1.4060331223256908 5.833424169369593
H 3.021426154905555 -2.1180123837760516 4.198047314300146
H -0.23385196923612214 2.3963801307778443 -1.0904832431477094
Rh 2.793767142134996 0.45090010662062513 1.182386996068518
I 1.599228826551147 -1.9559734242794697 0.9309703375928197
I 2.3648923503716817 0.5124896705403696 3.965222118537219
O 1.0368882028299455 0.1919607310074621 -2.025139954343892
C 1.6278514917733227 1.0613883925975112 -1.3518243419993725
O 3.898018823226033 0.46962598131485367 -1.507216363018666
C 2.966126285670065 0.6226416717763822 -0.7337974884085335
