31
## STRUCTURE-ID: 6458b82a37fbf140661b1cb3 ; CHARGE = -3; SPIN = 1
O -2.9659439517167607 -2.869530308155002 1.5313431542664961
C -4.5963077735036055 -1.1174995177870053 -1.0602840208854256
H -4.903318419803313 -1.9055860753431177 -0.3839563937394672
H -5.381783427134277 -0.8488010496102082 -1.7546585884073675
H -4.249987885504871 -0.25380379090474575 -0.503569806979325
H -2.786499435845869 -3.516099365780014 0.8289827971721655
Rh 0.09273310785526678 2.5498365422542477 -0.4832254868112839
I 0.4697243674649702 4.060011681758461 -2.6570400757999866
I -2.919139387465647 -1.8427228957016475 -2.216781537196081
O -2.018371163450349 0.7433162611792973 0.03486797257098044
C -1.230654754641793 1.50158377261333 0.6486662712467282
O -2.2939690584745067 3.728490795441871 0.9759405634288286
C -1.3681875428401888 3.195986131951827 0.4230169709708724
O -0.9456614119174235 1.2725444942884092 1.9519558141441589
H -1.4035690770698064 0.41359094500621213 2.2212321335204503
Rh -0.949804354849659 -1.272798851714371 0.009645062897155275
I 0.9427659658581644 0.09564400527701766 -1.386177122872968
O -2.332793319792879 -0.9628738478906043 2.4073889400687194
C -2.1573765899392967 -1.7663831150650118 1.4783770932970635
O 0.6243748436443841 -3.803757428822732 0.12091618963410872
C -0.03232030870858767 -2.853815259811648 0.10851081972994375
Rh 3.322600010138529 0.19976898166753443 0.038045095637393556
I 4.135128034416917 -2.157665749453664 -0.8604355001921168
I 2.1127856124075635 -0.9900836733796902 2.318195575842186
O 5.806165262093668 0.2801911788927511 1.6542906837610665
C 4.861142802098669 0.26683950700256426 1.0111632906165247
I 2.569473049987787 2.7455958548222847 0.9156925845659961
C 4.2845401104645795 1.1418470038400594 -1.619741707929855
H 5.216531501681505 1.6238783644597787 -1.3179935639103086
H 3.6123647542428885 1.9108460078728957 -2.012917485478872
H 4.485358440303888 0.43144940109092567 -2.4214497231678513
