34
## STRUCTURE-ID: 6458e96440c88e6a432373f4 ; CHARGE = -2; SPIN = 1
O 0.5601273295336924 -1.312860486723434 -1.5656514705385942
C -1.5037067204273906 1.4155434671298426 -4.495734178602215
H -0.48004472201358345 1.6509250831616626 -4.22037717731097
H -2.1181338607587805 2.31032377345218 -4.508074134350117
H -1.5695245938041096 0.8610124160938135 -5.425461699875234
H 0.12120126995016234 -1.4623169869768735 -2.424191737217818
Rh -2.2931809005153894 1.2621966126088724 -0.49731439390356147
I -3.3114957878818148 3.5282797800841927 -1.4269585831161056
I -2.3491097238206957 0.08250953972725879 -2.9010504861522035
O -1.578533952545584 2.7281136992443593 1.8350977512334592
C -2.4728921595972637 2.1522275624667726 1.2156511189070223
O -1.9854847407094836 -0.27296050763986685 2.0417498657158366
C -2.1153991525142906 -0.01360352587127394 0.8824983841828783
O -3.723636143050628 2.111227897264757 1.765787573040253
H -3.765172019147954 2.6241264412656484 2.5953134128920508
Rh -2.1849871599519974 -1.5703149589416545 -0.49874834306680066
I -4.842540963218883 -1.723009758857024 -0.4230369436350101
O 0.39005415280485667 -1.2471864416690221 0.6191256539534051
C -0.2317647197396197 -1.3698172498298662 -0.44987162718375096
O -1.449814677322787 -4.450112003350797 -0.44557548282117293
C -1.8450288867301692 -3.382038735471549 -0.6594644514331727
I 0.5730201030282567 2.0342822544519605 -0.7420279141539975
C 4.156104983266688 -1.7090441375682897 2.136673045234786
H 4.179858840758583 -2.420954365325671 1.3090345638736893
H 4.37822965100936 -2.2373236417028566 3.0643605809714574
H 4.903368935848431 -0.9383095366261036 1.9484446030943474
H 4.960273496474797 -0.07088392632747294 -1.1168108295912678
Rh 2.0480784166979995 0.27577003788679244 0.9645642241005752
I 3.433364076413112 -0.6094739428963181 -1.1327852282502302
I 3.8996510087935845 1.967099105556554 1.7021896021517504
O 1.9762967987216826 -1.4821244702986465 3.090855559896338
C 2.7781286299313654 -1.136258736342741 2.2607534997565986
O 0.4299609981204789 1.4088075387277819 3.1922323294614734
C 1.032732192397236 0.9961482032970164 2.3088029127364305
