33
## STRUCTURE-ID: 6458e380741f31135f04a083 ; CHARGE = -3; SPIN = 1
O -2.242611937108669 -0.6351703917275527 -4.258032358057903
C -2.0185947704016742 -4.059690511403778 -0.31849912792540885
H -2.0815395310024827 -4.735444315625824 -1.1681897823164582
H -2.9905214523665697 -3.6578547706955065 -0.03540982407073218
H -1.5184983400526417 -4.51938891148318 0.5330114746544444
H -2.642231038571499 -1.5167456766557148 -4.139322628283375
Rh -0.2875958158483871 -0.6224963814908464 1.039063147149063
I -0.04113346899299819 -2.600406055759946 2.8520476626334914
I -0.7374727824131296 -2.353773136949101 -0.978812121479812
O 0.4151052315200745 0.6817106846393111 -1.3440507036345475
C -0.3754361406989617 0.8075492889255538 -0.38370794787540813
O -0.49625303123453424 1.6044341099803539 2.952776520749953
C -0.12969952585737018 0.9671669612812037 2.0403904071112264
O -1.524030415791953 1.555908002163614 -0.5803805959730634
H -1.4824185246243904 1.9154326172147005 -1.4974220519969914
Rh -2.870017942461294 -0.3731535848895682 -1.3733913722470135
I -2.9321441190397164 -0.5187858023969968 1.352072624017257
O -1.8209742102049524 1.2836504219095521 -3.259065086331098
C -2.311051451129007 0.1542938075131549 -3.17038999188931
O -5.62200619238894 -1.2671479767778238 -2.1077591576051664
C -4.541589240789956 -0.9446101827187102 -1.9007593294245282
C 1.6824687905480027 2.2967855677767943 0.3305479651029522
O 0.4360053469631318 2.14831773430299 0.7439390049359366
I 4.625197081398879 3.871148135009358 1.0041923527987937
O 4.4107180168935045 1.5371870084483177 3.5093388943593125
H 4.233830065720607 1.4553055123015446 4.4710447064708445
Rh 3.6546746090254043 1.4229914888912576 0.8348491304835464
I 2.3831441716548825 -0.8467544450301369 0.6051582725245245
I 5.9987956860727785 0.23421025090273723 0.8010667605567781
O 2.232083999756071 1.136126785078941 3.2371793746998203
C 3.3351925004935175 1.353263225288529 2.7497772429419256
O 3.039116209962519 2.1689140239172464 -1.7204446297663707
C 2.219488220969751 2.0570265180594602 -0.8208188323127087
