34
## STRUCTURE-ID: 6458fbb55f0c400c766f9b14 ; CHARGE = -3; SPIN = 3
O 0.7751397184533354 -2.452987944483274 -0.8782011816855196
C -0.6210014475608209 2.495559917431666 -2.6192374422997156
H -0.1715111004270452 2.3812516260109122 -3.598219123995706
H 0.15531470981284123 2.502576485943953 -1.857574950865579
H -1.179734544973168 3.4236951843734547 -2.5537554562362255
H 0.5699624117289052 -2.734569582608142 -1.7917561275520508
Rh -2.285663399188763 1.0625685759017225 0.4058469709165342
I -3.216341087519059 3.489941780305526 0.3775821325375613
I -1.9726080344092112 0.8975353756578918 -2.285674819696015
O -1.166013368792858 1.3708065836927876 2.9185827880082567
C -2.230858926362931 1.1897692548038603 2.348919634265253
O -2.9083634669846554 -1.5303362568913248 1.6904353307953073
C -2.6038099994460957 -0.7881182306702215 0.8386999053783414
O -3.383777168828041 1.067662690987179 2.992603033103339
H -3.3005006010624185 1.155520327635492 3.966715142134287
Rh -2.01910986581159 -1.54029356739038 -1.0838546079407816
I -4.393828347325082 -1.2038598664943825 -2.1952295811695426
O -0.01255743468238881 -1.4990596892217396 0.9392168639524567
C -0.2564310920004211 -1.8235897976676003 -0.21795434088469706
O -2.216741076677207 -4.4801321793312106 -0.585296000521078
C -2.1501969335061295 -3.368728197013748 -0.8471088118615819
I 4.781380914084099 -1.3545205171932246 -1.3070500930970044
C 3.091954603984376 -1.4071779297846994 1.8884142295071826
H 4.136221572556395 -1.7162155797009784 1.946456718745793
H 2.51702444134166 -2.182257011032691 1.3813191730666878
H 2.700534689939331 -1.2540577888494313 2.894599356593462
O 1.966327466648875 3.258973064207733 -0.6230503648804889
Rh 2.576065382320282 -0.09145602817601597 -0.7792933827794893
I 1.6024326412117087 -0.27810448266283566 -3.2904014807495967
I 3.6065152413152433 2.526378402284272 -1.2347654321175
O 0.18826763172576494 1.2946221566719405 0.36680020890727
C 1.0749854665745981 0.7047684126429599 -0.10230237590502282
O 3.2979927016321042 0.9609216573488821 1.7470974740600826
C 3.0489283022284375 -0.07708684672835464 1.1474366122657782
