39
## STRUCTURE-ID: 6458cbfa35af4578fa3b2c40 ; CHARGE = -3; SPIN = 1
O -1.8178355529255634 -0.575106507913954 -3.308355668728468
C -2.1066912134337894 -3.852143625482188 -1.5835817497683333
H -2.7483658219738927 -4.347273536612137 -2.301929604892628
H -1.63516992685624 -4.569341870483357 -0.92018911249491
H -1.3559814469633162 -3.245751608660888 -2.0810086640963017
H -2.702880786116561 -0.7983382427293768 -3.6452185966401016
Rh -0.5359691931241231 -1.7645788927866313 1.5470841752053544
I -0.1475750799754534 -4.338558437267322 1.8675310612673888
I -3.3359293370497287 -2.525835157238537 -0.3884335736503084
O 0.014535277616220334 1.0835289938062274 1.196974805441075
C -0.8643502738662535 0.20363957971363925 1.2416184920778284
O -2.5378569341369177 -1.2835724726195068 3.700268330758745
C -1.7991460223106759 -1.5796246098568842 2.8628822156146283
O -2.152414707537993 0.684392482279548 1.2558839955926449
H -2.167595032919251 1.6630496529155108 1.231503235569443
Rh -3.528802819311952 -0.004578951742523439 -0.9966815476612699
I -5.684996148828387 -0.05574868151251958 0.5009755912825692
O -0.7648029213954458 0.2628876526514064 -1.5567085161586254
C -1.8590827184260794 -0.07952424909443022 -2.0057235989974616
O -3.3948193631145536 2.6703330562120207 -2.3034747573181127
C -3.5802708607851144 1.6388438062268875 -1.7884611895088893
I 4.7137052698367725 -0.7262717248518995 0.551056890753226
C 2.599271592736033 -0.11353997797883245 -2.2124878278248525
H 2.661548260474309 -1.182536594778347 -2.021765315133529
H 3.5874238291466534 0.2469350951079733 -2.5008657270115866
H 1.8904052891479661 0.09118333433700124 -3.0155619750978917
O 4.367207902777324 4.223966220119205 2.179574582555984
C 1.8561577600719044 3.247569984097269 2.110935725062739
H 2.1790720349752966 4.212704126747341 2.4680947918311857
H 1.3297468270255708 2.6940788805799913 2.8824541693856776
H 1.2379612911875104 3.3390816412157815 1.223837238720971
H 5.3264685473256135 4.219740516184098 2.1940787634464196
Rh 2.229360266901812 0.020668681781218095 0.853413336818881
I 1.7972204181635234 -0.7399385837771865 3.52042949620533
I 3.5817828283055624 2.1687658338928966 1.5740217734338098
O 1.78119831063154 1.8241368015250932 -1.0718724770704497
C 2.177038106984049 0.6765752398705109 -0.9999083049390914
O 0.3347679208786401 -1.9611798444157518 -0.5099849075004466
C 1.0556644268645679 -1.4286380094615905 0.24959444346963727
