39
## STRUCTURE-ID: 6458cf10f1f88177b80abf8b ; CHARGE = -3; SPIN = 1
O -3.4913826849408336 -3.3124515931410508 -2.764532626694651
C -0.957289470266032 -3.770822206922399 -0.3321697154477334
H -1.641462017703337 -4.53843252212074 -0.6757195991815668
H -0.2979507535085385 -4.140896970135208 0.44517640528645563
H -0.3641317688386621 -3.3932967147456012 -1.160981829363516
H -4.384569792540403 -3.3585909098800526 -2.3731977099810786
Rh -1.710137197217572 -0.09820781007345841 2.074537296560086
I -2.455540583202667 -1.5920866966685747 4.142839477734087
I -2.0536793201826558 -2.1667261910715783 0.41609953251919585
O 0.11862556085874801 1.4565869831933922 0.37997114411355876
C -0.9950069924851215 0.9528731676217546 0.4807956832276041
O -1.4584139260451443 2.404882666568702 3.6470099713879764
C -1.6096616806431598 1.434572240231522 3.065816393088613
O -1.9064864130028332 1.2055580745096863 -0.4788974321122347
H -1.5689441099565107 1.7732727593109776 -1.203253508571278
Rh -3.619597931484851 -0.9176042799147032 -1.188924573576024
I -4.273403085902695 0.05968500364845417 1.2383565496018778
O -1.8497791743809626 -1.8967197743603383 -3.188912659662824
C -2.8974268738259403 -2.0856790887869616 -2.591586504802972
O -5.377935363430825 0.3897647785801795 -3.224865077906517
C -4.757480444128242 -0.14594115521630968 -2.4232682947099367
I 5.1699392639331645 1.0155763319793765 -0.2582649152858147
C 2.8422129134085705 0.4170288573429018 1.9866438318833672
H 3.623697972976545 0.9194360470016153 2.572721621241971
H 3.0367519168513826 -0.6692627344571714 2.060700723882665
H 1.8809445555647704 0.5922359223460076 2.5080375484215427
O 0.8793637576196819 -1.9868521588784782 0.8148853890821897
C 4.047516381082597 4.827243324406808 -0.33736305464473504
H 3.7225298793567405 4.725535434811337 -1.3685826304968098
H 5.022994291092914 4.372625434737218 -0.19308062940529921
H 4.016198179211471 5.856038044293375 0.002901102465539939
H -0.2715296859163052 -0.3766365205700062 2.4700870098623704
Rh 2.5903155335257857 1.0580094936813975 0.015523111538887005
I 2.077641575745669 1.854481691182027 -2.4837507640609724
I 2.614305824152707 3.6998207299041845 0.9073146476581997
O -0.00037074986845542874 -1.0111802223281408 -0.9879312186761247
C 0.9447478353417328 -1.2466671466242645 -0.19679184324667895
O 3.0207093336866175 -1.5593445194539644 -1.2094055686542204
C 2.3336852450628838 -0.7478277700009488 -0.5879372830753713
