41
## STRUCTURE-ID: 6458e67dd534dd04943cd3aa ; CHARGE = -3; SPIN = 1
O -2.177968937396461 0.136634230155856 -3.992637150716066
C -2.898192775146832 -2.9271512547464913 -1.3320287968940856
H -3.7285887234683197 -3.3451427781266156 -1.8910847588157447
H -2.6520773359245924 -3.530209437388389 -0.4606595295492719
H -2.0165623295191932 -2.7669895302121628 -1.9481199974702
H -2.9070672893087037 -0.48840164998775687 -4.159162781467801
Rh -0.9869269116472575 0.2050568988226956 0.6207754676771642
I -0.5763263778838721 -2.1018037573146096 1.84947933312192
I -3.571672638433735 -0.9713608180286148 -0.551079367668737
O -0.617036517753229 2.9841639609926873 -0.2695046584168553
C -1.4050566817207792 2.039998395020123 -0.12140281546777368
O -2.31953664582726 1.6582043254586676 2.8358954664510754
C -1.8438892885335394 0.9781314990471928 2.0253898551720075
O -2.750355105532937 2.3843171410014645 -0.16290644759232098
H -2.849778768236375 3.3379720106767192 -0.3494530984120306
Rh -4.128348895113472 1.1494340256333326 -2.0231729958394187
I -6.203860992242463 1.5756593383008715 -0.45297568807739086
O -1.5439631412242032 1.844989296807261 -2.7469092296195523
C -2.455447346175805 1.0480842285025505 -3.0085245171880555
O -4.628956196169076 2.896194115781144 -4.390066934378583
C -4.554259533738923 2.188944986550382 -3.4659400091372192
C 2.612192613003603 0.8393159541196294 3.877647908037603
O 3.316767223693743 0.6921579124708438 2.849411183879214
I 0.3154059669722864 -0.7131968648158452 -1.5207266098999868
C 4.959671348505943 -1.4403551297267447 1.6225982299320507
H 5.373899774930557 -1.456374929429141 0.6173381118938331
H 5.12402398382371 -2.3766937733361546 2.14750414371666
H 5.332479062476532 -0.5942992819430231 2.188972162801014
O 1.5569705076765294 -0.1076070425774102 3.882353347770736
C 2.963598561175373 -3.0325378947890114 0.2470166141766729
H 3.414380167550919 -3.7979402908665336 0.8696286289290731
H 3.555176559960206 -2.8235984230689124 -0.6395276312917788
H 1.9606386314250566 -3.332928190537221 -0.03969141572158791
H 1.1430489696874357 -0.12326160149050489 4.755819129651231
Rh 2.167755949386309 0.8703642720500452 -0.07737077605983776
I 4.233446072386681 0.37811611425479225 -1.6013398593302293
I 2.8211262359027898 -1.198436389686437 1.4626345674108707
O 2.257625028789133 3.852727367449847 0.11296671585339758
C 2.2959991911256417 2.6947763867579346 -0.07146648980959745
O 0.628539591149117 2.0522401913386576 2.1236626131557466
C 0.7831269913752303 1.320806386879124 1.1866580791938837
