39
## STRUCTURE-ID: 6458fedfb5255a1c432a839b ; CHARGE = -3; SPIN = 1
O -3.9196430547212753 1.7048905852448117 0.5193103202425663
C -4.329453984225048 -1.5673190848759142 -0.6609991458517279
H -5.3836385909430975 -1.387180546923307 -0.49504582070211495
H -3.7294242940722895 -1.1870678296488517 0.1592679706120188
H -4.123960018083881 -2.6204361465549884 -0.8123069488006208
H -4.335149287703706 1.4633629550276643 -0.32617015014203377
Rh -0.6159060673214032 -1.1346207085998428 -1.5692621842811663
I -0.32892386550876596 -3.0846115246497368 -3.3184790513264835
I -3.753366816994109 -0.5340112776998586 -2.4495872258505194
O -1.7510498757504043 -0.41725277021657486 1.0893459610567284
C -0.9683508143413531 0.024323159998825266 0.20146231820363558
O -1.4632807683892395 -3.2149614681438257 0.36054702005915423
C -1.120547855529212 -2.393702872522453 -0.3907746927921333
O 0.1637035490853347 0.66860317120963 0.7855099585022218
H -0.042223155866760474 0.7272565396142019 1.7372429857351022
Rh -1.5980295006101803 1.4783672107942203 -1.2601689351896312
I 0.11946511506075198 0.8362546916780917 -3.1825320912984085
O -2.019233490982061 2.405566991748808 1.3926360046188484
C -2.552190509512839 1.921270138343414 0.3985259708810572
O -2.503949690331994 4.2963625404638845 -1.5716515804369295
C -2.1487571445075377 3.1925309087899976 -1.6128899911487133
I 5.206006572650093 -0.3852199723818852 1.3431535873397344
C 3.1033867075145944 -3.0560945164600644 2.122589564299997
H 2.5171034738083398 -3.9352626635133476 2.389791839874815
H 3.72701107069779 -2.7429888449627615 2.958783061948846
H 3.752101141260103 -3.2838759195581346 1.2774219777054743
O 3.267992179326415 0.5106470384957678 -1.3240479073541054
C 1.6458964026185678 3.486543953177417 -0.6900083264452874
H 0.638819237125475 3.0691271282177177 -0.5919856656552824
H 2.1079642605471802 3.1510990841640014 -1.6122129598446817
H 1.6116119756272658 4.5667168322698375 -0.630148245316926
H 3.260624739062611 0.2958199325937702 -2.280388582958069
Rh 2.6226637367158836 -0.08747463986528162 1.3631156651663492
I 2.8237872494281597 2.7687336814410384 0.9468509920947078
I 2.2679380959580033 0.30123668068593645 4.0262487933402165
O 0.957604493329454 -2.098875283890507 1.6282736254243018
C 2.162419866645089 -1.948465208441152 1.7298574961586461
O 2.0805954729149865 -1.3719202515483653 -1.08429441638303
C 2.6503834460187923 -0.41737169350233044 -0.5669811914866569
