34
## STRUCTURE-ID: 6458f611b11a2875144a7bc4 ; CHARGE = -3; SPIN = 1
O -3.3825899984282652 2.605562507875753 -2.290368608067023
C -5.747252627037719 -0.05738298998880268 -1.0053287897642154
H -5.9762537712086665 0.9522952834635449 -1.324548151838983
H -5.299844653171661 -0.04908191649771031 -0.017798201144742887
H -6.612714305083418 -0.7061233390618539 -1.0493697609695072
H -3.0235814900414204 2.1625742298464785 -3.0752675484724126
Rh -0.19512620514438342 -0.47548455383822363 1.803635018156045
I 2.1496656918948065 -1.645537703769678 2.4727469546916137
I -4.255178039278265 -0.8472010155401318 -2.357525508617823
O -2.9355514452325866 -0.07060785416319053 0.8760682512087501
C -1.8590705693717025 0.43736805662401185 1.3099515609079284
O -2.315499700667034 -0.6715177775734499 3.888483549245261
C -1.3506083535376827 -0.7251418041843759 3.215234803621291
O -1.9564635093088911 1.7016481283154807 1.8609075002739346
H -2.712242391561072 2.1567959077643555 1.4148313919927866
Rh -1.889179424693948 0.4251069377049524 -0.9817905817252341
I -0.6577194993166657 -1.9890531540971912 -0.6391872928352664
O -3.4761721549414424 2.623328697704415 -0.10921205152059375
C -2.968221740693612 2.0731911079317498 -1.0884122818556845
O 0.20229440932340167 1.5737908604083701 -2.779410175938233
C -0.6503029572629295 1.1172772644182454 -2.1350054470703332
I 1.3912848034975358 1.8146858816436817 1.183450865681464
O 4.871554705593528 -1.9485765784720428 -1.5304477625043225
C 5.379960126186162 -0.9242710473799602 1.4399501485321886
H 5.27470590002856 -1.9318420191696386 1.8432204991010177
H 6.285918585623863 -0.8092050987008559 0.8472456014223422
H 5.286001692877717 -2.821033106471954 -1.7074305996196082
Rh 3.7044569679781225 0.07976591931766297 0.97936475587529
I 5.106259027541332 1.679426091476616 -0.5450935307460282
I 5.545109892894357 0.4336002757562498 3.1162678168676976
O 2.1515428478392655 -0.278874285364907 -1.3659071125569617
C 3.0409260814300643 -0.7177476155267457 -0.6650605535593592
O 3.179455796413329 -3.1106723579065285 -0.640650542008522
C 3.6944363068592634 -2.057062932544286 -0.9435442167627516
