39
## STRUCTURE-ID: 6458dba0e0fe75790e28ae7a ; CHARGE = -3; SPIN = 5
O -4.334197125253595 -2.267383613809125 2.1861051961800846
C -4.748399378755863 -1.049261099680331 -2.9908039773029116
H -3.75474636093983 -1.0395965724787553 -3.4437151705830344
H -5.397865630089714 -0.285819265255969 -3.4236950045115306
H -5.20920538049702 -2.0337807642257113 -2.960068070738569
H -4.909344160641512 -2.3785662138250805 1.391912736888338
Rh -0.4810003108198608 1.6991567410938284 -0.43449155913796006
I -2.3870987303507074 3.270897471758725 -1.187043731897217
I -4.457091246472709 -0.4125280166561492 -0.8834042490335923
O -1.8923444175260935 0.5717445511876151 1.4375060510203357
C -0.6503121181041649 0.8595994789360686 1.6514601446773314
O 0.012854828804115963 3.1380681069324385 2.1892513184658053
C -0.2672370900802371 2.263226739347654 1.3532611753896822
O 0.13341107866079194 0.21180989102886252 2.453724791810707
H -0.0686754286062448 0.5159219108049586 0.5077973036876602
Rh -2.1720011463788564 -1.4607940768939152 0.31074990967291327
I -0.8663473953617876 -0.4047226181879322 -1.9267594873112823
O -2.323615093467267 -1.8626909354244225 2.9928924497605367
C -3.056878066468736 -1.977579020232637 2.0245079645498616
O -2.557020616068962 -4.132008484676665 -0.9839458980629072
C -2.4723415205228614 -3.1452869481715475 -0.436890008948641
I 1.4214536008386653 2.2312095027680985 -3.3062919505720236
C 2.4061510689176955 -1.155832587585617 -1.5888699507985162
H 1.8307881603721494 -1.9751632703197926 -2.0311695999973987
H 2.6655925670859566 -0.434925527639203 -2.3706896549902026
H 3.3264883803307077 -1.5749827648275365 -1.1701906458970277
O 4.480535340820964 0.649777652992058 -0.7400819484689222
C 2.6473412289783136 2.7585622705909225 1.3961737025510081
H 3.731282548605843 2.6822205366179728 1.4717626027113824
H 2.2065296585969274 2.0555040107863207 2.1237868591585016
H 2.3350763077542274 3.7674489466015597 1.686144842631295
H 5.421308860159415 0.8160053969142825 -0.9460586700075309
Rh 1.2697697905572778 -0.17717547304852996 -0.046819149637901084
I 0.7021825199915568 -2.735909898133443 0.9226462486363239
I 2.0430755355602868 2.351392376677439 -0.5319085987490967
O 5.205576864364496 0.6958151297199339 1.4163185865317127
C 4.292902287487827 0.40973175827649183 0.5983334649931229
O 2.8380896445313577 -0.3454631821766489 2.2622732664996996
C 3.0353109439870574 -0.0986221397861391 1.0262887108298562
