39
## STRUCTURE-ID: 6458f49e519ecc6ae41f54c9 ; CHARGE = -3; SPIN = 1
O -1.5618457118549447 3.55308028665186 -0.5928182031293387
C -2.3111199745175934 1.940094137805882 -3.3470161621963666
H -1.7075973374852274 2.811664668955223 -3.568903293920752
H -3.181096713956114 2.224688066164293 -2.7650713560229176
H -2.6160683372177598 1.4312339903585243 -4.253495011506579
H -0.7092588143325379 3.08998137344904 -0.5433678990041513
Rh -2.8836652953897346 -1.0073431944642766 -0.9731704872007594
I -2.3514773743147273 -3.04091288265126 -2.564110363625242
I -1.1304388101166056 0.5883518787111635 -2.153905242623573
O -4.527529799918496 1.2070044881217135 -1.2452655931052334
C -3.9819511736836035 0.6184364122853523 -0.28283392794915135
O -5.334622155878285 -2.2556334939994493 0.13444894329033355
C -4.3463838453251435 -1.8134432921403811 -0.2901585048877176
O -4.799998845616121 0.549009738668146 0.8683471467764932
H -5.588384344974843 1.0968563853769102 0.7140997517041303
Rh -2.0993133567104487 1.0590137430464472 0.7353512214525105
I -1.3532601156893895 -1.3208514098320128 1.7177111630320867
O -3.616792865976643 3.4495081114948105 0.21429745066108463
C -2.564047507480842 2.839808690352089 0.07429330722624736
O -1.7093832782486054 2.9947789736134807 2.9730589876707483
C -1.6991002640787407 2.1692389979926165 2.1431778596454056
I 3.6221334332011343 -3.308081659947139 -1.0437149608677625
C 2.243174746952715 -2.86149857685051 1.9169828089597005
H 2.9268202541401798 -3.6718956989680813 2.1794268552354064
H 1.3267471557482442 -3.297244024269888 1.5058848577799973
H 1.9674223046919372 -2.299042067460451 2.820699121809204
O 1.8772183537630578 0.3831353591577868 1.818821502387835
C 6.90419580842187 -1.5521540054899827 0.2563458811928494
H 7.8928047093352305 -1.545785125055619 0.7003575730961464
H 6.715101949934865 -0.6730749262513688 -0.3522009149219912
H 6.701948491507597 -2.4615555590189024 -0.3008954177283603
H 1.7412227058860774 1.1820627467392983 2.3581297307814677
Rh 3.016245320561276 -1.4334652327413382 0.637906655452413
I 3.6609459799505193 0.7162527731860996 -0.9097622914736722
I 5.464413263483106 -1.4997698113526197 1.9052451353402202
O 0.580284470197812 1.4451222382276319 0.31814836254358053
C 1.247980593975852 0.457464320322777 0.6177354525092453
O 0.7412849739006149 -1.0045702700435464 -1.2043328382557064
C 1.4433914071143574 -0.7604661501450901 -0.2194473001275625
