34
## STRUCTURE-ID: 6458f88ce506e246997a42ed ; CHARGE = -3; SPIN = 1
O -1.348703798152868 -1.7483795572647678 -3.430609717620251
C 0.16422193706088464 1.6906193096522044 -2.598898639310203
H -0.33848134701081956 1.599041021011252 -3.5549203902733684
H 0.9488744940889595 0.9472154770726856 -2.514517138140005
H 0.5790485653223415 2.684272583034602 -2.467761093541056
H -2.062716469400464 -1.260270723423567 -3.87872016027056
Rh -1.2082662013424634 1.4443735145989987 1.595215700657854
I -1.6020377856832664 4.06972214367206 1.5017428687357748
I -1.2649731647155293 1.339086519760317 -1.0867950632061805
O 0.12984082695164378 -1.046184073881903 2.360945410030013
C -0.7983555197425518 -0.5599038552191561 1.724111721108511
O -1.3971525289416133 1.2968337556457603 4.550495658943076
C -1.3831509960171897 1.3847962250358865 3.4120226045100646
O -1.7136006596507023 -1.39163350471706 1.1890589240626277
H -1.5137488361227585 -2.333447621833856 1.3623034806014853
Rh -2.805826159261888 -0.758168034789798 -1.0882406503750595
I -3.844418601656656 0.8871896649945498 0.858068958299221
O -0.7316093077520006 -2.5296161017800456 -1.4585261800639626
C -1.524725330138213 -1.8321895224853222 -2.0870958039342145
O -4.874894667754119 -2.818031673970674 -1.7635754029701973
C -4.108980010109721 -1.9994755236143356 -1.5105443582287255
I 5.807590294296229 1.1776258340613024 1.1822130545220064
O 1.95061470439309 -2.208270821201897 -0.6132326314228872
C 0.820724749029452 1.8004893111629054 2.025885409725896
H 0.9619587370134229 2.543793565662785 2.821676680103645
H 1.3383018021605084 0.8854252247172071 2.3386179359824677
H 1.0648421184959878 -2.4971318781384055 -0.950744217137175
Rh 3.5713559519865514 0.02315799681496265 0.2652686745955329
I 4.189811515178238 0.271531459475729 -2.3139208030350877
I 1.9831232166664456 2.559914174774327 0.38420622997708903
O 0.8382994420661182 -0.2929190269136802 -0.4536390176209198
C 1.933612701677092 -0.8748594220019683 -0.3153468512255522
O 3.0067405880109477 -1.5850352905288632 2.7117957501635686
C 3.2326797390549142 -0.8695711493822104 1.8034590563565889
