39
## STRUCTURE-ID: 6458eff122eb184c7f2373fa ; CHARGE = -3; SPIN = 1
O -0.5414489429709873 3.279595344825865 0.23620843326706245
C -1.0826214686281521 1.3459483107702015 -2.20414757327039
H -0.26712064579355854 2.0582679438926696 -2.135547301385831
H -2.032900308596467 1.8417117047390525 -2.0293549041685965
H -1.0840198189758634 0.8435486709395947 -3.1645855815697677
H 0.2969167346618753 2.7851745316775895 0.34947193855881303
Rh -2.6620047642214795 -1.8421585621382985 -0.7246015925665049
I -0.813346949173155 -3.574263534079108 -1.3443494388567958
I -0.9150790914679442 -0.010276289242236489 -0.6827593585970864
O -3.9911556439084435 0.5811135017689786 -1.482670665570762
C -3.6973566035239083 -0.1798833557879587 -0.54786199358187
O -5.379113604792708 -3.054724204901651 -0.8498169958127232
C -4.271513025607066 -2.720490824957058 -0.8045997488859543
O -4.051600622854265 0.21607126352228187 0.7243188939913252
H -4.521313906993998 1.0714456991286108 0.7057895515304637
Rh -1.4276411992193547 0.854378193944085 1.621897618201107
I -1.2067544369715166 -1.7463656357472424 2.0503595958263756
O -2.720431086192764 2.876956379408817 0.18142690094952707
C -1.6256912112872288 2.488538395860513 0.6024300833372851
O -1.7776546813944083 2.823976589401475 3.8291583427646914
C -1.6540917466591725 1.9273591660571139 3.100680616658508
I 3.1300307621235786 -2.8164514470702384 0.5696766249669434
C 2.534165678653735 -2.5166075274004 -2.898880461697167
H 3.5516977836006958 -2.3396387845622484 -2.5501437216804517
H 2.4927356922233903 -2.4627696507463517 -3.9848715234964245
H 2.239405960081742 -3.5102366933797473 -2.5537024925714116
O 4.506088840506725 0.9246297415024992 3.5815666882994646
C 1.8921129311089433 0.24626895333946122 2.9884187474477018
H 1.7635934311692327 -0.8273519737642525 3.0891003176067544
H 1.0003030797990724 0.6993626265371948 2.5315263046513463
H 2.101673908965874 0.7016319333231388 3.9444829102743926
H 5.338274409106424 0.4445325967424618 3.6132160685042742
Rh 1.2978063038005796 -1.3266329555779153 -0.39167261904663914
I 3.9878990549358937 0.6105745160838998 -1.5350749610360452
I 3.5084914123168995 0.6219906444356004 1.703867717431501
O 1.419594377371693 1.477932520288489 -0.18438764912140623
C 2.185442778640276 0.4826022055390918 -0.017083423073989953
O 0.8832854214687049 -0.7661661446790549 -2.993901417719835
C 1.5933411986965904 -1.5095938496966572 -2.3435839305575654
