34
## STRUCTURE-ID: 6458f6f6dd494416a0232403 ; CHARGE = -3; SPIN = 1
O -3.2329604941858348 -0.429987921544986 -3.7326519671517824
C -0.2647063248952139 0.7711855705320201 -2.018708631677307
H -0.730555965514945 0.4544990433920025 -2.9450301520062867
H 0.2428051026108504 -0.09310759997133312 -1.584370077082128
H 0.4423281968963203 1.5712876675533156 -2.210608438747053
H -3.8694952841222356 0.2928814627798687 -3.8684000528081324
Rh -1.2712521204839224 0.5401934819085343 1.8196320642097004
I -0.6054724955116862 2.8971349735315184 2.802650058937565
I -1.7684327776348596 1.3626415089040707 -0.6682122638459742
O -0.6245565345865356 -1.6995212527632597 0.23704989507414165
C -1.5584346955119135 -1.1566309582764367 0.8442136079828015
O -2.1184892239535826 -1.0543662153597975 4.1950712333109195
C -1.7683158422687195 -0.3594698850489746 3.3415550401409613
O -2.803229666235801 -1.689432810262425 0.7291214497788793
H -2.794899470370287 -2.463014521776576 0.1289896319042778
Rh -4.009904484561034 0.15369603228165982 -0.9762088355778425
I -4.394554217150754 1.8953211140576924 1.0078454433425577
O -2.529221077969991 -1.8801603226007666 -2.2198622315529626
C -3.220804389713406 -0.8871268381612558 -2.428834897096301
O -6.6606025236362205 -1.0532280461580703 -1.653972882693308
C -5.661642401554529 -0.5436031188863804 -1.386948625167591
I 3.88695786466075 -2.8511991989046046 -0.5152944036290149
O 5.248680839504581 -0.7425569636098583 2.572287221273699
C 2.2030197395924387 1.320933245027037 0.4474500477027848
H 2.7124216179859784 2.127424084545215 0.9768131059310374
H 1.3199084464444497 1.7230158839712473 -0.058717685538807664
H 5.288429110876528 -0.6531209392416815 3.5488063106920906
Rh 3.1843603300076007 -0.3288212735496478 -0.2410103616101565
I 3.4326839879273017 0.41107651965264375 -2.764156155302397
I 1.6252308937887003 -0.18261602307922353 1.8871327269974423
O 5.867692123119341 0.5098296669781269 -0.21565584043816471
C 4.897567932085007 0.25206334111062295 0.4484658660801322
O 4.639707598897688 1.4129139000340125 2.532740886624435
C 4.895736205463601 0.37186639293545265 1.9688189119420065
