39
## STRUCTURE-ID: 6458f4e3820f25131a1f114b ; CHARGE = -3; SPIN = 1
O -2.6099484911468056 3.589160642331284 -0.32206865079354524
C -6.3085721321415935 -0.23735744277591234 -1.3703029456058085
H -5.8196613749864845 -0.8380777581960122 -2.13209515080354
H -6.820875772041108 0.6146679484124171 -1.801249493761363
H -6.96895129516299 -0.8443952830995715 -0.7606112894249885
H -3.506839588766606 3.222044323251077 -0.42468551601954
Rh -2.125575137703566 -1.2969236893736251 0.22974968260648884
I -3.2246928174422886 -3.5962873254246266 0.8376012202578877
I -4.685785691039882 0.5407355868102157 -0.028756906476413387
O -2.3969346546256234 1.3482686116896259 1.4285769875269891
C -1.5882395266713585 0.7289933591998289 0.6715254979377607
O -1.265946568959221 -0.9249692632212085 3.0387341811682553
C -1.6507257432374836 -1.092834691162405 1.9460709461986216
O -0.2464856500708978 0.9485167152472245 1.0499490783465313
H -0.2450954555989859 1.6132486991574024 1.7564576502517868
Rh -2.004644042379435 0.9557433653526561 -1.4214149828321128
I -2.431042286282651 -1.5244100296639518 -2.3862600852751537
O -0.4646343497332018 3.1522989390969123 -0.5192168827741698
C -1.602597362080533 2.7252088648698365 -0.6730036452668886
O -1.8535865939540326 2.805636223990352 -3.745188196654883
C -2.052142009736795 1.9977197972850456 -2.943313566428993
I 4.191198347299355 -3.380750596812313 2.3782794474543256
C 2.253716458457633 -0.6618949645978295 2.359597896263052
H 2.9501957314954184 -0.5892299272259994 3.2063785395057054
H 1.3383246819484915 -1.1581562918110133 2.7439660722166037
H 1.958635650713973 0.3712702709792141 2.10625845505124
O 2.2207998700018234 1.225750018820131 -0.8372786927547821
C 6.730728405685525 -1.0729329401051486 0.2398753265620229
H 7.5151333791705 -0.32510146565064113 0.17882556563700283
H 6.708981603684758 -1.7133437245704584 -0.6378807909214709
H 6.8015218420683485 -1.6634183555457025 1.1490434255669022
H 2.0526385414966186 2.010791322406713 -1.3862903624146592
Rh 2.920240773543965 -1.7357380549937362 0.6919095554786051
I 3.656948202632699 -3.0891748817983213 -1.5079648394546503
I 4.80819356136068 0.03398237563305055 0.2984361410684243
O 0.40973219938057315 0.3937167000652512 -1.9295763825989531
C 1.2910894181724217 0.2575472486056627 -1.07339978759926
O 0.5983303308549354 -1.8361215681149998 -0.12143321762557514
C 1.4665675457939014 -0.9541827590603718 -0.2892442836115582
