39
## STRUCTURE-ID: 6458f1227995db785f02f233 ; CHARGE = -3; SPIN = 1
O -3.1434824872045004 -2.9732935344350953 -2.384984109346854
C -1.659503285720867 0.25291902497386665 -3.7855318176822985
H -2.3942099576621287 0.1257611184798922 -4.5727232474040544
H -1.1390942680614833 -0.6735902845848623 -3.560076501988013
H -0.9422082812333501 1.0323042323247986 -4.029673918320687
H -3.6413225405105 -2.501299013016691 -3.075369642319195
Rh -1.0846226545865143 1.5781910292715207 -0.0010505038038120978
I -1.1889046144690523 4.190963970137705 -0.5189824382395661
I -2.732175854688433 0.8775088278374387 -1.9725534638006443
O -0.5848128543333369 -1.208852446568997 -0.1832311091825514
C -1.2675162017818946 -0.3323051061738595 0.36381585810977984
O -1.0771091136216953 1.5130916530263838 2.993918206847973
C -1.0375772360218334 1.634958442689234 1.8211677241652646
O -2.325761071069216 -0.7569138671778701 1.1545894649617587
H -2.3828610023658783 -1.7367050604554004 1.05612753685213
Rh -4.318497565578158 -0.808541583999129 -0.7438409558246502
I -5.472764476153707 1.3871117480792015 0.20021065450618997
O -2.791538766392829 -3.0744951831292098 -0.21019407395374975
C -3.3243439536725705 -2.4444742878024552 -1.1318316274901103
O -6.434172490073244 -2.8745733716263335 -0.31913743944029943
C -5.669755366792021 -2.0148198096080385 -0.48484747797625793
I 1.2888454783864447 1.2039785476372347 -1.5241502541219387
C 2.2473081679957465 2.66261009041603 1.4667475316440213
H 2.8209409141823905 2.8164359099201666 2.3905978522458096
H 1.2206401038628791 3.016589466129089 1.6584232790764122
H 2.6719631446858507 3.2818916348390688 0.6705166896568506
O 3.600725531207485 -0.9164739414697803 3.1913619171273555
C 5.20501511337856 -0.040985548870609644 -1.3740141098128826
H 6.2592158230129495 0.11164344313082808 -1.5864520378009273
H 4.550246632536777 0.49727006969889553 -2.054733891272157
H 4.9298192885923555 -1.0908068126567447 -1.3099653196854693
H 4.207572710478205 -0.4799147286512677 3.820233585494922
Rh 2.1714247997057003 0.6501953789641844 1.0522835326411488
I 2.408747948087189 -2.036244452064743 0.6496216450973318
I 4.855016448736112 0.8078630161299423 0.6190976594044902
O 2.07273633736564 0.5901692437975647 3.9347240716105616
C 2.4147722476394398 -0.27644517929359935 3.105353672492821
O 0.2524139681708917 -1.1200196370737094 2.4637609137751277
C 1.4348293839697748 -0.8707029988231441 2.21079214375593
