36
## STRUCTURE-ID: 6458e8539d7f690db53c3b84 ; CHARGE = -3; SPIN = 1
O -1.6877430292630473 -3.012567823072327 -3.5039501301817486
C 0.24245921242077736 -2.5299024219896578 -0.41965301295424917
H 0.4140508822160193 -3.600967197178744 -0.4178620308068147
H 1.0160689941005234 -2.0495580073209942 0.17667122307741565
H 0.3153561957471316 -2.1555512125611953 -1.4412791782044858
H -2.2853257992269564 -3.7686249822251217 -3.3599596643673837
Rh -0.9699679973716334 0.5389084182350128 0.8704408335703393
I -2.934331038329552 1.1038370186939443 2.523187529645885
I -1.6964644917209444 -2.099814177995659 0.2812432447609711
O -1.5864164023792964 2.2455090532517077 -1.3090934043333242
C -1.9776253987982062 1.2930719398003123 -0.6389179854149044
O -0.5714667656527103 3.5179426647243326 1.253141304860377
C 0.018570101144081697 2.501540295536329 1.2427977768981808
O -3.1854890124998603 0.7374455573051352 -0.9260683770088539
H -3.667975448123086 1.2445696213777864 -1.6106416959443732
Rh -3.523173454446838 -1.9355600395089214 -1.5001792571911974
I -4.705177421418856 -2.160002217355497 0.8463238750562557
O -1.521925395964374 -0.8340715331150035 -3.138711975482317
C -2.1519388421583114 -1.8609454656212978 -2.8870889138624474
O -5.541467526738337 -2.077092029129487 -3.699750431679753
C -4.811177986540584 -2.0549484850799273 -2.810661432935215
C 2.9923576549689295 0.23231790263501767 0.07662647354776592
O 3.3138238863661797 0.10375940186203053 -1.1169707819678671
I 2.3675857188859086 3.4335886084102407 -0.8444879070170956
O 4.428155821517213 -0.3511991861042684 1.9130550089577807
C 3.205100629899428 4.098267573286116 3.795640484075583
H 2.5926883464702604 3.9900275511474073 4.673486793800841
H 3.4799003397074117 5.062558524286524 3.406578514626613
H 4.783623669241069 -1.0242524618820594 2.535483265460878
Rh 1.6151713432932897 1.4521426808059081 0.8405181153920194
I 3.4430143378333 2.4545761893348823 2.5774702277755406
I 0.7739659107444798 -0.3450727089474272 2.8472992900684018
O 0.5705162090813602 0.22301710530913613 -1.659378101735558
C 0.3830577501298697 0.4446337478556595 -0.5134153112633457
O 3.2726953277575657 -1.9966688551812606 0.9231948624046915
C 3.5895036791079264 -0.8209150495886337 1.014910768371277
