41
## STRUCTURE-ID: 6458e883d56f2d4924175824 ; CHARGE = -3; SPIN = 1
O -2.5463465330109556 -2.121381677249408 -3.433279759286738
C -1.1453198414277441 -4.527429322885223 -0.405745912163832
H -1.6615537669335423 -5.473362816788578 -0.5122949584643469
H -0.27566862448706003 -4.646560024548848 0.23847647800608385
H -0.8076083222617564 -4.15625159832049 -1.3700442997749713
H -3.438683806453753 -2.4875816827025634 -3.291073400633485
Rh -0.24082788402532734 -1.8790125620071485 1.8840349794638849
I -0.4642921505991946 -3.4928580074220363 3.9388427850434415
I -2.4347952880798793 -3.0633480623475036 0.4334388482233829
O 0.23221543676439135 -1.9338377366447235 -0.7847056404764703
C -0.17389982557166694 -1.1451134194132468 0.08232441995896934
O -0.9501832379720309 0.9458831825860678 2.4555682631451887
C -0.8047015683163893 -0.19684238487989913 2.413235833871844
O -0.713603710210553 0.029639568210384194 -0.26020744899601445
H -0.7961688868329412 0.01071448492650636 -1.2771251553774152
Rh -3.262162027126176 -0.9765376251174939 -0.843725455562282
I -4.642571041502238 -1.087204167799441 1.3969347741778575
O -1.1568907604254215 -0.5657221857534842 -2.7237261080074697
C -2.1984804250171663 -1.1968185536163012 -2.477153601755826
O -4.442235340113621 1.2999814552951807 -2.3682544905697114
C -4.04928021462617 0.4132493574740744 -1.7530048645080079
C 1.0595061036731526 1.5986651045268128 -2.4061122941931576
O 1.6329202178098707 1.156108710423135 -1.3716472568166427
I 2.477884207986883 0.37051131148923977 3.7729565528580995
C 2.1959005019046822 3.8636286411383085 -0.11522959088189874
H 2.9439254759355147 4.1351360213645245 0.6230262727812218
H 1.5155481196657572 4.679101175765389 -0.33436900531932057
H 2.673661974949809 3.499376050126849 -1.0176140321195062
O 0.0746703357282664 2.5076747108849733 -2.0304114283279513
C 0.8994078251247604 3.5851289806794986 2.4624575474276242
H 0.5626584211186026 4.561030890662436 2.1343039723695076
H 1.8773188908268692 3.633785250306045 2.9311191822116576
H 0.18879383944953085 3.152514422999858 3.157692859422465
H -0.32721488572903185 2.912835379116168 -2.8140641972541554
Rh 2.7900348703300017 -0.12062872897550285 1.2096084112390157
I 4.822073615658157 1.5188486404996122 0.9018482137918563
I 1.0154945070276054 2.2592885644967478 0.6960463776571338
O 3.082462030586785 -1.5843421866317513 -1.3576377366863568
C 2.99818295053449 -0.8939286742519175 -0.4161345071138334
O 1.7574957077850135 -2.890790278281938 1.2312580203784176
C 1.7323331078624624 -1.6935502073342867 1.4003873522617216
