39
## STRUCTURE-ID: 6458c694680923227f33f3ca ; CHARGE = -3; SPIN = 1
O -0.8576483438477053 -2.4628669157817753 3.9352300950295174
C -2.0316990245367674 -3.228032248389294 0.3182839098228444
H -1.54136230260148 -3.803254897872087 1.095458753643415
H -1.9653058338645637 -3.730549792504165 -0.6401973689019146
H -3.0670939599540987 -3.039410603774334 0.5867137185133605
H 0.06506523139389161 -2.177298261114385 4.030158375091086
Rh -2.555863332600307 0.5667167680202934 -0.9069131051547977
I -1.416680921782912 0.5804628154543549 -3.290500069571508
I -1.1104133502436417 -1.3394869504606384 0.18680040436354947
O -4.458448800546439 -0.8079601228195544 0.6976466401111879
C -3.6658804796981794 0.14126203217800182 0.6662399044680102
O -4.964832905239755 2.242619472281616 -1.4053727941608174
C -3.977075109615326 1.6348506152162843 -1.2919263273021586
O -3.564783247659893 0.9238601628557173 1.7858266675638432
H -4.168713305105816 0.6035421305998937 2.4842386834795653
Rh -0.9298719809066396 0.023608879446669957 2.376374089881005
I -0.09704795075862753 1.7298039382254173 0.435970755842264
O -2.8566707597159184 -1.8058510642929178 3.28409453742365
C -1.6663019454914394 -1.5202689811251364 3.3265320256544686
O -0.8536260251567522 1.4926364091257336 4.979585423673014
C -0.8071864708614338 0.9346812724217306 3.971035733488959
I 1.7403012034212275 -1.916267306698201 -2.135567920881024
C 2.4964177576144317 -0.09042127909472504 2.3053962429604415
H 1.4194484712056379 -0.3075892300159971 2.482968672576476
H 2.6316016281047228 0.9857065106188471 2.37928006471391
H 3.094131688360444 -0.606047144494305 3.0546745949581684
O 1.4335412346349963 3.5909681277616228 -4.309764257578916
C 2.27469182748758 1.0554929213258513 -4.776312084016079
H 2.9851024606252547 0.24122800779515927 -4.697766402923112
H 2.512775232583856 1.7431208050396723 -5.575320605128169
H 1.260689769609034 0.6889568868830215 -4.877333560954468
H 1.1892940773070804 4.394982746035477 -3.848950033304621
Rh 2.453057838581965 0.36906708296357194 -0.705034535491793
I 3.950972357520992 2.433009838023248 0.05065161798678095
I 2.3793731386223183 2.17051035990326 -2.971955761586378
O 4.66516816812237 0.06892914859059009 -2.604527590761976
C 3.668914909462168 0.528874675447334 -2.165544314954622
O 3.4657533127246496 -1.67985296966706 0.8265637215496006
C 2.87020574280956 -0.6297338381007223 0.9432620998769448
