39
## STRUCTURE-ID: 6458d5552a02cb042814396d ; CHARGE = -3; SPIN = 1
O -1.2375419810174508 -2.8423755551416834 -2.9323134048356687
C -1.3320335974038224 -3.366709807831757 0.8337682103790359
H -1.9011586120306072 -4.284582491565013 0.9202510889744179
H -0.8138303242369728 -3.1448561643525244 1.7604995901594376
H -0.6078472310940567 -3.4285522669209505 0.027656884406490185
H -2.1305632882508614 -3.218383756748971 -3.021155712548259
Rh -2.7912377404513022 0.5449011954082321 1.7118308924741625
I -4.400594558877293 -0.5094622682535566 3.5120598719937455
I -2.656925779432036 -1.7593962259459086 0.4033094900863816
O -0.21279331429507 1.6568273606520822 0.917149543206593
C -1.3276876083573033 1.2526862529894456 0.5302810588831177
O -2.020764050645044 3.007315623381208 3.1808110744415163
C -2.4279919657638973 2.046808979843603 2.6651579065615496
O -1.5893691862814425 1.3651265683917697 -0.8123503304157721
H -0.8105119581442723 1.7002091417970875 -1.312965874726267
Rh -2.8924727628166784 -0.6477473108301541 -1.9202357583742211
I -4.853914863365695 0.4987032821933011 -0.5043170094908718
O -0.1869032508503774 -0.9294877593271591 -2.5606813984651295
C -1.273436435369716 -1.508254324183892 -2.56500611174255
O -3.3074738613393895 -0.10041811917145893 -4.8261382368267585
C -3.2363694761272574 -0.2775594824771566 -3.6854380240336213
I 1.669312586132502 2.1733424643666446 -2.0943055194680626
C 3.9543496032371026 0.43451147769336185 -0.15156278842549795
H 4.103684748470252 -0.6457494303213666 -0.019755901101548623
H 4.634886780560494 0.9523870622042543 0.535616371007471
H 4.243259756522398 0.6861236926704307 -1.1747076118610993
O 2.5505419369673032 -1.0171476877567347 -2.314984346411031
C 1.6663472218703588 3.6454746695899707 3.3454104015130834
H 0.6386262779561813 3.339067708030758 3.177784962905123
H 1.7188758499478471 4.66851618711514 3.6963870089549995
H 2.1593680074250647 2.9544513070925356 4.020735850963261
H 2.8888184755253645 -1.6767456462646915 -2.9517300377762976
Rh 1.9953429597455434 1.0022853507002163 0.2732672367899139
I 2.3216555399413656 -0.09174931376649909 2.6802376959941236
I 2.688450297756816 3.5500064131767113 1.4419399647585314
O 1.6470287273874593 -2.7747687030675365 -1.2764514098977908
C 1.7766935917153828 -1.5641090752856708 -1.394975108015798
O 0.16465852803094494 -1.0489206599335001 0.21947626527123387
C 1.1895209569580605 -0.6417686881505017 -0.3345567853081974
