39
## STRUCTURE-ID: 6458da32d340fd6fd833f3cd ; CHARGE = -3; SPIN = 1
O -3.598155778142845 -2.3236306092833674 -3.3161431070531924
C -1.0353443279047048 -3.7756677579310414 -1.0087791710960579
H -1.4966912304426814 -4.673241030190414 -1.402634335555043
H -0.1407067030425745 -4.00125075559707 -0.4383615853257179
H -0.7974256006289991 -3.0690394085471335 -1.7978945862402447
H -4.075374382458791 -3.102408510912913 -2.9816582807248415
Rh -1.6012388748226587 -0.6965050697129864 1.7042871025028734
I -1.1330518206454878 -1.9632071608210993 3.9806958483369326
I -2.4357106483927957 -2.8015115361458762 0.31595371698196184
O -1.0342985316249294 0.12173603509483302 -0.9636579008467329
C -1.8475802584135133 0.16901853992732901 -0.027271274010452755
O -0.4391774521992241 2.0126696772234003 1.4337887974782937
C -0.8934946637320029 0.9789978292280154 1.7894531408855148
O -2.950685840071561 0.9783127656385945 -0.20538883535464875
H -2.9536056823286607 1.3253267405404117 -1.120207711799209
Rh -4.38281711478251 -1.3416020816069334 -0.6584103186205524
I -4.824203945689054 -1.1542998742457378 1.9881548800328093
O -3.204944094064435 -0.19328824676360737 -2.887341585791896
C -3.690217986019353 -1.2420036455977022 -2.477659078835268
O -6.974460409827297 -0.5484161059075953 -1.9296187242874887
C -5.998485339578692 -0.8720026900637685 -1.3981319442198354
I 2.480174800771264 3.941569750520867 1.2626572538466925
C 3.998519631933631 1.148965392716981 0.3859631182814669
H 4.22505912537989 1.7316503028325045 -0.5127790734705554
H 4.63925555908479 1.510953451600735 1.195481921365177
H 4.230470326157436 0.09761612218133647 0.1970654250455882
O 3.7865626054412775 -0.662826883530931 3.1979476261660986
C 2.7225873063051655 3.1327646307611356 -2.6796328543190175
H 3.5415031380724256 2.5061634329053084 -3.0112782268012808
H 3.0456224107557355 3.829729848909326 -1.9128391691179276
H 2.2686944535029028 3.6566699447380295 -3.5114272024434907
H 4.645011922959671 -0.9284229028395572 3.5930917131308524
Rh 1.9835119977070008 1.3880602656004053 0.8607381113265331
I 1.5060691714852568 -1.2539286645282237 0.6506477052279914
I 1.185207050626624 1.8272800816658645 -1.8025705847322315
O 4.279166917964967 1.403742749892463 3.885106377510291
C 3.533841597256866 0.6221860038953284 3.3349136824159293
O 1.2413608223105341 1.177289939439218 3.514362814189947
C 2.1950518470975466 1.0425494289143051 2.753376315920724
