34
## STRUCTURE-ID: 6458f6958e9cab575e7c60fa ; CHARGE = -3; SPIN = 1
O -3.456559077912191 3.671308808780182 0.05789311151881954
C -1.3900833115162814 0.8867231240457794 -3.640273720505226
H -1.3311744305881938 1.8329733269935526 -4.164588203774
H -2.3925343896132687 0.6917322973221878 -3.2749500099871476
H -1.0446202228288841 0.06738223949334142 -4.262035422704894
H -2.7533698257571877 3.992029955144687 -0.5313087099620731
Rh -0.5498729139738265 -1.2912751743652402 -0.3007460892645078
I -1.6471920263572857 -2.6557245653625863 -2.266865431653799
I -0.06545053209574866 1.0158687952673782 -1.904350440085154
O -2.9089865327519844 0.2571556340317136 -0.6099856052679113
C -2.2541331050675493 -0.43064028659447207 0.18797007330111407
O -1.6893669656930523 -3.374326630472872 1.2900581891577043
C -0.6821881886303852 -2.9325034921673603 0.7716049879992909
O -2.845130893487128 -0.7881291579167649 1.373482096921679
H -3.7288819621229177 -0.37625607459669674 1.4294414524848138
Rh -1.450736896357332 1.5917367986372108 0.7892202462117651
I 0.2753774435619165 -0.18330239738810472 2.0273991000914964
O -4.009773645294923 2.0623319380955256 1.462032349062386
C -3.138742182114409 2.5758115553588565 0.7739350451890411
O 0.37972121432908934 3.690014869037899 1.8354775307965987
C -0.4420308876830051 3.004719781320157 1.3906526355420963
I 3.47290522441617 -1.270914437732696 -2.7169748443933
O 4.051429484361872 1.3417271554609334 -0.27315902558561317
C 0.6708831223343722 -3.5604553924051685 0.8352745861878049
H 1.0448458080920058 -3.4820640158523295 1.8603007660831568
H 0.6118413611873909 -4.617242577416848 0.5592235191144632
H 3.92146410000806 1.9873435575775291 -1.0022769403832443
Rh 2.9281717765485493 -0.5464573974479521 1.5845295996493194
I 3.1020272579561126 -2.3795146655894888 3.5844963232822273
I 1.9143164142799534 -2.4302765707330956 -0.5164684243202791
O 1.8649809187738444 1.583986404031297 -0.05902708132065307
C 2.8960306080201317 0.9791015021689107 0.3062971084516026
O 5.8980288879653315 -0.46249396752516897 1.7678393798015095
C 4.748804368007791 -0.45037093920052257 1.635881848362139
