39
## STRUCTURE-ID: 6458db402b1c256a521c51b4 ; CHARGE = -3; SPIN = 1
O -2.2906759971466712 0.2697361933131582 -2.8795716637932873
C -0.3254530618019355 -4.22928427688466 -2.0175174434774488
H -0.9477037238787379 -4.675668058569886 -2.7959847625545486
H -0.07747065280743953 -4.930666465215418 -1.2183574001554154
H 0.5554934803587136 -3.7049939702383607 -2.390129653116853
H -2.577163868543457 -0.6705317548045928 -2.9804055523761126
Rh -0.7787417946750467 -1.3313120612738278 1.1166217933567992
I -0.05695746864905148 -3.674186740934023 2.102580329209318
I -1.6829623514221672 -2.6388389136538914 -1.0617242969130212
O -1.1886798163611592 2.326325619521196 0.5250100622695427
C -1.3089458035198354 0.9924525040722384 1.1607979792108318
O -0.23020672887957017 1.1445949000328735 3.253800959836781
C -0.10213236588555438 0.6688457819990893 2.0095122275553767
O -2.3288739561869916 1.3489429924881422 2.174883758214517
H -1.7297969981009182 1.5220190286514241 2.9526936555399255
Rh -2.6886505227600317 -0.07507946525166632 -0.021246491490898498
I -3.80368344636284 -1.5592906866520277 1.881678642986674
O -1.5611509305161722 1.9491864215322672 -1.7268017612502848
C -2.0605612440020367 0.7120005189966185 -1.6422920461935937
O -4.690337102747891 1.9159416993425153 -0.714725598326505
C -4.23037732205697 0.8427580959760449 -0.6502880153548641
I 3.4859991290210623 1.7120193463898405 -1.0218606530679921
C 1.6648695375565155 2.8076843766806077 1.7236467116170926
H 0.7746293782937855 3.3559627860545937 1.3509482484127249
H 2.530318629265851 3.4746017328777747 1.557077939243739
H 1.524319386271324 2.756547813342966 2.825185306731884
O -0.08391609084183606 3.47498109094186 -0.9972354587186459
C 3.500857133265803 -2.1920687181670937 -1.676866592320501
H 4.466491784539608 -1.8581102774151437 -1.3030138712359656
H 3.277553444638079 -1.7582850712042128 -2.6487921275000987
H 3.395884601420743 -3.279814510536468 -1.6438810043115735
H 0.22557186403065835 3.492053780536425 -1.91981184129157
Rh 1.7857460943127867 0.9035268934128386 0.8547643356848647
I 3.866796784937091 0.5289980931868622 2.4315544047337467
I 1.8604480205572675 -1.504969045071781 -0.18319810896897076
O 0.3407857133832465 1.2485622248466326 -0.8007372623727648
C -0.5412376705931997 2.173327260156553 -0.6748157209978299
O 1.3299568655183087 -0.9905507430184776 3.0086920548861906
C 0.6999570703685455 -0.5474183954614229 2.039808916298623
