33
## STRUCTURE-ID: 6458e1defcd4d33d44378234 ; CHARGE = -3; SPIN = 1
O 0.1414581778941986 -0.7642095790117357 4.408447516116837
C -1.2125138740803096 -2.4665437693256327 -0.3332903898860397
H -1.0093646124044418 -2.98411310834487 0.5983702054973022
H -0.7294295947795387 -2.9548668125196764 -1.1762087644893038
H -2.279926941308603 -2.359053598776149 -0.4839318444668262
H 0.5662137314132902 0.07028137732101283 4.667476075164655
Rh -1.919226013136064 1.078515906975147 -1.652428541684093
I -0.0684816350335338 1.4243048635132558 -3.659031255124698
I -0.4343108095341599 -0.5020470500842015 -0.14568215366856566
O -3.2758682502578687 -0.23859676625545734 0.5111484694819367
C -3.320668052660217 0.6741416647825946 -0.3191914321996424
O -4.265685105789996 1.6162219998417862 -3.430145382593664
C -3.338599693729598 1.4225188487387563 -2.773321517448917
O -4.36506899940531 1.5221653183037491 -0.27622802740766017
H -4.9614843526329295 1.3297991569713477 0.47728447278204533
Rh -0.5274719627359659 0.9081189744894912 2.10034546046137
I -0.9745389291799164 3.05576422968554 0.3486414637130652
O -0.8758075440605196 -1.7996718682219377 2.7573685490570994
C -0.4402801260153837 -0.7317171159475443 3.1709175227711506
O -2.5574248550301806 1.8828465073952798 4.076008492967209
C -1.6874645822667291 1.5404647599720374 3.384967274713704
C 2.0901775988911555 1.0382630928010874 -2.9603436976562083
O 2.964791576371107 1.260728300540946 -3.7166639204940513
I 2.042976750938637 -1.8339718452228733 -2.852799990085838
O 4.944142885410775 -1.3703742005622788 -0.10661500337237295
H 5.90663313612913 -1.2204484382052243 -0.23195390458922863
Rh 2.2288570624693858 -0.6149463529058843 -0.4879969120784996
I 2.416585557730633 0.8089714639263542 1.8481520574301527
I 2.253588563519248 -2.9726328784817957 0.8670123804477017
O 4.698269172671144 0.4239219460744742 -1.3914937488861236
C 4.197544371655646 -0.46934141608444674 -0.728514713279284
O 1.7674004931940959 2.1669987339685135 -1.023965457848495
C 2.024976855752606 1.058507654648397 -1.4663332833445666
