35
## STRUCTURE-ID: 6458b18fa587a03b5e2c7b34 ; CHARGE = -2; SPIN = 3
H -4.191865206640493 -2.9861426301784526 1.0445118327135414
I -3.7871223624046664 -2.6603013707717436 -0.4842885366995868
O -2.6124273274280103 -1.039456165390374 -3.125824369219573
C -1.2005074510002212 3.6463209639921743 -1.050753779116404
H -2.0674970384193387 4.163375565033988 -1.466451168889738
H -0.5484614697455622 3.3019819390410254 -1.8633273301621367
H -2.2910389670799676 -0.98577236563227 -4.045113296419093
Rh -2.9617616497227486 -0.045203905162902396 -0.5236472999129538
I -3.010330973178896 0.14471846284725007 2.0902067967704823
I -1.7290876085505027 2.1603217364642404 0.22157611798965543
O -1.8363431505527639 1.0521904801810822 -2.911426623816358
C -2.3842387158387415 0.07174610598867341 -2.3965635976266997
O -4.6646714367822675 1.8385886423733258 -1.960981747676049
C -4.5746467423951875 0.9231292682521349 -1.2452502133153756
O 3.6311607799230257 -2.3565728280133036 1.466347922830645
C -0.033945206233786315 -1.9388592396460678 3.2978259685755273
H 0.47640025486689647 -2.039899180153401 4.256145716674953
H 0.1674810198306096 -2.767489745039535 2.625083090564999
H -1.1057802500985408 -1.7562881956144312 3.4339347232286594
H 3.951759812429584 -2.073664394903334 2.343644220897368
Rh 0.839084875616531 1.0851924377798923 0.028080949116551075
I 2.115559281403204 3.107843087634704 1.3887108725779338
I 0.8298365395657916 -0.058051918760614114 2.4144832723041247
O 0.3483947723577869 -0.7869457260840297 -2.125142785515484
C 0.23591417706429288 -0.5295085569527729 -0.9275396417711361
O 1.5255413026850877 1.9704587948179504 -2.738603322615154
C 1.3373217564450506 1.6457551383123417 -1.6373901341918062
O -0.4270813771137168 -1.4264285676175081 -0.1318466516048058
H -0.601669954636618 -2.2874968809746914 -0.5744387301515735
Rh 3.2995714490303274 0.5114467070392419 0.9794273599228286
I 4.84980270920247 1.1562868508221027 -1.3268365665511894
O 2.7895646486855776 -1.7116383479824435 -0.46904239562629424
C 3.2808217627867644 -1.4077782297140153 0.6031016563897593
O 5.57945956543178 1.3723552078385277 2.644604071527386
C 4.770802180497249 0.7057868601731526 2.166783618797038
