39
## STRUCTURE-ID: 6458c820910ebb324714b5da ; CHARGE = -3; SPIN = 1
O -2.9559786645766817 -0.9075568519701298 -4.182882581848077
C -0.40263702101836263 -2.747806891851704 -2.168793320548575
H -0.6416446247700507 -3.6783208004137875 -2.6721512677473283
H 0.590568137243094 -2.8159610066454728 -1.7282839543763164
H -0.41023920799282215 -1.9276536463665017 -2.886524585969093
H -3.701593120686771 -1.5315865054275846 -4.244696191154792
Rh -0.21837071224068103 -0.1619383181156972 0.29050787046632953
I -1.2488473600582546 -0.2880876554423329 2.6520616931303054
I -1.8401666928800955 -2.3233109432139787 -0.6954549335693283
O -1.2647214597958938 2.3170718606144405 -0.7189944592364451
C -1.5637766821203298 1.1660823303482648 -0.19218165560161962
O 0.5886762856288713 2.3439474566852634 1.302591932735327
C 1.0577516462021606 1.2645469889846928 1.0909389994067904
O -2.8374058055619824 1.0061306067730191 0.08103952962122545
H -3.393893151245619 1.8016297041435254 -0.08842927613865048
Rh -3.9151803919867945 -0.9743886533496627 -1.4079376616649988
I -4.4612967044966085 -2.1659384469713068 0.8641243623697398
O -2.0463031155273153 0.5782927238418777 -2.814846626882639
C -2.9033839294040686 -0.30297519449428356 -2.9399165722525296
O -6.3644108371721035 0.30332680569239784 -2.547201934761963
C -5.458066273120445 -0.2152860587004446 -2.065660061964878
I 5.337196091741662 -0.4431094280611571 1.3192061512742665
C 3.5814089980455335 2.428633901239636 1.0967895667624934
H 2.8055486908789464 3.2100326042427145 1.0543647880658822
H 4.155995522469786 2.5329005103006876 0.15746716036553754
H 4.262799643067406 2.687126681026214 1.9205688885235197
O 1.0980816364004198 2.1100145955397656 -1.3547968440471903
C 1.9331998286628653 -1.3434596635371392 5.0185468450171
H 0.8482518978819432 -1.3486853539045403 4.9412501686423065
H 2.273648665524657 -1.289187507627162 6.047633400591069
H 2.373957505442075 -2.176508225427931 4.479852251474579
H -0.25619990974471923 2.3166175994617086 -1.0350586377793107
Rh 2.818938124318139 0.4868434364832046 1.2896072007221175
I 1.695191427275614 -1.9612805941663698 0.9621217659640285
I 2.6504488517806446 0.5128969823315077 4.051443385630778
O 0.5757714167614774 -0.07051880260437261 -1.6758283336725392
C 1.226646694393168 0.8479847187022591 -1.0692775524193276
O 3.398814184796402 0.2585468620558846 -1.527934947151206
C 2.611220415882948 0.5009341798232448 -0.6032645619757367
