39
## STRUCTURE-ID: 6458fb39afd0795df11c3264 ; CHARGE = -3; SPIN = 1
O 0.1780327504564954 -2.5029332757314533 -1.164196760578088
C -0.724405777721243 -0.6452054818210055 -4.2413096319179955
H 0.03826748362208051 -1.4153437572471403 -4.2487381017446655
H -0.3930925601843689 0.19589987162129524 -3.643125002561883
H -0.9703407960476073 -0.3279108260153563 -5.245730226523757
H -0.24200150053626443 -3.2760873490370677 -1.578449994960186
Rh -1.551448727969157 2.2114683703066595 0.803545472767349
I -1.9975088003262056 4.620127249142341 -0.06800037091855078
I -2.486516432219212 -1.4146425107148561 -3.307145790940074
O -1.0660261523955423 1.1145420416134095 3.285013349947778
C -1.6819342293903856 0.8854030678157152 2.2412537662348266
O -3.417967747348552 0.38733892766511 -0.586946746925777
C -2.8457371822976545 1.2309761658580014 -0.03224087205064231
O -2.582033999469672 -0.13087150940771736 2.2473834461646067
H -2.6342971948144513 -0.5461339458558211 3.1349030991043816
Rh -2.659613914070189 -2.004837586196878 -0.7788403580621893
I -5.075745241894198 -2.677128057658798 -1.5587538403072692
O -0.21833951880344465 -0.9109353614028824 0.3367289690218158
C -0.726082153037379 -1.7255375211551816 -0.4326800361111645
O -2.5245101849713025 -3.128416555910971 1.9723286745715378
C -2.6553736776801014 -2.7188122391142135 0.8962440972353776
I 3.818197614988194 1.7235800199473308 0.8679136903558606
C 2.120805347237156 0.13634562551019974 -1.4058749202856307
H 1.327066157036624 -0.3888182628032454 -1.9557089767903133
H 3.0656735472195975 -0.3701578530029599 -1.649948060684609
H 2.190508371295147 1.1438689842522272 -1.8451304957161834
O 0.84023584917841 3.2092541866998956 -1.2367172267050561
C 3.5261685578165616 -0.4577649117364856 4.179716043104214
H 3.5002526458896743 -0.3470787933768778 5.257058202180037
H 4.254456954094997 0.21266008606485368 3.7331020112388034
H 3.73140524722801 -1.48301240027798 3.8905081967062047
H 0.6102111505529685 3.485084613648573 -2.1444810637650282
Rh 1.731918635794547 0.11670601194013291 0.6495470771135577
I 3.1329914310349425 -2.2074791471417394 0.8478302003404645
I 1.5327324784088776 0.11042583174298815 3.4274069516056387
O -0.4428680863321196 1.4437078773757877 -1.7151054971428372
C 0.18695633256751396 2.0853282527792376 -0.8608238318139054
O 0.5306564552761294 2.648318143508821 1.3948030319224853
C 0.5793068678106708 1.7180720181149292 0.534661526891207
