37
## STRUCTURE-ID: 6458fe267299530cb73c1d94 ; CHARGE = -3; SPIN = 3
O -4.327872517862481 3.271836315968314 -0.6514036697427543
C -3.6819931643477135 -1.874537327027647 -2.4778838611820926
H -4.555996226419008 -2.4618305767694117 -2.7258762876121563
H -3.44360661027395 -1.948301110671216 -1.4224960171426222
H -2.8223306781858217 -2.143546859174192 -3.079864452914433
H -4.301332128941411 3.215846167932913 -1.6214799085428544
Rh -0.3540267533009287 -1.4326025488842429 0.8532040412064698
I 0.3513570967685512 -4.0001065781438765 0.2682077189097267
I -4.132933622592561 0.18011156530381717 -2.8832287589285777
O -2.898994104380696 -0.22730936796473478 0.4442933763187205
C -1.8081958304503112 -0.08549260575911169 1.0457577081104086
O -0.9806994643185365 -2.134134485637274 3.681486710985833
C -0.7592177101169113 -1.875982954527254 2.571377702536684
O -1.722464199234967 0.775818141433645 2.082710673532446
H -2.463813467391861 1.452877424287469 1.9919805003263167
Rh -2.1331989823034228 1.326034799317629 -0.9335536838466624
I -0.22678941864298566 -0.5594653667919617 -1.6461635807154635
O -3.471053964353874 2.5475069911321415 1.223480129546303
C -3.407507268778767 2.519181854942277 -0.008461470884978986
O -0.7036753249967018 3.6020362762494726 -2.239085458155716
C -1.3202957913782656 2.7587532189449107 -1.7538335100535638
I 5.739352273410194 0.34365435472999334 1.8193645464017627
C 4.3587969117049825 -1.4911498526291829 -1.3688674178537987
H 3.5508893600244344 -1.5877912193639592 -2.1155505130520784
H 4.669945520146565 -2.5008437984685816 -1.0817703937433794
H 5.212000615652812 -1.005258920949132 -1.8611057499474506
O 4.141304413421954 -2.978720455049069 1.233676128659868
C 0.7923215431591597 2.6168562246302134 1.182322103710265
H -0.1339621147075005 2.4681255751488704 0.6177344371525213
H 1.5235235376578191 3.1231300778523283 0.5587157940775758
H 0.5872271303534384 3.1837583319144147 2.081636736984265
H 3.9593725047628943 -3.613705930310198 1.9553106428709615
Rh 3.615791906293929 -0.283922293693627 0.2077851492907967
I 1.579658549070996 0.6747882741988787 1.7626015998086906
I 3.6494937547651864 1.883516404280207 -1.3404612029123613
O 2.5513579896272938 -1.8584522980581049 2.293322792147673
C 3.367566236157735 -1.8806774483947637 1.3361174446552422
