39
## STRUCTURE-ID: 6458eff322eb184c7f237408 ; CHARGE = -3; SPIN = 1
O -0.4573764301309392 3.5988364916866846 -0.3091735954460961
C -2.5171801016505073 2.0169975126262756 -2.756903013015522
H -2.0914415195946496 3.010223645971703 -2.670551552306208
H -3.3629016234130407 1.9180568737844867 -2.083657613192891
H -2.8036556913888973 1.794427685735852 -3.7772904273784396
H 0.3759185273676421 3.1263523001565647 -0.47738052884612125
Rh -2.348012970942011 -1.5504514654521975 -0.9826849175854551
I -1.4654584413550569 -3.303515386190754 -2.731865931640813
I -1.0446138943417862 0.5931781891369692 -2.139937821947342
O -3.99021331285756 0.6606617306524215 -0.13020100916058963
C -3.2090239211863936 -0.23859268423757077 0.2332100078402515
O -5.165123731108952 -2.34228898161024 -0.44781490663099366
C -4.056279281858824 -2.156311703835325 -0.7670812161296291
O -3.3566213196563712 -0.6586125930643282 1.5760598464843611
H -4.073203625562468 -0.1487613637826445 1.9896078060825642
Rh -1.0063710860352009 0.8730592382547788 0.4959854654621035
I -0.17785903527835611 -1.629851970390563 0.7205424322462665
O -2.497809201678387 3.3393171218692994 0.4923729967821352
C -1.4419310879132903 2.775822211817628 0.2352241866715196
O -1.4686262576333873 1.7019960774946596 3.3223272614152624
C -1.1915545278243151 1.3271340085734482 2.250835602502677
I 2.5474930191879337 -4.034034071669742 0.9018960854358655
C 2.7745690616437115 -2.783176585219057 -2.762708566282386
H 3.683676102842843 -2.297286378615835 -3.1271062553489832
H 2.153276267482711 -3.1039454169491965 -3.5983381704582302
H 3.0833236176986376 -3.6366147077566806 -2.1590473047642256
O 3.9597778129311467 0.19930602677807566 4.2599500674114745
C 1.8192199152914579 1.1520224134336208 3.0307236775673387
H 1.0788323275908864 0.4323107195186314 3.3709476395743465
H 1.3758402504909308 1.8275474902441669 2.301657481708877
H 2.213869299408935 1.7004090934301612 3.8711522342971434
H 4.773994423225077 -0.28018497246409957 4.43197281534531
Rh 2.4262127899700388 -1.571931405152975 -0.03855219021056967
I 5.015546746972648 -1.237039899224293 -0.31323850521444474
I 3.37514574438729 0.09278419831877459 2.106605385937022
O 1.612144321274559 1.3174309816185779 -0.05513515149520952
C 2.2905415635252524 0.33675990581934606 0.15104302267154635
O 1.1546964435707685 -1.0427688753982303 -2.4327279250685794
C 2.011178826546862 -1.7792654559106842 -1.9807174133126846
