39
## STRUCTURE-ID: 6458f6ac76e6a53cc9266c73 ; CHARGE = -3; SPIN = 1
O -2.694840999923784 -2.321700867348742 -3.9759790406877165
C -0.9063671078810296 0.41283272831642764 -2.6856542823300042
H -1.1734952186008751 -0.013510671103804757 -3.646243474914819
H -0.26777636660434223 -0.3016263933614264 -2.1649446824013077
H -0.3978857106616769 1.3633240740437882 -2.80830917045719
H -3.499925914343559 -1.9846931276531583 -4.408347189104456
Rh -1.7693368775780987 0.6319691573380324 0.939265430303981
I -2.6719067163204566 3.0597274088951987 1.452542073628599
I -2.6654364664593886 0.6254287313170679 -1.5191813930294584
O -0.8345789751988774 -2.191696300467064 0.9382939200164584
C -1.7437075986675916 -1.3659314236874989 0.7918883354085607
O -1.3290933814665844 -0.546190911057735 3.630584286381942
C -1.5222798437347649 0.05646497785174365 2.64284944599311
O -3.0344280390791436 -1.9003162300197791 0.730583149982175
H -3.0075334495736006 -2.8698319118051385 0.835706157217904
Rh -4.2402585547935825 -1.3751568589788705 -1.6771957377643625
I -5.634583086837159 0.5318886297533629 -0.4879271414253062
O -1.8674332855003974 -2.857937787483785 -1.9958805314621193
C -2.813029416528204 -2.3423278054524235 -2.594286314204086
O -5.958336762502015 -3.7597431346202868 -2.2105612627430036
C -5.368867851845448 -2.782633288352243 -2.0191838726526052
I 4.270996689802621 0.6572720011401658 -1.1981385316749313
C 4.422074642597315 -0.27739408019159995 2.0106436895124147
H 5.453271310923411 -0.01096455794177533 1.7693836897909951
H 4.269051895090927 -1.342931400280407 1.7805240761429597
H 4.257665197582184 -0.13039287264319838 3.088588035980989
O 1.263388381308975 0.43155844529172627 2.7198166208325736
C 3.7615295902013535 4.475696361089905 0.05073358180705454
H 2.7123974856760724 4.388709416658774 -0.22129473481800707
H 4.407936038261964 4.075418357385142 -0.7237948138774633
H 4.03435503810078 5.482598983428079 0.34757886881811023
H 1.3329569472382345 0.10324711742239917 3.636536221211481
Rh 2.9519354661879285 0.8000956937036366 1.0333751205323698
I 0.7090153091712813 1.8459664223971686 0.08082095160559924
I 4.043142437683063 3.212470586463194 1.8068850476944252
O 1.526345498925705 -1.768296369444702 2.298327876308738
C 1.3479710261608566 -0.6331881475653993 1.84610064531688
O 1.2013978179104772 -1.0601769450639764 -0.526397155058096
C 1.4356708512777232 -0.31802800797194836 0.432292104117517
