34
## STRUCTURE-ID: 6458fc71bb3043105d59ffa4 ; CHARGE = -3; SPIN = 3
O -0.8140314262907321 -2.5639032541173945 -2.335873761615035
C -0.9696200755418468 2.3844595459604063 -2.275056893809924
H -1.3760850162143454 2.366166767393845 -3.2810739653986434
H 0.02707804025548861 1.9558730551727026 -2.2343769006983623
H -0.9741491714829063 3.3940234895470667 -1.8658706782635204
H -1.247693056403274 -2.106770665294619 -3.0773481501353768
Rh -1.6937665524087602 1.721956302500908 1.537861800828506
I -2.507944865466918 4.207899726239159 1.350635069431772
I -2.3525973236329527 1.1909151351150227 -0.9966921564753786
O -0.5502507292179349 -0.8028790739914184 2.0489169685240944
C -1.6404094951000894 -0.2914571462437434 1.7316359592036625
O -2.0605994253680455 0.7058274623494167 4.320863691552598
C -1.9394941944073554 1.2627953339378144 3.29804782456465
O -2.73718057214084 -0.860877623743333 1.5409455036261261
H -0.14636067840057684 -2.97743332861116 1.9482143411708615
Rh -3.117331214460431 -1.3444115260046956 -0.9330831464885079
I -5.511901580261285 -0.3311728710180109 -0.5346761923493117
O -0.845447466644479 -2.8109471574315914 -0.14322721164531355
C -1.416949465426067 -2.28350898238971 -1.110133130296148
O -3.6848987801607134 -4.173481824864447 -1.666135147814073
C -3.5936213467530793 -3.0276837400665286 -1.4502947609733166
I 4.385185827919761 -0.3152794489944521 2.5667701606382964
C 4.5999690328613045 1.8800122429925565 -0.4126286674494211
H 5.366231590595303 1.725793851540224 0.35933048341992785
H 3.9033457050977036 2.617499931767492 -0.012306043155505165
H 5.064451992065899 2.2230899462772524 -1.3368184883323877
O 0.5091505016792449 -3.3540271249397056 2.5208544017184353
Rh 2.579934719734916 -0.13561033936488276 0.6402243570780295
I 1.0532591819082637 2.167744818429675 1.2934928850150955
I 1.9792767782117922 -2.028246874665971 2.47699050883843
O 0.24302640371413192 -0.34383719386255546 -1.206146832955554
C 1.2661978766253779 -0.36325109629956265 -0.6465169012544385
O 4.227926838428463 -0.2652436397007085 -1.4639114681670682
C 3.975297946684965 0.5759653023809664 -0.6526134583332117
