34
## STRUCTURE-ID: 6458be4b4919a56d2e5a6d9d ; CHARGE = -2; SPIN = 1
O -3.2228851063022588 -1.8214257696061391 -3.6255767923856284
C -0.055692591530409445 -0.9212021900692241 -2.3817229316779147
H -0.4646319451306764 -1.603438188826437 -3.1182732132904456
H 1.0021706457175508 -1.0994130969211697 -2.2337450815176747
H -0.22776488994569372 0.10641473347934756 -2.6939566297085626
H -3.4252220892589254 -2.6985632470020504 -3.2606717455432843
Rh -0.6608014845621547 0.9866266515822553 0.8604075217946682
I 0.47691541697979845 -0.31908969141303795 2.9248323191601044
I -1.1081441794301985 -1.1929029552313775 -0.5617539241092777
O -1.2918023903664488 2.1329772120864945 -1.673251845375216
C -1.7528232802247512 1.6881779839718771 -0.6280197337688639
O -1.6250439911845604 3.5450963722519124 2.0553434702213425
C -1.2230407143879474 2.520991870690537 1.6885460237299719
O -3.114554202327506 1.588759613338803 -0.4998200743072132
H -3.5467543075642647 1.8850799278305521 -1.3267315138308173
Rh -3.6511972404227135 -1.1712884091990452 -0.808190037059041
I -3.380561093003677 -1.6624693666698949 1.784908458159444
O -3.3380874046988858 0.3371255152244599 -3.157758735080237
C -3.4375108883650958 -0.8001187061161266 -2.70971793520736
O -6.553830532769651 -1.5340522321490038 -1.4294740443481304
C -5.439106202195709 -1.4170535234341466 -1.1378298869043741
I 1.9481746941278177 1.671556636897006 -0.1785573011690046
C 3.24030759759756 1.8930673231205344 2.9567037036065913
H 3.547469588440647 1.572626364737742 3.955659344536344
H 2.2563763397141052 2.3623846076378423 3.014213632897393
H 3.9497111688012203 2.5918973300154318 2.5156955742975384
H 6.560676865625336 1.1007532447218555 1.2849926767453617
Rh 3.0780557764239966 0.09568479805760298 1.9038393169646752
I 5.789342086574991 0.019318377178621962 2.1916798644659035
I 4.4313397672783905 -1.8436430201967169 -0.8382629786774722
O 1.658133605161752 -1.7443521628354948 0.060227644937598086
C 2.7806120926225235 -1.6999790341472654 0.5410497825518228
O 3.569729300656472 -2.759041192221619 2.5814135948413335
C 3.2304395879498977 -1.810505776784174 1.9438014750500319
