38
## STRUCTURE-ID: 645907eff69d8a4f9413ed1e ; CHARGE = -2; SPIN = 1
O -0.04427232738834423 -2.4377340119714757 -0.376240385670405
C -0.9598660651540974 1.6878388260201818 -3.4195275007666566
H -0.6472953375039044 1.021291126925692 -4.21530748032775
H -0.16664840611397208 1.7790825539944874 -2.685482381060146
H -1.2056898057973675 2.669071509043947 -3.8092157014343253
H -0.40860365409882865 -3.3307690076092156 -0.31500578167221627
Rh -2.117699677144429 2.4883550889159256 0.19873857069091977
I -1.0563864425088338 4.565593427141867 -1.0461939404318346
I -2.7264074070278888 0.8757095280392653 -2.4992032266401
O -2.9260163048698 1.198387329051737 2.6093965342798384
C -2.8848432900496226 1.1136245622098804 1.3746132669138846
O -4.974992266199734 3.2172579642537094 0.6111068053779813
C -3.858524439441772 3.032072183921319 0.3340955859981845
O -3.509718509685094 -0.00688953297684279 0.8385909402938477
H -3.9841985046901804 -0.4940686274020389 1.5414087382583166
Rh -2.7882970008444774 -1.5137710609253292 -1.3588223597347482
I -5.357606802093927 -1.219700934521411 -1.9169548997081685
O -0.24176585904685408 -0.4105267764693918 -1.1170298868854587
C -0.8503707888832537 -1.4849871441797162 -0.9553176891775644
O -2.9828647081168658 -4.311537277164387 -0.3659239665149324
C -2.919552200459045 -3.2310650237309266 -0.779494812442523
H 4.899501988118255 0.07155003928610379 3.860505827756859
I 2.1702143644004135 -0.7057257455074429 2.290569201970971
O 5.357578527621229 -0.3469078062360267 3.0958041246813597
C 4.540511956079319 -1.4110961450231927 2.5925360802276605
H 4.963911494882504 -1.750424247061202 1.6523335850506906
H 4.516559465691694 -2.197715490480075 3.3444720274216664
H 5.528108159101028 0.3175678170485993 2.3802292119780764
C -0.05610129524289877 -0.08635778271857057 2.23157749964572
H -0.597424677031241 0.18793773243300207 3.1489509960136712
H -0.7172758091603504 -0.7753980664470695 1.6676776614769449
Rh 1.9982109263418304 0.11668022814659308 -0.3368349930477753
I 4.3614945239649545 1.0905245165418578 -0.10120379489043152
I 0.1898967185578444 1.6736478015226726 1.0347844523170906
O 2.436421634966466 -2.1003571892258934 -2.2410804029084406
C 2.4588602567301656 -0.9376762484787534 -1.9091683997893103
O 2.298406246456754 1.2507203947436054 -3.108580912888132
C 2.2627453156401964 0.3957954888879357 -2.2508025943619807
