36
## STRUCTURE-ID: 64590e5177547273cc56c18a ; CHARGE = -3; SPIN = 1
O -2.626815535465676 3.362307892648364 0.12327116333138197
C -2.035824357410129 1.3881937652985603 -3.6372541208630937
H -1.3825803268731554 2.2094142665846395 -3.909687920945972
H -2.963005752096086 1.736092235898815 -3.1943992669987002
H -2.226128626858876 0.7336229880185163 -4.4806450174283
H -2.1024349627270644 3.5287072557898536 -0.6760323995895127
Rh -3.0977878513730492 -1.640488264378572 -0.8873095213837836
I -2.1148166615373842 -3.951299373290493 -1.6659020091339594
I -1.031200379723443 0.19105833362029795 -2.117241358203255
O -3.8956413839598993 1.1114103987776103 -0.9786193579847052
C -4.000706309670761 0.02530361527014007 -0.3826491377032996
O -5.699528459966417 -1.5904689682275681 -2.3162964037683658
C -4.642063743807957 -1.7168342845877675 -1.835775366304708
O -4.922612944861362 -0.05140970443751469 0.6273302037764794
H -5.336612163935542 0.8176878920457953 0.7922332189030282
Rh -0.575690151648158 1.248244088778008 0.386036287525998
I -1.4603350410992755 -1.3652686041512048 1.2868467532143997
O -3.016041136941294 1.8789055541077966 1.709245585738742
C -2.288180033700454 2.164040561783386 0.7621364251443182
O 0.19502936607660526 3.4738163730365907 2.2204819491153414
C -0.0789430848992254 2.6281971369881667 1.4685473996887077
C 1.7113577296101579 -0.415453513117495 2.960499826746728
O 0.7957940051353884 0.37445517015493784 3.1095561879728906
I 4.890292569410635 -0.153399999121368 1.296929456398213
C 6.934887418385608 -1.1760831215932677 1.0787135582420904
H 7.059050548676912 -1.4293595374857484 0.02692089324515793
H 6.936413338466536 -2.0704712745497975 1.697430217672976
H 7.653940769443161 -0.43013531746005096 1.4180576269229643
O 2.7728224021496635 1.8695459616392363 1.4137427059282541
Rh 2.898012753426439 -1.6336134857712856 0.55694799337445
I 4.4456147303388525 -3.2835255154408145 -0.6460164960008973
I 1.935344302681596 0.7356300992315218 0.20562826529495273
O 2.914136801060208 -2.5079606171363453 2.8538149925560767
C 2.0869966385349694 -1.6272252335502153 2.6202946877211497
O 0.7466904237963912 -2.2368738408530757 -1.368490043538759
C 1.5205651113620635 -2.1967629345200628 -0.5183469786664495
