41
## STRUCTURE-ID: 64590eda94b3296005718be4 ; CHARGE = -3; SPIN = 1
O -2.8623268501775514 2.6713695597371396 -2.070550946985495
C -6.070003999489812 -1.8790140911010191 -2.543061523853275
H -5.432394093295885 -2.489231719342976 -3.1745357479732212
H -6.729199854015324 -1.2494605264626837 -3.1284950150084243
H -6.617340277250636 -2.4936035702525117 -1.83697486869792
H -3.680148048316883 2.161075582062167 -2.2051857790055647
Rh -1.9946542575954769 -1.8364852689214095 -0.33559345020202663
I -2.773277442713937 -4.128850972748359 0.6435472839731418
I -4.7145546360497335 -0.5367331730357007 -1.3457101534195084
O -2.739646692927648 0.9699516701863743 0.15381486792871604
C -1.7688389474588084 0.2988727842736867 -0.32032182418895655
O -1.9621657615089254 -0.67191896913459 2.386111538790509
C -1.985987568763693 -1.1654361339416712 1.329729274132642
O -0.5222009387410457 0.7296352207876192 0.23056569848672046
H -0.7040995443435397 1.499429579592525 0.7910039976270047
Rh -1.8556036529471593 -0.03914159760608686 -2.4257050842814816
I -1.7184911510786485 -2.657558233103826 -2.8368774590054318
O -0.6854488616092532 2.4928944527164116 -1.8053497680737947
C -1.7237169196364592 1.875196948088332 -2.039484809458306
O -1.4707355147599344 1.4130509755686624 -4.990287968199713
C -1.715797844877072 0.7136212035056949 -4.093357418268266
C 0.9303408285786501 -1.4217672587486547 3.027083476613915
O 1.1246573799649269 -0.20965761601834443 2.738611326541327
I 4.948344602534226 -1.7549150059979604 0.015304738511931015
C 2.8547013927021174 2.019672616007045 3.339433267279546
H 3.0628037477404497 2.9164665105829988 2.764528270982828
H 3.4540131274764145 1.978101541978252 4.242525079614629
H 1.7987613817702783 1.939779628208614 3.5667634315149885
O 2.0083431957027593 -2.1996079181805195 2.5537552243191457
C 5.380386201184721 1.2342550004301756 2.1783710541225756
H 5.672739783307959 1.2340320786820862 3.223744472138518
H 5.350040519662868 2.238895139176241 1.7699511698943422
H 6.071922382428382 0.6272638196044239 1.6028237480427228
H 1.9305497207032518 -3.1075853895944814 2.88423428881972
Rh 2.7720110790511816 -0.0863913896042628 -0.44297846108450967
I 4.19978300966851 1.9597453525564175 -1.1957724566581895
I 3.358322233020812 0.32915797400823976 2.123464737116665
O 0.9166970797312488 0.0723747928310903 -2.786122176261477
C 1.6760335615759063 0.10873215321899542 -1.9035680576184157
O 0.6858366741478921 -2.175690079834056 -0.015717528104508247
C 1.5303449566048393 -1.3805256701740425 -0.06971645010305422
