33
## STRUCTURE-ID: 64590aa6ab5fca465c53c5cd ; CHARGE = -3; SPIN = 1
O -1.6060175686304943 3.7387467578177636 -0.1946329930104497
C -0.597093424918165 1.0303613394391353 -2.0692163570770745
H 0.2816523576402588 1.5329836246799622 -2.4644729472389613
H -1.431999681061192 1.7118578726395446 -1.947630623593803
H -0.8668213126855465 0.18360687580716614 -2.691352496667682
H -0.6999777010989718 4.085879585285246 -0.2279870983009587
Rh -1.56982532440365 -1.689504975801384 0.7007458563118841
I -1.5462365391358146 -2.7971339556306516 -1.7173176616275665
I -0.053936001025670116 0.3118797301845856 -0.1499972755781262
O -3.0816744938016547 0.21956685014117117 -0.6498246199895978
C -3.215562476068722 -0.7431376793993111 0.06468734130532498
O -2.9585165381312786 -4.0759429742524125 1.847290272596158
C -2.4726551602972697 -3.1499497628419144 1.409850394966424
O -4.34461012268924 -1.266765190951129 0.456162504925078
H -5.141129124876482 -0.7668020616159067 0.1625924770019772
Rh -0.26789166190378216 2.0305122978224026 1.7445695702194104
I -1.8889194571342653 -0.19272853332305587 2.9676929059859805
O -2.9525400573467766 2.4263032465037084 0.9510515812247302
C -1.8096393783789033 2.802161223872208 0.7914555987353279
O -0.13283002264759325 4.431317214767602 3.5412684961661864
C -0.20932620473158106 3.544323468594519 2.810009667946872
C 5.000326331270466 -1.13168134293046 -0.5300163631407534
O 5.300683959625715 -1.5181813912726159 -1.6456003853818209
I 3.443373979937775 1.5124371892998036 -1.1308656620481436
O 1.603950943526013 -1.0172513864164499 -2.478709004961279
H 1.5893616283975909 -1.5872440986544152 -3.2734579943772326
Rh 2.434619318785468 -0.5987249723845265 0.17984160741129818
I 1.0603675759289293 -2.7983779586373108 1.513809036527553
I 2.1915520498059107 0.9514243516155106 2.6117731309696897
O 2.616896367116782 -2.794966335432215 -1.58206441241451
C 2.2576265874289625 -1.6382063467999 -1.4490205915894818
O 4.686828463526395 -1.394400389989159 1.8294613466404603
C 4.379962687974015 -1.352362272136467 0.619904698064177
