34
## STRUCTURE-ID: 64590237256e3648a224ef56 ; CHARGE = -3; SPIN = 1
O -1.1791090319691797 -3.063140436698894 -2.5800777900189473
C -2.9546536631828046 1.805752097468577 -3.7530874104181953
H -3.898770373859946 1.552464132357418 -3.2771053078793697
H -2.916837937406326 1.4930894677486115 -4.791658532212162
H -2.729513095584962 2.86291776436502 -3.636250952776639
H -1.5471625835417908 -2.5262769146240642 -3.306213892569303
Rh -1.4622016836260994 1.401981989078398 0.06746753527113919
I -1.585464141229797 3.984682461757164 -0.41519572631540885
I -1.3483358022575065 0.6849582412167284 -2.6903207000319322
O -0.024975513549534725 -0.9041498474859655 0.0060604140105874615
C -1.136311463618638 -0.49522560882473193 0.4008111413356861
O -1.5434132481442382 0.8571543774565876 2.908686551535056
C -0.9246060395365462 1.3137385410863458 1.9568185995068148
O -1.8235371843706507 -1.2756356843341725 1.31215243941444
H -1.3438355549448067 -2.1160091258608995 1.4229726968560852
Rh -2.8451870732120548 -1.2502252264595841 -0.9590595117779245
I -4.076391550005561 0.8821686698088104 0.17793658760154965
O -1.2841264812575586 -3.45121892800452 -0.4107973363795887
C -1.6776921185911704 -2.769880556647733 -1.353583807481481
O -5.044339099405573 -2.7654320511696335 -2.3067001552879174
C -4.205187485646273 -2.1417443663906868 -1.8252081576308623
I 2.9046331895953004 0.49307517138608536 4.569381094342213
C 5.568911169847906 0.4045346811818848 1.377282944975304
H 5.879570838294496 0.9421340651869774 2.274888666206396
H 5.5208003022390715 1.1217614485802494 0.5563902598770164
H 6.285085820805554 -0.38327261768530985 1.147080457470074
O 0.2014655416269157 1.8355462587625044 1.850964755754712
Rh 2.6029783069029597 0.8608512484748674 1.9606108525981167
I 2.2270114391066587 1.2030362963776073 -0.6358228928037223
I 3.651958932283908 3.249817900380174 2.128645771020796
O 4.0756890546889455 -1.447443069184159 1.5772339857281463
C 4.235332066769582 -0.25120234620007925 1.6007655395504794
O 0.84589317147453 -1.4740161001033962 2.510308667898791
C 1.5523212913052196 -0.6347919330002282 2.134623212630135
