37
## STRUCTURE-ID: 645913803cd5232d1f022b24 ; CHARGE = -3; SPIN = 3
O 0.19452730016585687 -0.9269717558930642 -0.5289844647186263
C -2.8753426328829264 2.6725295250732968 -4.442245269084183
H -2.0492772642384485 2.6665321691783808 -5.194658630130996
H -2.9745966222599596 3.6218227276278983 -3.890345343876129
H -3.8216613200266587 2.2987930731234716 -4.863147955798028
H -0.7229255069796039 -0.2245923329586868 0.041357539328708864
Rh -0.7110710450320202 1.2121331845452659 0.6761872453781153
I -3.0511121662283434 2.2511257759268997 0.047550559226537684
I -2.0670785839195367 0.993721380262974 -3.002361487733948
O 0.36609949436547357 0.39286077020299653 2.416152641755654
C -0.4556295414450567 -0.5476307787443381 1.946622415368496
O -2.904663297111156 0.15897923255987922 2.1781165850676887
C -1.9806375639867342 -0.05430735671615661 1.3115419226734168
O -1.0278064957079902 -1.27468420462069 2.9846272846566335
H -0.009966537041463908 -2.115052472859221 3.611431351655189
Rh -2.155230010330344 -0.19002742794334265 -0.6741112219591646
I -3.1860013529084292 -2.1682436523220794 -1.9408520881267992
O 0.2455085501595788 -2.657242854397951 1.0183713257441618
C -0.26194723601445474 -1.4590055446323005 0.7005324326307484
O -2.417187138953902 -2.4090823112217956 1.2277866278609693
C -1.7548386668329254 -1.4236303805455275 0.7579963153408742
I 1.0739072717044231 -2.9817456887640343 4.429880370924995
C 3.418826367297861 -3.4125189711125463 1.698599732521925
H 4.350675787151525 -3.12023937799581 1.2097973174629575
H 2.8180011364193103 -4.046776838541176 1.0252743380290774
H 3.6373756381288977 -3.9501259211018325 2.628308123561833
O 3.9258840435168723 -1.1089690521607656 0.004614759756465644
C -0.3925969407951257 4.405764028530681 -2.511326790173808
H -0.4016849206017377 3.8769181022763575 -3.474587381629169
H 0.35436112100725936 5.214130894868285 -2.478604128173033
H -1.3801612575604987 4.733407624167387 -2.1675989125464104
H 4.356016181836418 -0.439019239321425 -0.5882671092256259
Rh 2.1709545787095967 -1.809565448379704 2.1321910125161856
I 0.44012801456263667 2.8702601016631397 -0.9521912605230067
I 4.009801178586807 -0.7440612479956074 3.4749422693947065
O 2.356090701612023 0.39739149456140105 0.48564498399692907
C 2.883258735632795 -0.7028772263403089 0.7017548888467967
