33
## STRUCTURE-ID: 645909babf132b3048738a53 ; CHARGE = -3; SPIN = 1
O -4.641650531736971 1.4833581295602836 -3.005379322371053
C -3.665738830786379 -1.9304670292966442 -1.7830601239115595
H -3.7872697239837723 -2.321603063460167 -2.792869874809336
H -4.452212937833325 -1.2314872470384841 -1.507210035863108
H -3.5697411436662603 -2.730410282676578 -1.0500450733324331
H -4.182360849468674 1.0279413856630422 -3.7353916619691074
Rh -0.2130209008240268 -0.5230886415918881 0.3926702333890134
I -1.8401974281275262 -2.163776076669083 1.681600490047771
I -1.7363992832608375 -0.8199262541773249 -1.798480558175446
O -1.0675171240847707 1.4567191853234542 2.2056188894957938
C -1.3366278076822427 0.9288084288309268 1.1406573036797478
O 0.8422084045250866 -0.6508629196180988 3.0976650639651098
C 0.8979152711567648 -0.43638576211714786 1.9488856030581312
O -2.41515048909581 1.291202097411397 0.4353496834820524
H -2.977616670447224 1.9628269166124448 0.880067280349443
Rh -1.9096179651553582 1.8125165964377734 -2.065811679164032
I 0.7718077545223072 1.4818834849717077 -1.1726683418078623
O -4.3264939460779015 2.5809838885367316 -1.1185218726607051
C -3.853143983399965 2.0130073469882306 -2.0795361637622354
O -1.2502731117748347 4.332996825785355 -3.5565157692298084
C -1.6566500075441175 3.3929763705887366 -3.0296427961033454
C 5.8611358214150915 0.5893713738457553 0.19297646476511987
O 6.749251785183295 1.212943126889667 0.7239061695324955
I 5.606168804118239 -2.5543340647017887 1.0690394666480554
O 2.4837058456415706 -2.8930247321549594 2.766190752135506
H 2.5077896230551735 -3.3100353951559613 3.6502554701388474
Rh 3.452881267420799 -0.8176505388845557 1.0594579495844205
I 2.8623660860480764 1.8066562297402877 2.247797000109855
I 1.6760407938393032 -2.4979971021554874 -0.336125892906891
O 3.639872955544417 -1.2834750473578218 3.7961301585903935
C 3.1750871346825873 -1.7173308367717357 2.745393545063672
O 3.7630714860380112 0.020669728953923376 -0.9100228732887158
C 4.592379701759343 0.48699387768803454 -0.09237948467985849
