33
## STRUCTURE-ID: 64590f0dd08cce5109439fe3 ; CHARGE = -3; SPIN = 1
O -2.746683259619658 4.260716253352083 -1.376399279552083
C -0.09903557898139663 1.704620810740874 -1.681081530774516
H -0.730835918041208 2.4698251766549673 -2.114896504827063
H -0.3754571884288778 0.7296415361190046 -2.075244513759483
H 0.9481654538586306 1.8950323929401856 -1.8836563684047007
H -2.588352946104397 4.943311871816487 -0.7008049535388391
Rh -0.9660330270283861 -0.6803908729246863 1.5741090675955758
I 1.5014099776305332 -1.0826668970778714 2.748869782456688
I -0.42751809278299374 1.6143170227987556 0.38854129596119114
O -2.3956199781357936 -0.921454172605032 -0.8363231055047949
C -2.501796641364721 -0.545249375851828 0.3249791025485183
O -2.188572934074877 -3.1836905201211607 2.656702054578052
C -1.7245695224706319 -2.2055118898206523 2.2748666349354796
O -3.63973757224337 0.030364222241919557 0.7558382142725525
H -4.329695496537763 0.050925630331792614 0.05930647767199199
Rh -2.7384329472535134 2.6095595616833154 1.04023839405837
I -1.7395982567850812 1.5758484403920061 3.3241881034896896
O -3.347320487835721 2.1518793075017486 -1.6240027738694522
C -3.0486401330313235 3.0430295032167143 -0.8404637530013068
O -5.197932841342643 4.052894783407908 1.956402207687205
C -4.249055467935113 3.5313036316980115 1.5844799886605059
C 4.089978927071698 -0.28601212013191085 -0.6206756913932719
O 4.75353905072048 -0.23114801271777427 -1.6281621013797878
I 0.44089153831364836 -3.146235264819712 -0.4066788049618045
O 4.9358489646138315 -3.685805167582716 -0.8840105645184481
H 5.333260675005822 -4.021186158404123 -1.7145063576107662
Rh 2.903224745034506 -2.3662704392525886 0.5544565073030362
I 5.260389245765973 -1.2543117842719536 1.28965960430559
I 3.247247546984408 -4.686911385175158 1.8602231104517384
O 3.31397815987291 -2.910956060365988 -2.19754962042548
C 3.7654153882678316 -3.0707729275098132 -1.0716164562408415
O 1.7854566921129738 0.1889576361783668 -0.43624757481834675
C 2.756081924744634 -0.5736547324411169 -0.30054059139505707
