40
## STRUCTURE-ID: 64590e5324440309f256a931 ; CHARGE = -2; SPIN = 1
O -1.7813181783229728 -0.5263181825338472 -3.936320928421903
C -3.344848742189739 2.810791084116232 -2.601896165509036
H -4.329118786402231 2.5360803742121485 -2.9646054507455366
H -2.5795669185199643 2.7520585523205066 -3.368176040122877
H -3.3571250897525986 3.7849718266959624 -2.1219970381182836
H -2.7000725200150795 -0.1979121350189279 -3.967889530008431
Rh -3.060912132674419 -0.09054371480496647 1.557551099813139
I -4.7666628862047915 1.3811153278851716 2.904205641118051
I -2.784667980658321 1.3359854016384494 -0.9233547954270566
O -0.42903303162872325 -0.5540218395681272 0.32123655287352193
C -1.496076872500666 -1.044907858226608 0.753724482805643
O -0.6780056448877365 0.055490538494938395 3.2922518283165796
C -1.6260352092314903 0.2074783802411635 2.6241768247395076
O -1.3388674497097979 -2.322704982703468 1.410362968132931
H -0.3927497294412398 -2.467511115475477 1.5847994504690475
Rh -2.6677766045692253 -1.286377550886088 -1.273733860345728
I -4.900709423511747 -1.572793855936409 0.2957377158821347
O -0.21578871721746715 -1.4644098840301618 -2.741394300167746
C -1.3859808255761261 -1.0836803488083027 -2.7593824012927426
O -2.0011774853397153 -4.1584122877848575 -1.727679159488853
C -2.379044092967908 -3.0571175855849377 -1.5978425159737655
H 5.165030222072478 2.2817638516483636 -1.822552470769888
I 3.8239243367229014 1.0939232293690726 -1.5533414572481783
C 3.260042729229074 3.330518931744747 1.1867396395524599
H 2.917962368427398 4.112516720534192 1.8662916970782222
H 3.1440002440450185 3.6803829291999546 0.15354556984162238
H 4.318700089274266 3.115777346303718 1.3328165388455446
O 2.1681029502792346 -0.09911670721696116 3.5263483825209097
C 1.1572095741407793 -3.0363362786139025 -0.8455815973066109
H 1.6420834099601376 -3.595802789123665 -0.04270489505610296
H 1.142443539970874 -3.615010627186673 -1.765305536985325
H 0.13787472271054768 -2.814561687723779 -0.5559461874486819
H 1.6734255403173866 -0.5589568609677595 4.230651935890341
Rh 2.957714562955007 0.3027598530940083 0.881481683661156
I 2.1159661600021824 -1.2849395692128258 -1.1316758676186258
I 5.158885717683664 0.3493889157353114 2.1864073163984346
O 1.2314201818706372 2.0818028025314517 1.6784683186296319
C 2.3902899560817 2.158984255078096 1.3776989383251597
O 1.6486874253019057 -1.8283357351354081 2.190295387518168
C 2.161774590276751 -0.7120187243003068 2.3465882256431643
