42
## STRUCTURE-ID: 6459095ac231877ea1239c23 ; CHARGE = -3; SPIN = 1
O 0.28830263107935705 -3.082122827667084 -0.6954726196956734
C -1.2325132184345609 -0.5222804571272285 -2.854817489407099
H -0.3105843732046104 -1.070903748552506 -2.688339904325348
H -1.0289224644603772 0.5473025124818711 -2.8017913510486987
H -1.6302273858609342 -0.7559929102251306 -3.837946009808976
H -0.1368739227567868 -3.8820942180448914 -1.0552964744919955
Rh -2.9796367651721205 1.321132629584249 -0.23835604392074367
I -3.7632069871660336 2.3589615526504706 -2.574352467452632
I -2.6622554919095665 -1.0144203156130678 -1.3742881068273285
O -1.4383165739130437 1.2490284048590956 2.141152449243772
C -2.3152340358290826 0.6639564570011234 1.493425157015371
O -4.116181774966298 3.261638026993849 1.7261492645097083
C -3.7613886923339725 2.5432756265638004 0.87977680780825
O -2.8225732868021676 -0.4784266721444388 2.0359991854539743
H -2.485364225329412 -0.6328458233129414 2.944145941616061
Rh -2.2980106100654676 -2.6924299381368364 0.5598445017937594
I -4.889622986155524 -2.4639056547811657 0.21653743747240134
O 0.30748056629352455 -1.6916877342894314 0.9951465404730905
C -0.3709362472984893 -2.5302089012937086 0.37436834183716056
O -2.0805814183585345 -4.933796689510506 2.5192032192716853
C -2.1739805189875008 -4.080120765836524 1.7622241409313717
H 4.579516881751061 0.598968941477958 0.8199664986548434
I 3.380467694407992 0.15796140920672994 1.9201845509715363
O 2.6514480590124383 1.9649205709916668 0.9625747972846561
C 1.6239626940314382 0.5159837291256593 3.1497322753276418
H 1.7318099866998622 1.4690559149744922 3.6498452256212595
H 1.592188022539191 -0.30298789317605823 3.8573913868566176
H 0.747474219061742 0.524968640347737 2.5131238159641573
H 3.1066209632560473 2.7228832581751523 1.3370084639637965
O -0.7490349673745338 2.869177486488237 -0.3289063182317365
C 1.264079943282758 2.0318404859586106 -1.9243191474435324
H 0.5433672605249331 2.8114171765529483 -2.135556801954041
H 1.4303886912568444 1.4235466869817606 -2.8105135076726766
H 2.196673170025444 2.4705106267947903 -1.5885797392823848
H -0.7717989898953119 3.1526665215562355 0.584899453615519
Rh 2.226239391750257 -1.1331253556734298 -0.4192849333408583
I 3.7639353862709055 -3.1562520315725084 -0.028802242045782158
I 0.48883742048384554 0.8392225402020842 -0.3859404899741265
O 4.245147464456446 0.7913676091876893 -1.4387869737586443
C 3.371081510085312 -0.05437465269238808 -1.54997050390482
O 1.9891836918524202 -1.055942469098026 -3.392859439248157
C 2.4890392881525227 -0.7558677494083305 -2.3185188918515025
