34
## STRUCTURE-ID: 645902a346d6fb3c8029a2ee ; CHARGE = -3; SPIN = 1
O -3.7439905662518838 -2.0875559815508824 -1.626484259404765
C -0.7278699577867781 -0.9278180467790041 -4.187611771821501
H -1.4117918774199496 -1.0840881802182105 -5.013318371761419
H -0.6478059252815169 -1.8028138312342223 -3.5517770794426946
H 0.2497131834062203 -0.6053740197381445 -4.528473606708204
H -3.609382554887544 -1.5500318928746752 -2.4269053147587805
Rh -0.5098535342434033 0.27800585467138367 0.17325020626585455
I 0.49121418487002255 2.6607601289450273 0.9017514218632263
I -1.5482715767017736 0.6798550189627314 -2.935302450881255
O -0.9920949156946245 -2.201666750040841 -1.1948493419278474
C -0.8443428508278938 -1.5953629065996888 -0.12706392778779965
O -2.478008425906702 0.14422362264534216 2.320305536053778
C -2.113182437213536 0.28793881288442746 1.1973227686420373
O -0.6591993641708962 -2.3516985421253866 1.0057784690127478
H -0.716558924628658 -3.303171916240554 0.7947217707389721
Rh -3.1223330555299897 0.5122233304807113 -0.554653199466432
I -3.1363803393881486 3.1995266309135886 -0.7262636737149727
O -3.519419914325159 -2.110646944141363 0.5619003366026948
C -3.411482148394332 -1.4213684417509687 -0.4478837618916144
O -6.002591572011006 0.010101187319059698 0.012945968775831025
C -4.961364194005896 0.34036795906272976 -0.3992381237961563
I 1.957973498114922 -0.2326434472373212 -0.7562162653051971
C 3.226913086721673 -0.3720850900401159 3.7386336584815707
H 2.611160327513311 -0.7013367050652245 4.575994235964685
H 3.952680547912691 0.3696499739902075 4.063693020174545
H 3.768277236999325 -1.2283371957272446 3.333277518034095
O 3.7399207578646303 2.924367307187854 -0.6045102342858507
Rh 2.9446348004745544 1.3832676732583657 1.2549155628092052
I 3.7344050804513143 3.2193765722158774 2.923452603599211
I 5.328361066545899 0.3467048700872025 1.0479820767042387
O 4.556973315884326 3.870690987973517 -2.5181925245010057
C 4.150254235752875 3.3969576007509494 -1.5660566293694766
O 1.1373362964899905 -0.1957196583666526 2.601234599896141
C 2.3061065156800753 0.14770201837856078 2.6576407831956215
