42
## STRUCTURE-ID: 64590959c231877ea1239c1d ; CHARGE = -3; SPIN = 1
O 0.3074299954049471 -2.969239373072364 -0.3187571564903634
C -1.1141577949055956 -1.069165675096834 -2.7459485490135798
H -0.27983851085598244 -1.6992520594798801 -2.4401878660094036
H -0.7897522762384224 -0.03180428769055225 -2.755270985440423
H -1.4331002348766955 -1.3420458060480824 -3.7458075771716683
H 0.036137685897226546 -3.8834708963997207 -0.527945548310383
Rh -2.227828562894084 1.3723662459178203 -0.3500897387195876
I -2.3327660632871794 2.495537734917208 -2.7923596878280548
I -2.7111538143778042 -1.338676456226768 -1.3949350750501797
O -1.6319166835548466 1.456465600949038 2.443396036532636
C -2.1746090555285797 0.7950463670100367 1.5555053288709961
O -4.822104246581543 2.4387190780006414 0.6441212991810823
C -3.8742050111846926 1.9663604930748468 0.16971002843135047
O -2.836497048264535 -0.32906116615699277 1.935402765815611
H -2.8188516360906846 -0.4477965178347811 2.9095211060584316
Rh -2.4001226249327376 -2.7160297274687686 0.7688759590831503
I -4.9757150919389135 -2.6969636092993365 0.3106900156420773
O 0.0035313718922981964 -1.283315525336292 1.042844321135546
C -0.5012683827512003 -2.3330655932198465 0.6020797098691684
O -2.073351794697296 -4.687877894690213 2.986178646125784
C -2.214792148505745 -3.941599987217306 2.1260851366862488
H 4.408409740613031 0.06199451964180365 0.5851769159369068
I 3.1167020936487706 -0.25042689551685765 1.6418041262813412
O 2.789592614123429 1.7407379782786845 0.9625758850375455
C 1.6169314398231573 0.3794371491012114 3.0726088903913666
H 2.0083120093638556 1.2081493185929877 3.6469974907990954
H 1.4123698164244554 -0.4764390381497569 3.7026274340466165
H 0.7331942796756296 0.6876074481789006 2.524813422997163
H 3.4506400864802296 2.329678139407113 1.3350947605101957
O -0.26245837869674044 3.2617866552285095 0.42835207968507255
C 1.1617656499574225 2.4269909466667103 -1.7245216971306314
H 0.5736806809147561 3.330314542375525 -1.6422191881826058
H 1.0844702032270375 2.012502547459239 -2.728362342736316
H 2.1955803094952455 2.646388615423503 -1.48520445866783
H -0.48284207998011225 3.2055674825576426 1.3598606185719047
Rh 1.9615933932109677 -0.9852221876784683 -0.8753399887161997
I 3.6936156333265817 -2.8965715191995702 -0.8811848095335422
I 0.4106585868631465 1.0637860076951964 -0.32418299126254
O 4.074633086691835 0.9298472532769112 -1.632848108730709
C 3.120227995824307 0.21822478301271858 -1.8827176349078132
O 1.6256021807308105 -0.34048089300557893 -3.8002422114528027
C 2.1722525865542015 -0.30900379797828964 -2.706196362334692
