36
## STRUCTURE-ID: 64590e1fba2198515875368d ; CHARGE = -3; SPIN = 1
O -4.1826055019784185 2.860330921835066 0.31113770634193044
C -4.227771223413541 -2.2086493275606514 -1.1742608580977347
H -3.9636397382587796 -1.9678691402648556 -2.205728710745304
H -5.301164708265104 -2.1717922921689667 -0.9890686056277436
H -3.782295710268948 -3.165296687673462 -0.8825431867702482
H -4.728458442091349 2.2453092821417564 -0.21931776874663392
Rh -0.6015111703646342 -0.8964382946407402 0.015758610589694088
I -0.5312596496876201 -3.4703336221906933 -0.5946512585537098
I -3.3174988333160838 -0.6408572239362318 0.1584589308027161
O -1.5672485343301348 1.0554392728640403 1.7341724640333478
C -0.8054275168258058 0.9575649360096431 0.7453558135243312
O -0.6572960677873656 -1.2203862787743243 2.8015403495404105
C 0.0335264098539614 -0.9368672847983498 1.882129748880863
O 0.15781807913426282 1.9735287904956025 0.6107926288008794
H -0.14777337503874638 2.7207588282291866 1.1423841765328824
Rh -2.072652527532528 1.3770141704798595 -1.0678481130673396
I -1.1562086417269624 -0.3787138637849612 -2.8186270175223385
O -2.1484898958518723 3.5796263998074798 0.7380424008282659
C -2.833592221102827 2.764549497011295 0.11943103855740807
O -0.5776086587242857 3.7542125548924856 -2.065078928957115
C -1.2138987610297005 2.826894043303357 -1.7981331150432853
C 2.20029548313428 0.7252371113293182 -1.0824053604690658
O 1.5492725279330843 1.401617247393599 -1.8984121399437284
I 1.7894649982391118 -1.3211671974088184 -0.9914324831390392
C 3.0734222408380667 -2.885032637273851 -1.2201724635399707
H 3.694990382153792 -3.217454678204879 -0.40324441466062916
H 2.5937916633152556 -3.650485221760891 -1.8251095810102311
O 4.4242732616728 -0.6176970653827661 -0.21016375967042944
H 5.020616646159209 -1.2750596164230132 0.21177806964621285
Rh 1.8473260184227376 -0.3903533547261878 1.5981587976570206
I 1.459667325835923 1.3695601174081267 3.831642500111266
I 2.358910151696182 -2.8752789411336948 2.444484793826794
O 3.9835566232466144 0.06264117548225792 1.9033823931367613
C 3.698137807283676 0.09346265017798736 0.6891194438651213
O 3.075491916831922 2.3773295510641206 0.4039080995771898
C 2.8558396418437724 1.1446561781821485 0.10451979931136242
