33
## STRUCTURE-ID: 64590aa7ab5fca465c53c5db ; CHARGE = -3; SPIN = 1
O -2.6616929058701313 3.918987719207534 0.16079176284794808
C -3.208741080792304 1.3363536906346472 -2.262258728792139
H -3.02761610196422 2.1313247164103286 -2.982366934262577
H -3.892370709103912 1.6363764028279553 -1.4722399423296704
H -3.540702144921025 0.42225887379903315 -2.7552572977977245
H -2.1541260271159075 4.167868846071574 -0.6325742091392512
Rh -1.3040152604226465 -1.44035247323655 -0.03632637976585088
I -2.5139995730727454 -2.55636323349431 -2.0515712040362364
I -1.2378361941539007 0.8970066744629709 -1.348962789047625
O -3.7399824969502076 -0.1007532769685242 0.3692004771524466
C -3.1674990970098547 -1.1181431498658025 0.6393388370502929
O -0.6219635980388409 -3.9072278996704264 1.4836519847205072
C -0.9912282105881232 -3.0007510470619208 0.8899359590624305
O -3.6467508439810072 -2.113293565839946 1.3423024313220977
H -4.586145638329931 -1.9728392396039949 1.606947311936148
Rh -0.21928316638211603 2.4263760637128122 0.550062019238221
I -0.636694422561456 -0.04303540390506739 2.270142778860081
O -2.582818424997916 2.7813234726977343 2.040674359152035
C -2.0082622173873745 3.0994469877761253 1.0196167043407758
O 1.0476843811019205 4.570462094260675 2.2211747264497497
C 0.47699424537448326 3.8489550001592527 1.517047508660666
C 3.1421758142282363 -3.295735516676827 1.399076431785446
O 3.710479197586778 -4.378681538516519 1.3310799406183473
I 5.755397380815996 -0.05176603218065501 1.2025550299118077
O 4.539923892943308 0.07469958781753266 -2.3574068402767154
H 5.0767332053054 -0.1528328354637501 -3.144580235748957
Rh 3.4065068426322225 -0.7883478140477372 0.11323869535770133
I 1.3729676531002375 -1.9751822521224967 -1.1931242971926672
I 2.3797947753677438 1.7582708951427881 -0.4639625903402092
O 4.935393878652042 -2.051276009098224 -1.804559225120724
C 4.4160444079531995 -0.9750472381323085 -1.5205154340653284
O 2.3610842231877602 -1.0966260955303955 2.1245254874987607
C 3.1205482153950284 -2.0514564035665623 1.744343661951149
