34
## STRUCTURE-ID: 6459011a74c4806cb66461c4 ; CHARGE = -3; SPIN = 1
O -0.2753056160161082 -1.296054990554282 -1.1377295779832683
C -3.2210467225321318 1.6780242810995991 -4.302450349122115
H -2.9736077359153565 2.730185499079722 -4.38929139899108
H -4.22399902518375 1.5429860977771668 -3.9084147889491243
H -3.0780410621603482 1.1527058685484541 -5.240156089712843
H -0.9103852990753123 -1.964815585637157 -1.4512408255779767
Rh -2.8064841301521684 0.12924232161635957 -0.5070174223292864
I -5.034626241535732 1.3796476423000292 -0.9658420289994255
I -1.7922068159324958 0.7814035337308326 -2.8507985888818377
O -0.042160564117883575 -0.16741385935621492 2.9176491976208303
C -1.1321264122220254 -0.1492464323076913 2.3377014426934513
O -4.3987922016024426 -0.49507243543204293 1.9362397935188966
C -3.549131074078681 -0.4644740917459538 1.1099397269446558
O -1.8931337698353656 0.9788345697447615 2.503380049294758
H -1.4337960051112568 1.650708281184126 3.0474578923376465
Rh -1.8516193048970568 -1.6305875656285203 1.272266020110742
I -2.825361020746883 -3.4274736244840187 -0.38703709884782206
O -0.12243570815830375 0.5398925192051004 0.0960102670104745
C -0.8991346484552863 -0.3890331409870059 -0.24111239232031426
O -1.6919189202790654 -2.4381272890224377 4.133993212170194
C -1.8263166023158643 -2.427314232871215 2.975638860277694
I 3.144248276257439 -2.0357453488655306 -1.1163130054259893
C 5.280387723704252 1.1040493218416179 -0.4302571358414993
H 4.932664802386081 2.1353276193145136 -0.4851100722291655
H 5.238839671642011 0.6814527960398389 -1.4346043320017245
H 6.301186428135876 1.071053501851216 -0.051642190743651374
O 0.7968327104744897 -2.2417913740646935 1.1482184061431648
Rh 2.424984243808522 0.14301432390257593 0.24012375976672937
I 2.286027970171198 2.3981132956509024 1.6425797471974406
I 2.2008223197935015 1.4630213472901707 -1.976786348895863
O 2.444177576125856 -1.01280042929574 2.1573239485726314
C 1.6324464991767271 -1.429853743893552 1.3860307204811453
O 4.864819865908702 -0.2875505896838141 1.4623772478145323
C 4.434190792738864 0.2976919136528537 0.5088733548979237
