33
## STRUCTURE-ID: 64590a683e25cc7252023606 ; CHARGE = -3; SPIN = 1
O -2.2835288532105573 -2.3626633580157717 -3.052197185357233
C 0.344080337296675 -0.10269860209492625 -2.666689749361661
H -0.06266668609475388 0.0345136002862609 -3.6615085281630577
H 0.35276845958582026 -1.1508559277158077 -2.3885671907917136
H 1.3480397380185496 0.293967738285799 -2.605463072672467
H -2.98461771179185 -1.9064991659163706 -3.55022961326248
Rh -0.677749983413056 1.5032565443337385 1.400902207431596
I -0.0702791215890888 4.073139537625177 1.0240885314422246
I -0.8861052414799451 0.914714005776374 -1.2871868142647274
O -0.18667243365934064 -1.256696332521811 1.944478620875564
C -1.0573450205908694 -0.45555955598902764 1.6375213718193098
O -2.2983703424493678 1.7898253288050874 3.8757762558652296
C -1.6667724473991536 1.706231041941818 2.925893949317002
O -2.325296744761881 -0.8941368247199772 1.4644069917534361
H -2.40958813534205 -1.8480390643056719 1.6776613790589952
Rh -3.110551983926676 -0.41393841516354973 -0.9990180038099942
I -3.6374404266819953 1.9550582539860517 0.1288490310764295
O -1.398635772326349 -2.5611176130510973 -1.04075874418084
C -2.205297962640907 -1.976212871391453 -1.7537070517646867
O -5.799925020881375 -1.72350125420557 -1.0921227944269862
C -4.763754216785776 -1.2352153416244336 -1.0908263076806268
C 2.500631030582906 2.4320691552506113 -0.6083914456022662
O 1.6206027401973047 2.127150399327825 -1.3861640687648802
I 1.7627886277419376 1.1648196628360346 3.1487148650104704
O 2.672115182622017 -1.9541542677642247 1.185936725992907
H 2.018686494143172 -2.6263819637263506 0.9098813706203842
Rh 3.6244597946784203 0.6504748668969292 1.3347528906886237
I 5.195545366407735 0.10373776427886011 -0.7117453675704165
I 5.161128725278413 -0.6623229848848965 3.0753843150171307
O 1.5383332623657417 -0.5350990935402501 -0.12381011948641928
C 2.434185484717162 -0.7386246840259362 0.6868812600795521
O 4.033927574724356 3.1649000484832377 1.1317180237849749
C 3.217305286664786 2.4898593725432985 0.4655382673266622
