29
## STRUCTURE-ID: 6459005d779a8b11215a78a7 ; CHARGE = -3; SPIN = 3
O -2.2579199580325233 3.4679666690157456 -2.4706005202930688
C -4.770705811973578 -0.8541115889929668 -3.650095527342266
H -4.617511569427274 -0.30711546259981987 -4.572874768324106
H -5.805406562400904 -1.1489309606270737 -3.5139121285829247
H -4.088300966102868 -1.6953745380281768 -3.5649594199843175
H -2.6615353534435555 3.036736529775804 -3.246512458871407
Rh 0.33573355837248103 -1.674138562518859 0.3853989191973124
I 0.2405944644615372 -4.0721841022720975 1.589951076845371
I -4.278225789551951 0.5226360690870304 -1.9823859203816503
O -1.4845659126435982 0.3425862567554522 0.724982643890108
C -0.21504762141143655 0.26143501965469496 0.769160701917176
O -0.27270376450268985 -0.5129292904923898 3.0492323294803745
C 0.38911303665039626 -0.5243967965648003 1.9917216311981198
O 0.5047420276858122 1.4375729027211481 0.532587470375132
H -0.13173046423843215 2.08130157798841 0.1083512915122417
Rh -1.6144626343163968 0.6686886585298498 -1.8112036556553204
I -1.323740681701881 -2.013256990280372 -1.757052348393587
O -1.1863321789078594 3.134420092692826 -0.5863667481409237
C -1.6754580775386851 2.5982874138925394 -1.5973615621959865
O 1.1309488099107676 1.4782624912553914 -2.6755315593302367
C 0.05418423040324151 1.0775076833599762 -2.478823254642817
I 3.924569379360911 1.8332119197348955 2.4143178707451316
C 5.181905072896708 -1.5311508908489888 4.2859979824874985
H 5.7572992045341955 -2.0124200522497513 3.50310634840826
H 5.356538898775774 -1.985603569868551 5.253894233216653
H 5.361535734069568 -0.4609637684427256 4.300889267195729
Rh 2.251818199774661 -0.09848231398834827 1.8260153116169249
I 3.0372614743258834 -1.8455679630320947 3.8110147531940886
I 2.8574032549715542 -1.2039864336567407 -0.6389419591414289
