36
## STRUCTURE-ID: 645911cfdd4c3607b003426b ; CHARGE = -3; SPIN = 1
O -0.07056792765068896 -3.2955220299886148 -2.4919495110320495
C -2.1515510317291677 -0.20803889739374026 -3.806152263832841
H -2.080086667826502 -0.9661924668767805 -4.578263589318601
H -1.1689318981698198 0.058726002616483176 -3.4268430904605314
H -2.6868361140504042 0.6691081181675197 -4.153346296793967
H -0.767081600147146 -3.975160155983712 -2.536015081087985
Rh -3.729899265977986 0.06886444114685385 0.29507899234345086
I -6.184487341540208 0.8111614145093283 -0.28866592865794605
I -3.2658042011683426 -1.0594735958985093 -2.139374850896853
O -1.0354450184414563 0.5513549547665697 -0.12016607047131203
C -1.8024049641840667 -0.140468287889571 0.5877741150202679
O -2.5809185135202175 1.984557031144078 2.2593189425303066
C -3.1883496155095545 1.3178817463966337 1.5065859953820804
O -1.3097608268430887 -0.7188672195834108 1.7289480630844436
H -0.3547430703683183 -0.8399950821851394 1.4438671610991909
Rh -1.881307261100175 -2.4351540975483714 -0.38860802579814163
I -4.245797883807079 -2.688612711448861 0.8954251105170388
O 0.5467988663216229 -1.4374646245581915 -1.4909616250754594
C -0.2848026736613618 -2.331625135071267 -1.5293980860843377
O -0.045590760192877944 -4.1274052698204695 1.2603957525399547
C -0.8030658568305774 -3.530775602114787 0.6156638008429449
C 1.8116200296762257 -0.3707252093785927 1.2038201841053926
O 1.1555899062936397 -1.43382587534928 1.23226258089324
I 1.9776857897741373 1.7311423747130859 -1.3609119127089455
O 4.068586099554484 -0.3853559472210632 0.3734338406772634
C 4.497534945068139 3.98713587508799 0.8970996269158956
H 4.179474131427094 5.01580119435767 0.90827601922793
H 5.122693590158952 3.6277926128821973 0.09652793936710823
H 5.029597088336793 -0.45670801307264336 0.5689697974940167
Rh 1.0504850569169117 1.4337699749412587 1.1136591791509474
I 3.362282614229658 2.6223658253463715 1.9381213469168268
I 0.6539967365153523 1.1869637953835128 3.77124650031489
O -0.8796120294234285 3.6714675624004895 0.6832772369234776
C 0.006009724910314794 2.970470444543546 0.9391760339877626
O 3.744854692308721 -0.7678775206234615 2.5516512581602777
C 3.309835250650567 -0.5393156263972576 1.4400768547241978
