33
## STRUCTURE-ID: 64590c855a9795333d4b6484 ; CHARGE = -3; SPIN = 1
O -2.033438701713643 -2.7928928771722163 -3.2496835849644947
C -2.1915913647455167 2.4061297917366984 -3.3144152162995115
H -2.5204605969474327 2.1325989785025774 -4.3112861271309635
H -1.654501255697845 3.3510002741039484 -3.2991377663919415
H -3.0074720399273076 2.4129912447582695 -2.5959397937956465
H -2.6507053217777368 -2.2281888571745383 -3.753670616048366
Rh 0.04387528252520898 1.4499203063774264 0.2800818416581032
I -0.13405556222297008 3.9880998444341453 -0.12414082287459319
I -0.755378432056452 0.837705495622604 -2.6572091947662266
O 0.8303864841032241 -0.946211906876721 -0.5420022612229215
C 0.16945476271438192 -0.8487356347087782 0.5124576247369527
O -0.41070642338074925 -0.026507241668308666 2.659424938624206
C 0.3683843457261406 0.08770928317283894 1.7073848192259768
O -0.8512924248374388 -1.6953229970776058 0.7595818774453126
H -0.9046708092164791 -2.3145285236346522 -0.09458668700080719
Rh -2.434116063022814 -0.8328518551396927 -1.0355623724714675
I -2.598861981511971 1.2710944550398515 0.6536073007806547
O -1.002201785009067 -3.0993765585800506 -1.3378123667465907
C -1.8281131045072463 -2.411170224344437 -1.9875334250127226
O -5.3675330492449955 -1.3821091400690868 -1.2318213356308603
C -4.230565006436474 -1.224399119873803 -1.222069314173865
C 3.0076481070446435 -2.038082179454701 -0.07622221634639921
O 3.8037751198746044 -2.2583962843424126 -0.9313777479124661
I 2.003384467695703 -0.5146222254935221 4.789727736001952
O 3.3709808950412405 2.291090561693239 3.342470792501492
H 3.2497333684791845 3.2115086001539157 3.6636223126049328
Rh 2.391366791180486 -0.09779955226020931 2.1727877213001947
I 5.116944839751161 -0.3011146867444613 2.523069885853488
I 2.705352842624577 1.4814315191701004 -0.05409775066423004
O 1.1948022227161539 2.356432318743864 2.9130608109963494
C 2.2465672771990297 1.7331695622023897 2.90322776648648
O 1.4824383122144804 -2.005872458886599 1.7826966803165778
C 2.590568803366093 -1.9926999122101892 1.1553664909218335
