34
## STRUCTURE-ID: 64590058b528c511b1703e5d ; CHARGE = -3; SPIN = 1
O -2.023900701210973 -1.952522300706383 -3.1040088269905453
C -1.2872051045184107 2.1367226384708253 -3.4189949177327392
H -1.0949090708789284 3.204013642896296 -3.4015663013462505
H -1.9536171868428065 1.8701430208522296 -4.2304488206057105
H -0.3487377697271237 1.5784102499549204 -3.465643929485779
H -2.8778331374903914 -1.5669318285903124 -3.3680032318355533
Rh -1.1887725686333117 1.6999623064144027 0.8726309615731219
I -1.575017277901023 4.29654212784883 1.0551726291996937
I -2.2818882241069365 1.632855102404741 -1.5613137602513547
O 0.6338513524373366 -0.6021252440572018 0.5780255488188182
C -0.5037434107350921 -0.20439405744680966 0.9155851461481335
O -0.21366717804606075 1.3346521749776685 3.653537459964278
C -0.6068650083205196 1.5455444037378994 2.5787676463850495
O -1.2302312465760725 -1.0969538265375158 1.6874924642354867
H -0.7127103153499041 -1.8894747765965516 1.9254100689348894
Rh -2.907682100129412 -0.7109923623592859 -0.6058671327920317
I -4.276014225019528 0.8587104421585455 1.060879274853761
O -0.7328995632946608 -2.3409776822084227 -1.3547855536041367
C -1.7521683033304893 -1.7832808039641272 -1.755837340184129
O -3.926198439303428 -3.4831738604065166 -0.17445254962236945
C -3.630997004400611 -2.3681958298509715 -0.3063273351194999
I 2.4164397670294666 2.2564759237555063 1.2164724271610299
O 3.3554911014007933 -0.2510911267770818 3.7171590346941352
C 1.1374436564452721 0.5794527482747328 -2.389788236482382
H 0.8947506381687795 1.2404138185103657 -1.5065155663498029
H 0.495954202457424 -0.32583401420957053 -2.2106191953536327
H 3.1401743875330315 -0.3745284738115955 4.668965419627795
Rh 2.783398391894625 -0.3991241502537187 0.9574439475033049
I 3.1120004797512473 -0.15488326373922676 -1.8442977969303898
I 3.246522877123558 -3.015140903010608 0.9824968655810827
O 5.677624160393137 0.02976104911383358 1.4046351286696308
C 4.562080273846435 -0.1389565300501675 1.2405794686394453
O 1.300637111868607 -1.0156423034953403 3.2831431784656995
C 2.3686894354659334 -0.5894363112993466 2.900073824230984
