37
## STRUCTURE-ID: 645903204e4bc003a606bc41 ; CHARGE = -2; SPIN = 1
O 0.43074418650809865 -1.7497517588286087 -1.0601789285139331
C -2.2463830595453667 1.594949149225218 -2.338944982239338
H -1.4587753608525158 1.328056318947787 -3.034860174592866
H -1.8067481387169646 1.9843923590269141 -1.4200484659879742
H -2.891281758369267 2.351920538425987 -2.774081644163703
H 0.2698635859195207 -2.6173525503957205 -1.4702425457525474
Rh -5.247969536199015 0.5628103396662444 -0.13076607951407762
I -7.062183798055521 0.977989880097237 -1.995015343245609
I -3.386150926853085 -0.07569030032512482 -1.8274718408343988
O -3.0378630344194977 1.714865481557749 1.2997134472451337
C -3.705175407544255 0.6876054908073445 1.1059870717052591
O -6.566177836207502 1.5983984212819247 2.324710227327283
C -6.15745232957306 1.1660021379053693 1.326070918113301
O -3.329299829657599 -0.4426912864209801 1.799655224273023
H -2.6192494009099834 -0.2478053270062672 2.4406241111656777
Rh -2.450757804589372 -1.979434789533647 -0.3388603937824134
I -5.047690103453766 -2.498861718706306 -0.6493888111612676
O -0.40786178215961594 -0.14582589179172992 0.1753922718848126
C -0.6475039896077044 -1.2275190650948515 -0.370602144281008
O -1.4127881812869658 -4.3614879188543645 1.130038619230658
C -1.8309178434297868 -3.4711478222491374 0.5364744973829083
H 7.800433558713603 -0.3523081152552154 1.8346256649948705
I 6.157349244360854 -0.1535372762028664 1.806983035002984
O 2.5234478683133563 3.155964870136455 -0.9467650821358894
C 6.092805597813815 -2.204364173216038 2.5107631133398436
H 6.597708694032104 -2.2284756300160726 3.471861271076282
H 6.576259806747834 -2.8140738511204835 1.7535886787597421
H 5.03742310782855 -2.4337459475577097 2.6101839935706743
H 2.4890970502041494 3.882850451774463 -0.3032149188705946
H 5.123805381804841 -0.8195695647980402 -1.10564784176307
Rh 1.810894011130176 0.519706700654852 -0.3511310466304431
I 4.135235452553089 0.41895887472328125 -1.5443991172844396
I 2.675829397203385 -0.3372151063437845 1.938006846407451
O 0.3117703684539472 3.025601537337392 -0.38014445233596084
C 1.2793596529713167 2.5253056102479676 -1.0186010067226838
O 0.7990627951468141 1.275644274696227 -3.0837848070600242
C 1.2011403617252663 1.389835657204511 -1.9205293646075983
