33
## STRUCTURE-ID: 64590b7d1883f702263b2c34 ; CHARGE = -3; SPIN = 1
O -5.605467185923081 1.64033419443408 -1.672443499862224
C -1.487082463088631 -1.765545213464833 -1.974779966825576
H -1.5840795934146976 -2.8211642281611877 -2.1864771194111308
H -1.7070989781903365 -1.5619828398540274 -0.9339558423401161
H -0.49851726622824033 -1.4024488359143592 -2.2293805048707633
H -5.374870235629282 1.3789627715697317 -2.5807395106970143
Rh 0.06115401468016292 1.0880112760802414 1.4348647064204705
I 0.129740130161946 -1.8537841375950923 1.7364302617753988
I -2.9088788303339643 -0.7099095378321731 -3.143448879133166
O -2.467258608634965 0.4013090407322325 0.40122311619086387
C -1.8741673974018462 1.2290190355647372 1.1166472326277872
O -0.6067144228097635 1.8628622277675746 4.249868533808223
C -0.3067928196118088 1.5982628200486277 3.159874139312028
O -2.55790648197556 2.2260949203073466 1.700355696742791
H -3.4915606349754436 2.2677599885302575 1.3124424116516793
Rh -2.660992642872402 1.7771773249996166 -1.399042776320074
I 0.0975465713614297 1.7276295329105933 -1.2200290668951856
O -4.823689424707533 2.2011039386777838 0.2931346167584527
C -4.555145417667167 1.9167935557757303 -0.8781554962124825
O -2.83832419217507 4.126487149385507 -3.224781094711459
C -2.8385523713057235 3.185153024767089 -2.558989906860877
C 4.167804025980198 -1.1006156943317762 -0.9514703923381247
O 4.433803332821731 -0.7108212559113327 -2.0736552347690558
I 3.1986356524878583 -4.304938663254982 0.8233485675520464
O 5.778328378211632 -1.9223813888091992 1.9879661849297177
H 6.670246422306778 -1.8369823581410518 1.5792815904223312
Rh 2.9201008409434417 -1.7726696770087458 1.5509111836883338
I 2.8106474246603312 0.9864011276859801 1.765849404590079
I 3.290449029732823 -2.1929683351384095 4.24255852255917
O 5.192570082004989 -1.3170055328545092 -0.03881836409044471
C 4.795599193496019 -1.6710545125338407 1.192763378601608
O 1.8137743751398898 -1.291872528516134 -1.0850726125996828
C 2.8266994929563727 -1.3772171899154804 -0.3962792796935985
