41
## STRUCTURE-ID: 64590c6699de6456105b72d5 ; CHARGE = -3; SPIN = 1
O -3.306677215477678 -2.735982718456191 -4.02131137614063
C -0.5058892346504761 -0.3049426288035392 -3.413030992596372
H -0.8159060080010775 -0.7424553834685796 -4.355416895143995
H -0.1589735824276452 -1.0939313757056581 -2.7472896370345765
H 0.2920226850894122 0.4147009022288475 -3.5719018044111195
H -3.9789600340058273 -2.273183245337334 -4.553501831531548
Rh -0.9918443187690924 0.8815746168022632 -0.0713840549389272
I -1.3542755670708115 3.348966243870334 0.5110119275999956
I -2.1590958592882052 0.6486657626984634 -2.483711702202234
O -0.7034852821791497 -1.2713149583215988 -0.3689116428071144
C -1.6379303596092285 -1.0695797366057829 0.46865297454330807
O -2.343132764517416 -0.13012220972995228 2.576435157533768
C -1.4453570184866744 -0.3335017431925818 1.6901231226908573
O -2.8450782824699736 -1.6774017106352255 0.28934251674044154
H -2.757005620815918 -2.2253703617477534 -0.55086860005892
Rh -4.270104590574588 -0.7443915858847135 -2.1121361899729925
I -4.999895596577667 1.7626564460753644 -1.7116289781540082
O -2.574114182907121 -3.017437573212332 -1.9648274208738115
C -3.326232245948779 -2.354291807546856 -2.700616808915203
O -6.661090871142508 -2.4644106025299006 -1.6339241932352744
C -5.78711123467937 -1.7519782972319413 -1.872884922072639
C -0.14053103755780721 0.29927952112038575 1.7928181877224345
O 0.9950852129330238 -0.3019758465459659 1.556582423191666
I 5.242480586037296 -2.1289858200226246 0.7868227290095597
C 2.321657202637329 2.597675189801447 2.0049166018709226
H 3.2316364428074373 3.1065400413455126 1.6987869955439578
H 1.8156441407632837 3.102426354087336 2.8195509718835763
H 1.6312286397911786 2.4845502342785477 1.1754539337218406
O -0.07284762169829283 1.1592530225524473 2.890214741067308
C 4.584552266857117 1.5844567474657159 3.6851634189498412
H 4.214257124525436 2.3778569916771373 4.326846831555464
H 5.288929399590702 1.9647802335385451 2.9487881914337795
H 5.0536196077080735 0.8017101316825597 4.276809566609824
H -0.9632726531423597 1.139341368647865 3.2950811047104054
Rh 3.530841571400364 -0.4227099522601119 -0.159948075116543
I 5.21624890739092 1.5317832598243208 -0.19092550741865494
I 2.8388424760457895 0.6543234350310414 2.664622950502974
O 1.2195439648999897 1.1827890584964522 -1.178265011363333
C 2.183635706879961 0.6178843524381556 -0.8392558533422899
O 1.7321827431034602 -2.76975665564313 -0.5818559302174826
C 2.406402503536839 -1.8474897007809858 -0.37442691933426875
