36
## STRUCTURE-ID: 645911cedd4c3607b003425d ; CHARGE = -3; SPIN = 3
O -0.7618066699677329 -2.360815662253402 -4.07767801965732
C -5.153928849163637 0.871287804717438 -1.8950047803669268
H -5.462153260694902 0.384929766758018 -0.9744646424341068
H -5.979231488020464 1.0829138638342766 -2.5687911817505187
H -4.544191297781241 1.748168965746462 -1.689739732304304
H -1.6213559514044662 -2.0036150945260016 -4.377286606790877
Rh -0.5166443488671066 0.5196883361656542 0.24386043659991466
I -1.70720614758238 2.73905521144855 -0.39993641422047277
I -3.877845863159355 -0.571598007002825 -2.9572835095376844
O 1.707358831358574 -1.2886495385633325 0.048131777355926206
C 0.5482154097876889 -1.1379109503001565 0.4651530486834989
O 0.20397462681547246 0.2199143976375135 -2.448059368102316
C -0.5987158358805751 -0.15071825300414343 -1.6450034148669122
O -0.049789517924576795 -2.216739883451496 1.0817973019780573
H 0.5723331009793996 -2.9542767053717602 1.2088963276029427
Rh -1.845769752720124 -1.6524471495557174 -1.4072727256362678
I -2.8583777625802456 -0.6092321437651104 0.9307752518906062
O 0.4635293767303087 -2.892061732411102 -2.3254968836013896
C -0.5797163022587161 -2.398980799968272 -2.740338050228761
O -2.021141315400934 -4.6018888453610645 -1.0052714541923238
C -2.263304471414576 -3.4797374481279797 -1.1044772291677643
C 2.0549632719127393 0.0052279351747165055 2.7854306619057723
O 1.645791759434262 -1.1410862264923445 3.0643874483643287
I 4.419943365142344 2.5527167529252788 2.7572351210537063
O 1.4367522443105758 1.690914278146888 4.371100426668766
C 1.5742019550156074 3.7868340964537 0.23751262312247293
H 2.432355734396278 4.33068768385043 -0.12956703892327553
H 1.2449929136840716 4.086791009410438 1.2246076409923294
H 0.8054509447029621 2.3814959807293525 4.674862901922962
Rh 3.517023509146052 0.3287744331779664 1.5041995995606952
I 1.794468634950958 1.7321938795404186 -0.010596176701514162
I 4.982562165992084 -1.7982664837056792 2.452469925479773
O 4.781070441695716 0.039899723163747375 -1.163165238201199
C 4.5220881363193035 0.3018532186163142 -0.05464314993485071
O 0.04677025685955289 1.3595641853331193 2.666326611260695
C 1.0873321555871098 1.095113401029989 3.2573285121762905
