41
## STRUCTURE-ID: 64590c6699de6456105b72cd ; CHARGE = -3; SPIN = 1
O -3.2720771030295213 -2.241208901789488 -4.577139127913857
C -0.36650314749966195 -1.0166552095634744 -3.0755234060203103
H -0.8303235045916223 -1.616505511089865 -3.850807332437129
H -0.08127550074340172 -1.6774193911456248 -2.2540912228469163
H 0.5144697140522793 -0.5147258576879774 -3.4663613806040887
H -3.859923604285926 -1.5921070660401537 -5.00310645605299
Rh -1.5913874993676989 0.5618595194246144 0.28116402370605376
I -0.9122803533094535 3.0404696724265685 0.3386815227077525
I -1.7774682688212495 0.3047059206082122 -2.2961928045248436
O -1.1236744535396936 -2.2640836745755344 0.021722247465470676
C -1.959412172571613 -1.3465309026474017 0.14360126999863618
O -2.386718172483047 -0.7252199263943323 2.876667504752072
C -1.638961867561539 -0.1643943481395527 2.060086660613421
O -3.298039691306476 -1.7168933564880493 0.13675599069599073
H -3.388687146561592 -2.6852409659483003 0.09459379998596124
Rh -4.142605735710247 -0.6346914675046673 -2.3046437295077085
I -4.303376498773023 1.8087292532230783 -1.3121403025236213
O -2.7657305788696895 -3.0985052992510473 -2.600479186400292
C -3.3737813846693094 -2.198913774035847 -3.18357701040623
O -6.820818136884217 -1.9284074568528928 -2.569548199523343
C -5.827027617284499 -1.345081155736624 -2.485885390484186
C -0.23731191769021118 0.1612362120271651 2.1445236769323235
O 0.7645279384054353 -0.5142742794602949 1.742674094798367
I 5.004694179347344 -1.701131382427622 0.9824759289538818
C 2.581394551131247 3.2084283802180233 2.529630987365109
H 3.4008210195899196 3.606714637191748 1.9317612250845908
H 2.6088641195303053 3.5503456535219504 3.5609954077100547
H 1.618557605744573 3.4188504782809566 2.0695939504048
O 0.108985160224581 1.2568472790785827 2.9286855159017664
C 4.877938823467283 1.5654634589381335 3.325523853801393
H 4.745283688066994 2.160627303627304 4.22582727909068
H 5.412224347930873 2.108323353799621 2.545894567361441
H 5.384144252493282 0.6263281193620501 3.541679486411019
H -0.6522121268790404 1.694534526971541 3.345625682285063
Rh 3.1777223115813715 -0.20112594118080657 -0.11405536276825477
I 4.784752324135747 1.7917685516045276 -0.5657880478570113
I 2.8519631362936315 1.0687339890896215 2.587188991695217
O 1.001108757293965 1.0694494265274215 -1.6908047889333186
C 1.8740796475886432 0.6449508430960122 -1.048064216081214
O 1.6863441392288154 -2.726582590051993 -0.6736467952565051
C 2.2117207663264122 -1.7386681210055825 -0.3434989075791891
