34
## STRUCTURE-ID: 64590641e815cd0d813d5113 ; CHARGE = -3; SPIN = 3
O -2.3147071445278353 3.5073601289910816 0.2028098314602235
C -6.481001006973251 -0.0648371315082947 -0.24165359601922448
H -6.7060788017856305 0.2776773876980613 -1.2452413599966992
H -7.341383833395964 -0.006228679327138455 0.417696956354679
H -6.0278289552767665 -1.0540905370524538 -0.23753138032854962
H -3.267124766691074 3.3119263694897727 0.28876292641184503
Rh -0.5566897508668113 -0.8497713258041433 1.0739157513850082
I -0.7034185483151653 -1.7146032091412748 3.6412101035199638
I -4.963559849173774 1.3233329717061053 0.5932073100846549
O 0.51609690943564 0.39702707358302886 -1.2960547309125992
C -0.42044989789935094 -0.2978328785113845 -0.8657908623559886
O -1.9168009998166342 1.4359786766359963 2.3871091036191276
C -1.5426409469345397 0.7762786488901424 1.4546378207481998
O -0.7765073098503821 -1.3573515942711838 -1.7362782962422587
H -0.2022576197569437 -1.3426699328654925 -2.5214578608737606
Rh -2.3563601440177178 0.642941522085369 -0.37702180746176545
I -2.962204279627268 -1.9507116601196222 0.2062800121491455
O -0.38994838428263734 2.7766143480002263 -0.5351512836681456
C -1.5386867784653055 2.4538921838729575 -0.26894862658355556
O -1.959538794026403 1.3524234110844693 -3.2102299204167615
C -2.471265218529511 0.9219455993704346 -2.2606025668716647
I 5.078374203553699 1.7008861368902675 -0.20918925661401627
C 5.521248485835431 -1.7632472055587787 -1.295356691272521
H 4.700368940862562 -1.3061638681084449 -1.8575753430523934
H 5.735146715848327 -2.7579145795903077 -1.681813081909202
H 6.397404792867547 -1.1171938584116152 -1.394154307506912
O 0.5190674799271315 1.1826770487754077 1.6463341509350942
Rh 3.8746574381742716 -0.5105220778648222 0.7514497673359619
I 1.7473534920855893 -2.302550094328928 0.4772298286406862
I 2.1326640885529575 1.5482001274645507 0.6808922833259174
O 3.634505383351547 -0.16242114157703966 3.6422379583388533
C 4.175666144605508 -0.501849946865128 2.673462107748068
O 5.652122183045688 -2.6773711975118855 0.9302693415783878
C 5.213776772067281 -1.8718307161199166 0.1665457184501411
