41
## STRUCTURE-ID: 64590c6499de6456105b72c7 ; CHARGE = -3; SPIN = 1
O -3.357719775887874 -1.6212384452050368 -4.807774868479574
C -0.42778827264963576 -1.5300159417361243 -3.0594467475151594
H -0.7547907036759575 -1.5914781702828922 -4.093825858946754
H -0.7255627649674272 -2.439607134776708 -2.533547724930185
H 0.6568956337047338 -1.444233964339603 -3.0198360755591063
H -3.766257231829951 -0.8046771825750442 -5.147304782365398
Rh -1.0234599778621452 -0.37504372540310776 0.40313909565491807
I -0.28587592647556714 2.0103988479866564 0.8834639504484246
I -1.3958621776454772 0.020114548852821275 -2.113001348184486
O -1.6334594648765668 -3.2325041402119217 -0.1365316444209108
C -1.9932309129321168 -2.0586789886811445 0.017425647624494348
O -2.218172220380971 -1.3135186274904889 2.838452193233095
C -1.183402459254975 -1.0322318656943394 2.225232217432969
O -3.3677602128942272 -1.8102675216212931 -0.039151591678503905
H -3.874209446029102 -2.6391423183983074 -0.10458131467633772
Rh -3.9053068566491467 -0.16181821095401747 -2.3508875616132023
I -3.393874275376913 2.0888476550211386 -1.1153224020574708
O -3.191408040690547 -2.845947719611062 -2.966612093626811
C -3.5153008863246837 -1.7456339367861906 -3.4202193382540758
O -6.808651348323162 -0.7019293619483629 -2.786880802751131
C -5.709599579849318 -0.38766641992603756 -2.6313923177271645
C 0.17972623367509452 -1.3767353001727256 2.726775272711663
O 0.6283361189618913 -2.5128541743273973 2.565910940101763
I 3.8817242154850984 -1.624669132915527 1.8983893594130214
C 2.5195675377380278 4.1880319510150015 2.3080486265261952
H 3.2996502674098824 4.5876800379245095 1.663489486402665
H 2.581380543280993 4.545517064661982 3.3340309436028694
H 1.5231438976405445 4.313042922722251 1.886044706727526
O 0.974383811121294 -0.3954799710152413 3.1942233313284247
C 4.857389941367921 2.5909247653022547 3.1493637293254464
H 4.698102461710118 3.2767195990924787 3.981533043342198
H 5.3915738218953075 3.0355546753423774 2.307940222988591
H 5.344822281644581 1.6697849616918807 3.46561215152095
H 0.4984121808734705 0.4012494578130438 3.515588544870695
Rh 2.6597872279191233 -0.053184036084103686 0.18445705678695432
I 4.916491516998106 1.040044106493495 -0.6155712562766777
I 2.829780949426893 2.0293990917098172 2.394251097106409
O 1.3130683614299672 0.713738227707224 -2.341012579614979
C 1.8651467566370918 0.5724106011726299 -1.2998590334904667
O 0.9402756132681515 -2.2275000418603437 -0.46203501789566137
C 0.9720331623874449 -1.1574021824924847 0.10142274291475295
