36
## STRUCTURE-ID: 64590ee9dcb96c6d337862e4 ; CHARGE = -3; SPIN = 1
O -0.18728516160132858 -1.8466665586934843 -1.2255766007393947
C -1.0494645712576918 0.03057328486943882 -4.190096204112659
H -1.1863364583718328 -0.8360158453630224 -4.82828720222296
H -0.08756647418406137 0.014277764951281314 -3.6823066456677354
H -1.1843997848281476 0.9559581803622965 -4.73975843228002
H -0.8691553524129653 -1.7883332584222322 -1.925797281064077
Rh -1.4018185927176048 1.259629562665516 1.7852466235393167
I -2.5454109776386598 3.2105205559878476 0.5135535594211598
I -2.6497793106583165 -0.025321218031979148 -2.6435827454664307
O -1.0706432832896824 0.7072758727140737 4.290677722853618
C -0.8683632395820061 0.08886262929226929 3.237745281645973
O -3.3010222013209507 -0.628438756156114 2.901013706147431
C -2.623042271467315 -0.20580843729189863 2.0076988610091115
O -0.519550756801397 -1.2245972402899081 3.321379600591043
H -0.4301012645724277 -1.4866036006784638 4.259521554090143
Rh -2.422407878697764 -0.7035944980453489 0.1049006957463694
I -5.078148306641549 -0.22890144097508278 0.06315447901596574
O 0.384681770709183 -1.3565725136672708 0.8077372446853723
C -0.525354419124769 -1.261430047383386 -0.017855770734580074
O -2.3511669191672375 -3.447277847497229 1.1092235190511068
C -2.578563931292879 -2.6129375376775976 0.32416589142163377
C 0.5846600146973747 1.5763250155893533 1.1658581268849086
O 0.352380591398701 2.5186872804327805 2.008064176111152
I 3.77318349298881 2.2860581931497936 0.6971653396022159
O 0.7608364514421172 3.075249108903709 -0.6276639745594773
C 3.9268163934958777 -0.4195287924809774 -2.618936918579636
H 4.373158103402746 -1.3945965690295763 -2.5405275576728896
H 4.498769499388364 0.4034414384903808 -3.011626794128924
H 0.6269493752590894 3.2582606141026327 -1.583420666954554
Rh 2.1300903120159096 0.26216919693235474 1.1446037048289455
I 2.226198747151994 0.0030542685956034096 -1.5498889494168284
I 2.401997447647922 0.36071744793835037 3.954520223222799
O 3.48594931261338 -2.3290550671311365 1.5555955840994498
C 3.287760707987556 -1.219075191151881 1.2900835542618412
O -0.17784629113364905 1.116280945922777 -1.1004033424149509
C 0.293995226563214 1.887413059066169 -0.25618036221439955
