38
## STRUCTURE-ID: 645907eef69d8a4f9413ed16 ; CHARGE = -2; SPIN = 1
O 0.3860325487792704 -2.1714838136564865 -0.38780402315335005
C -0.9895695390871109 1.2501463621292115 -3.2897751941712126
H -0.24011984919823887 0.49185009592624546 -3.5021093288936394
H -0.619944429734873 1.9154252978829018 -2.503819804555247
H -1.197580855577768 1.831929619528014 -4.181209082693589
H 0.27178463949802906 -3.1285371970153104 -0.4946915454973188
Rh -2.825728067148357 2.2180729049530576 -0.8125585478588578
I -3.183427508343831 3.984800916519343 -2.7634347592436423
I -2.7766963315416615 0.2844587474860724 -2.650607996078185
O -2.742518033375147 1.1189721187983905 1.911077171457112
C -3.0751032382030052 0.9921050551148457 0.7256746143024271
O -2.4188177624369995 4.430648451781205 1.1332630702466129
C -2.5929683938305548 3.55290462965949 0.38997332893907855
O -3.9111385738964857 -0.08141150468048586 0.4592654406533361
H -4.235855243272335 -0.4963963439282289 1.286259073167552
Rh -2.549094879606455 -1.8513978048149757 -1.1944301683307457
I -5.015178182593954 -1.9196428287325205 -2.1568544753448053
O -0.41589439785053084 -0.17240998894431492 -0.5938440402388994
C -0.6906854388075054 -1.382910544135368 -0.6853765370027004
O -2.487150473495493 -4.384444650039495 0.37499033968000844
C -2.502116074805139 -3.422043505247525 -0.25821583831918465
H 4.906566771233205 -0.8177562696329652 3.8334460921141336
I 2.020201178059616 -0.8042745541921558 2.353847637558068
O 5.265183586997908 -1.1419329718715767 2.9753117775340248
C 4.254957360347043 -1.9477776065804195 2.334971310581737
H 4.589683455819576 -2.167807452813859 1.3278072375462744
H 4.132094591572756 -2.8496593597501967 2.9283990046559127
H 5.500301382351673 -0.38169070619767154 2.388393552278307
C 0.030599842323198085 0.21646089708012883 2.5578124699804667
H -0.3424750204133164 0.38294918912920534 3.5713758415351005
H -0.7377041877873524 -0.3456038690636528 2.010973633843388
Rh 1.8464246341976913 0.3969766174757496 -0.07987616836821464
I 4.371537703544563 0.9254501444730818 0.029822216996722342
I 0.25903748671557997 2.141499591739098 1.5803165186743504
O 1.8654875306677814 -0.8134551675109307 -2.7915018226464667
C 2.0297508476797583 0.10428277626933198 -2.00352001082959
O 1.886885494541307 2.6007627326900495 -2.1073360745408247
C 1.9332374266771595 1.4409399901726851 -1.7160149139781544
