34
## STRUCTURE-ID: 6459011a74c4806cb66461c1 ; CHARGE = -3; SPIN = 1
O 0.26074549901873284 -2.258321897964737 -0.6069832924171366
C -1.8634375602359337 2.19063326626665 -3.463368589475081
H -0.7993866623674855 2.0463962727015246 -3.6188313893512127
H -2.049268320277995 2.9376982839444756 -2.6977487514389296
H -2.3770965804204347 2.420190439160924 -4.388772631779995
H 0.07663190238798111 -3.197818706464811 -0.4504763084013612
Rh -2.588855208019242 0.1851484841750947 0.07528298791561916
I -2.699859140192502 2.88688198006611 0.3730642531099482
I -2.687922482943021 0.2887039811486786 -2.7376322477095623
O -1.0210611187306864 0.1172481082602674 2.4599431623343686
C -2.0579894987511014 -0.3920040199022406 1.972051517081478
O -5.450597279938046 0.07493507830830363 0.7988679892684323
C -4.338299980072939 0.05571228549496951 0.4817324153736024
O -3.115709675278484 -0.5741297533128136 2.9073607297821225
H -2.801229135424187 -0.3330977704554155 3.7936829617059713
Rh -2.1145385753019723 -2.19836733256046 0.9603762438464105
I -4.360928884802922 -3.5428412248589125 1.0011465031205076
O -0.38085103638871165 -0.19250031819519925 -0.21501199772776752
C -0.6375460029087521 -1.386718941128454 0.028619115083664007
O -0.7845758563757788 -3.082058000719604 3.396503423369277
C -1.1248992891980372 -3.160731380038922 2.277269352457306
I 3.6918786889832806 -2.0546202419631667 -0.047758177907312724
C 4.882830343605979 1.378114807502067 -1.2217747487980943
H 4.33960060425926 2.0882632935790264 -1.8458331031205388
H 5.083296119983444 0.4896239809136806 -1.8219076626712554
H 5.819521996927374 1.8171421289129723 -0.8799353435039101
O 1.2174106348817115 -1.630557218128243 1.9414820185504431
Rh 2.241083664507332 0.21488610609128794 -0.16711865379816918
I 1.415771928177755 2.712166233541017 -0.4321166692876217
I 2.0499975973890923 -0.06208586439853145 -2.730625505676722
O 1.9941228285112214 0.5250306647033851 2.0495941569855134
C 1.6478752840308952 -0.5565290255458278 1.6892183338995832
O 4.443679373069054 1.1722734366778746 1.1266673248555907
C 4.089605821895123 1.0213328641891195 -0.0069674156751134975
