31
## STRUCTURE-ID: 645902d768bf407b980db81e ; CHARGE = -3; SPIN = 1
O 1.641453072387216 -1.1834227812844302 -2.069526969343661
C -1.6122555144086503 2.719860988581766 -1.3101234850398424
H -1.1887692383165585 2.812088058335037 -2.304158594820937
H -0.8111001958785269 2.7667113942258195 -0.5731280839532632
H -2.3235582209802796 3.5158965478825297 -1.1098444772163725
H 1.596027176588699 -2.142647091139894 -2.2245227427647114
Rh -3.496962360830168 0.5334826231233808 1.3213858908603306
I -5.766184370065677 1.6664472817553109 0.7474166281458682
I -2.525494884271244 0.8587764451904631 -1.0745731443708653
O -0.6776517594408471 0.6608483527265684 2.015812008746335
C -1.6573829768970352 -0.05434417092259816 1.7239485684819469
O -3.4385092329414024 0.2907668995268514 4.27871259463335
C -3.61629711181626 0.37178362609373633 3.1308269461439058
O -1.4808251813243036 -1.4093108666067777 1.6860952073557889
H -0.5500589617865042 -1.6765647786361695 1.850653416747399
Rh -1.264915021516841 -1.4340554080841015 -1.1514234079551748
I -3.8791096874748408 -1.9132020317805432 -0.5804934653102167
O 0.4522493844450593 0.6334941794538219 -1.7879009170629894
C 0.4213080104975281 -0.6079991676615376 -1.7662180993703007
O -0.30671240283109397 -4.246430535101823 -1.325505820921762
C -0.664682856091004 -3.1567145816977056 -1.3223359739351954
H 6.067208282944871 -2.146528176286714 -1.231911176523492
I 4.84764985900525 -2.1756409584395304 -0.15778457558757378
O 1.0261747635890428 2.8358689969538795 0.48744075015146626
Rh 3.402192146487794 -0.0035751516048504917 -0.25336742336979795
I 4.857072174737909 1.1590163985738644 -2.0676152787680184
I 2.4792585782492598 2.368430050824597 -0.5807102921123463
O 1.053975505302897 -1.542704599856035 0.7452507104258478
C 1.9453959279421902 -0.6998177083597945 0.8537700961342702
O 2.8756955278958523 0.9471751752265822 2.5074453704238913
C 2.594809566797515 0.25231098898850646 1.5423857401759429
