33
## STRUCTURE-ID: 64590a663e25cc72520235f7 ; CHARGE = -3; SPIN = 1
O -2.291161092337225 -2.374783486378335 -2.96891481258862
C 0.25905983570495145 -0.08193550924162273 -2.6590697130097363
H -0.16481473250322168 0.011725331183420486 -3.652000979346146
H 0.2894780712102506 -1.119974355929654 -2.3456357478976257
H 1.2585700833111695 0.3288993227422282 -2.630645927389351
H -2.989744548252614 -1.9234792768931916 -3.4743783985311794
Rh -0.5271722939306138 1.440152567007535 1.3943966668093435
I 0.16058051291767056 3.99435607387816 1.0569106056859483
I -0.9725563865907588 0.9583761375913655 -1.2902745339424957
O -0.12702505928757557 -1.3276692648460053 1.889965633526754
C -0.9780197754252193 -0.49360730787453394 1.615454214672879
O -2.539206794070463 1.8062724475633882 3.558510030787752
C -1.7867370828815778 1.694930518021372 2.7052926977747753
O -2.2662503387423967 -0.8918081534027856 1.47062625559875
H -2.3628460215435023 -1.849675173456302 1.6582978814897327
Rh -3.1465604515117893 -0.40657128459686176 -0.9512015087455767
I -3.734009141562704 2.0217518037780406 -0.020067970747411193
O -1.4144125669399366 -2.5547215806444403 -0.9522517975402148
C -2.2207808487872525 -1.9751472111826358 -1.6703056696231182
O -5.827064967594688 -1.7303614308109032 -1.0869833532024684
C -4.795708775721314 -1.229954572954234 -1.0622683041689112
C 2.412971852880509 2.435407394259629 -0.50373885727646
O 1.5881726307887394 2.0144652763801107 -1.284375548921408
I 1.828017736447082 1.0693475690310141 3.2146801244645373
O 2.7602727225433377 -1.9327592197850176 1.1739882563139947
H 2.1095607316262917 -2.611484791612802 0.9079310404876065
Rh 3.683630664980923 0.6669752671084397 1.35444865199379
I 5.236361292509786 0.23064420449746387 -0.7287135580870929
I 5.281077372816631 -0.6561972355164986 3.0236788631590787
O 1.6007427570911417 -0.5249799729205408 -0.12645538613103774
C 2.5004157868430044 -0.7188162672432458 0.6804103652486146
O 3.9732715356661337 3.23028654559589 1.1775566312317054
C 3.201887290345263 2.5003356366514877 0.5251341479036076
