40
## STRUCTURE-ID: 64590e5224440309f256a929 ; CHARGE = -2; SPIN = 1
O -1.3532930553587008 -0.9246889118736478 -3.0965718305694594
C -3.540264764168638 2.0517039339657583 -2.3258152111036052
H -3.4755789449268466 1.8076155259261266 -3.3807588189457216
H -2.561979625174449 2.2581340828356606 -1.901144392310428
H -4.223641671621739 2.8759074751773466 -2.148354136173529
H -2.233156586794649 -1.224569461086328 -3.384231607006138
Rh -4.095999384146628 0.2834796616623684 1.475381987575853
I -6.5946644956101395 1.0275853989433739 1.8890168244296381
I -4.325731160872074 0.3214025195824502 -1.2614231584742863
O -1.5205767518533535 1.0357481258047883 0.5701083716605946
C -2.143862606144014 0.1336615026763491 1.159918691043534
O -2.5847924999673566 1.5549028260266433 3.699926907109746
C -3.307401665489065 1.1093801916496269 2.897901239479088
O -1.3685814280624975 -0.7031702668052547 1.984901052335971
H -0.44161617579035917 -0.4258564080929266 1.8942230285810506
Rh -2.6205587311598904 -1.5863361780430212 -0.5560188481494165
I -4.611539326829494 -2.52757439239912 0.9944321432662101
O -0.08202667077425385 -0.5188153172259801 -1.353749250261718
C -1.1829350794026359 -0.9235792871210448 -1.712785383843979
O -0.8878525346551588 -4.011065577170297 -0.3227152697496633
C -1.5881675464519664 -3.0862946795335606 -0.436023278036808
H 6.109292472258224 1.9415302070907663 -1.74156842750604
I 4.5042598759435375 1.4110510588591054 -1.8646794485071392
C 3.9329142278861036 2.7601967429469956 1.8716749017747503
H 3.4938235617236697 3.6754496456786767 2.267081493449566
H 4.738746805883422 2.994886287590507 1.1672279085902095
H 4.3787985124477355 2.1633755631047156 2.6674144729412834
O 1.8354349177961296 -0.28441589316512234 2.6376508136534174
C 1.4805188576094814 -2.8636760241742754 -2.231254827528327
H 2.048764093661361 -3.6979513515638995 -2.6220652317843065
H 0.6201873479093136 -2.6533332250417647 -2.8568384417706025
H 1.1469451090007223 -3.0746413280983833 -1.2210090469177137
H 1.3822745658499833 -0.8866297945209287 3.258183887599546
Rh 3.0357793716505954 0.30371328876145204 0.18623997614002957
I 2.6551501252469487 -1.180834231974172 -2.1139683114700305
I 5.087132153526819 -0.6894855371431575 1.3959006844350523
O 1.7729719857667297 2.2767035336381998 0.8375719075580224
C 2.9008575059133666 1.9919452095639958 1.1609594271343047
O 1.5843479532650946 -1.9027432720979576 1.096366163231103
C 2.036021261914618 -0.8127116443541527 1.4188930381200546
