36
## STRUCTURE-ID: 6459106b72eb1d154b785f14 ; CHARGE = -3; SPIN = 1
O -3.482508617907194 2.591457154713487 -2.1546060726860095
C -6.1188885358937615 -1.26250196927796 -0.071868075026446
H -5.462382810462513 -1.9941533067856627 0.396764974954009
H -6.232383753852092 -1.447802892173137 -1.1355720218192782
H -7.072472437859823 -1.155654388660676 0.4389746632176362
H -4.035494407354094 1.8234393779463838 -2.400609915935345
Rh -0.2100102002129455 -0.8999004277089712 -0.5320396117370192
I -0.6336198300481257 -2.6986230489758514 -2.459883428105864
I -5.103026598776166 0.7131574271873388 0.13751747371015263
O -1.4550787398069205 1.857791445050549 1.7211922345557151
C -0.6506189292421666 1.4049130174340727 0.844782236573437
O -0.009320090131921473 -0.4345184837160144 2.2885653095302843
C 0.1608322457753576 0.20446282723431314 1.1258075034547927
O 0.06800377804022725 2.3254726523768223 0.06462002316320895
H -0.6342287798039364 2.9873567290130194 -0.19574739096379654
Rh -2.4627362810962388 0.7447264526554069 -0.14108780818021038
I -2.3085285377195426 -1.7584998250797852 0.9003185291859873
O -2.0529829372989 3.456728301511699 -0.7474157899859242
C -2.6657423048539295 2.4376764958671244 -1.0908029040991802
O -0.783328382471662 1.1186516301152378 -2.5412455188913126
C -1.182233836798642 0.49090600311753263 -1.6151139667940553
C 4.1712486689405 1.2066231613714244 0.4498202760259813
O 3.8862870218154493 2.387272669445615 0.33583124736552555
I 4.044680002286585 -0.7185454303290831 3.170080051653622
O 5.569273355786613 -0.5956358944336846 -0.15077713839231102
C 2.0182234151024927 -4.219049394974785 0.13862900122453678
H 2.777828833235256 -4.193302820519585 -0.624518709598385
H 1.3353767237101752 -5.0532283507444244 0.18061842292522562
H 6.462558922128636 -0.9814001041196232 -0.2997762555257423
Rh 3.0375435133421576 -0.31067110620121374 0.8169743664822635
I 1.3504253746996882 -2.4454089298970785 0.97390859490515
I 2.2870948782014304 -0.12505207585963596 -1.7064246021657337
O 1.6957050514064491 1.731570279964015 2.066829720330089
C 1.5076669518892452 0.7690850878974165 1.3466909326972865
O 6.592049455706094 1.3507662900875004 0.29223431994676136
C 5.590787819524272 0.6918914464681754 0.17732932800492957
