34
## STRUCTURE-ID: 6459020f7262046c227e391e ; CHARGE = -3; SPIN = 1
O 0.1486586544928402 -2.140929026113259 -1.6382814223312652
C -1.3609754992571255 1.2528270699402693 -3.563055721121677
H -0.4590238227075574 0.7775651172443513 -3.928999323726732
H -1.1584238727654856 1.814847540803226 -2.6580284520143294
H -1.8322104020680245 1.8733136048189702 -4.315486649670352
H -0.4340501852157882 -2.21764333061082 -2.4138115429442863
Rh -3.527862485188556 0.6011180261420983 -0.08277515860482584
I -5.26387585518603 2.4351913958491025 -0.6452813434704209
I -2.7764452932141284 -0.29960079245457544 -3.0432022231172953
O -1.4778868398297103 2.6059780475281342 -0.43665065456662566
C -2.3093906261402037 2.056529988144802 0.28865535772591966
O -1.4973521501472744 -0.18570666588861343 1.8893634449314847
C -2.173479205593989 -0.2892363316139265 0.9144570096102895
O -2.468264991992345 2.5402060867662963 1.5648491573592092
H -1.9114246125771 3.3273516589219954 1.7176990896161308
Rh -2.477360203063719 -1.8241564892417594 -0.4329270836048676
I -5.1462859293359005 -1.6202282290019792 -0.21382487738605116
O 0.22343236438368314 -1.9525283016212904 0.5493609596115747
C -0.5178330775239075 -1.9504330920384896 -0.43976089938522855
O -1.8370266658103167 -4.715804855751946 -0.09772534207947246
C -2.1926570281889135 -3.6446246425261886 -0.36810293743757455
I 1.657360735565526 -0.9919225734659188 3.616987790266967
C 5.036080344558499 0.20276182912981763 2.127481390796291
H 5.620786502989124 1.0342425437306872 2.5185019931970816
H 5.523501084983711 -0.21720564124359662 1.2466567252589642
H 4.9557132750978115 -0.5864232037600118 2.875002057324405
O 0.10395094082340704 0.49262978625947407 -0.7948851249457402
Rh 2.2302443070648312 -0.47923305620461265 1.076934431359886
I 3.224383458417778 0.20836472804239664 -1.2924171006733323
I 3.525353375018337 -2.716830990080937 0.9321827332192966
O 0.8397408172644337 1.3046847678802775 1.216581449133958
C 0.6860930769316645 0.6786769417979354 0.21594769845558087
O 3.3614112826559284 1.8892043878505367 1.8504885376101554
C 3.6851185255586945 0.7370137007674811 1.7640660316031083
