36
## STRUCTURE-ID: 64590eebdcb96c6d337862f0 ; CHARGE = -3; SPIN = 1
O 0.4544538038924859 -2.3761958299536143 -0.7874047276697572
C -1.2981766597524735 0.7415914528940107 -3.439810893365655
H -0.5751390474167978 0.07824332264704587 -3.900811495641372
H -0.8107417176809273 1.4034719853203579 -2.7337994881016505
H -1.8440059847920909 1.3193631164396569 -4.175319682876739
H 0.0031598122518358344 -3.0615582935190484 -1.3099376700285883
Rh -1.6470431729759571 1.1979059107917323 1.4263836751097032
I -2.434590618395338 3.0285116451507834 -0.2410318893709121
I -2.7555677945902155 -0.4432432966868414 -2.365043292829804
O -1.5668691007649882 0.8761916419783832 4.0991100550901685
C -1.322838990581352 0.2286624523859634 3.0779379075357927
O -3.923820705379788 -0.49037024276167296 2.1041555877316998
C -3.021968463703923 -0.07779466098073504 1.461344054164934
O -0.9373482576567936 -1.0743963499891998 3.216879290432728
H -0.8694379456214961 -1.3005766263880558 4.166065100368853
Rh -2.3817615249533186 -1.763980135184795 -0.12860184134687672
I -4.85269566208861 -2.6173627342314743 -0.6117669376348667
O 0.15900981806451275 -0.5999556738793952 0.47815213062793616
C -0.403395678133802 -1.5087132911276167 -0.11979183876981205
O -1.7547081308520371 -3.7146885209447547 2.0378345678432184
C -2.027538563280254 -2.975463251435133 1.1877874086565712
C 1.0075988664730748 1.9744935762128943 0.915370681005351
O 0.2676839898597631 2.3339978285241294 1.8604432615839754
I 4.330874802945595 1.9875131112359417 0.4262233641982095
O 1.242914023386192 4.147325932775199 -0.014417893519532125
C 3.368546846561168 -1.2279773791782997 -2.8100104252815115
H 3.1416488076940694 -2.2691449336702867 -2.673586080319935
H 4.3780972926686035 -0.9362092119003363 -3.030288796921807
H 1.2655568534390698 4.718446806070819 -0.811533740425494
Rh 2.2416360589235684 0.37925036612289226 0.7884083487660563
I 2.154150209236906 0.15774504920401972 -1.9230267898271758
I 2.3990254006651766 0.22376756298214837 3.61436132655823
O 3.1622029322504335 -2.4362043686362815 1.0946687506948243
C 3.061551272481049 -1.3036116789377572 0.8758489877265769
O 0.805081842020461 2.494683903373067 -1.4486576093411052
C 0.9844553858063494 2.8862808152961743 -0.3061334048228227
