41
## STRUCTURE-ID: 645912727229dc306c2c7b4e ; CHARGE = -3; SPIN = 1
O -1.9211693464869377 -2.2495550135819946 -0.7629187298534321
C -2.6022523663706942 1.5375190749610907 -1.6393506831605091
H -2.4902882510942215 0.7538696628441135 -2.3809897628159464
H -1.7152302786850933 1.5801968148830432 -1.0104588077391383
H -2.7659396360648136 2.499942854329428 -2.1095425570549335
H -2.6286695841421968 -2.839823979534013 -1.074279674389209
Rh -4.393013769443245 2.4945818719207113 1.8225184413391289
I -6.197376704596891 4.084737235536781 0.8054204587971576
I -4.205384539415777 1.0685404135094259 -0.3464494607461743
O -1.5883862994583458 1.897558801439369 2.198970812487735
C -2.756418638990231 1.5251086477942006 2.383609348127329
O -3.594323338269023 3.8490172615686347 4.343631459366754
C -4.016308646813224 3.38789019124735 3.362560097707676
O -2.937869940124384 0.3543483822157446 3.1000552413493336
H -2.083914224036248 -0.0019357674791602398 3.4048041376318277
Rh -4.089962509391416 -1.1175268899122577 1.0048275669503777
I -6.299842032875512 0.06407213857122154 1.898228416649285
O -1.4115001609590379 -0.6861639269593425 0.703817875938627
C -2.309668274339865 -1.4168115550749216 0.273827891719982
O -3.8726339600125392 -3.8834497832370367 2.105697249931895
C -4.054414540847579 -2.8213607047125806 1.686710327464195
C 3.9653106570401047 1.1492601288123077 1.3357310694050533
O 3.1922520859337595 0.328681948539225 0.7682463190180286
I 1.7167400697964719 -4.144613891582647 -0.49192431500764394
C 4.047703034119408 0.6958646945428985 -2.16610831349022
H 3.8271594449996806 0.343748639102994 -3.168443210911867
H 4.964717713671819 1.2718682760126512 -2.1244169935807165
H 3.219422889555239 1.2762619185645365 -1.7689194558204926
O 5.199797761762899 1.1242823202179515 0.7139285410602695
C 5.2680628927626 -1.9973077609593946 -2.6207173737799727
H 6.056135954444578 -1.3497034691282113 -2.987344295501983
H 4.524216542112971 -2.1944879316730024 -3.386692449284469
H 5.678206060822888 -2.9326295146678465 -2.2535319659308417
H 5.827782204632278 1.7123940768609376 1.1630909762126302
Rh 1.276979639198544 -1.5855254493917577 -0.7009735477891726
I 1.283745611393752 -1.5794982015348231 -3.3000215221678313
I 4.282598559016634 -1.0084739295143916 -0.8988431276854574
O 0.6243418202363256 1.320533289668742 -0.5832710186252539
C 0.8681917023921656 0.18448860856443247 -0.6698006811850006
O 0.993817038939804 -1.2568799089658054 2.253114915836566
C 1.1173853595853949 -1.4390195737986096 1.1162067995264393
