34
## STRUCTURE-ID: 6459030e0c9312664801ab63 ; CHARGE = -3; SPIN = 1
O 0.41680284610719726 -1.9310444372130102 -1.3543673246533314
C -0.8907782785114907 1.850596194654273 -3.2440748172852087
H -0.017242736871523848 1.2233768437267114 -3.0928718937943165
H -0.75790040352608 2.7902535817667724 -2.7201096204053385
H -1.0718387632246358 2.012293482633103 -4.298429850163739
H -0.17016441345975516 -2.6322997636835703 -1.682210943047336
Rh -2.981607289428755 0.8598391496457028 1.9064238093302333
I -4.158600570011887 2.941582791207709 0.9602242146544423
I -2.5793069432912055 0.841183817644505 -2.401834792784769
O -0.4686964936538066 -0.022104258187080776 2.858997319755858
C -1.802066862890671 -0.2920265949418605 2.891254663483237
O -5.403430722828471 -0.36819957110730833 3.0831380398917636
C -4.482616984549428 0.10768792209412928 2.58751984931895
O -2.0729726673307844 -1.2371874138446035 3.7589397904992583
H -1.2861588256054912 -1.5934272528341151 4.224377974253766
Rh -2.2202191625432546 -0.9135816350578887 -0.5441868479200469
I -4.8252190153323635 -1.1753332130315561 -0.6163526419921067
O 0.43895097143046186 0.08710737365611167 -0.4336137214498633
C -0.26044172633320695 -0.8625978982907999 -0.7844534774683457
O -1.252445636901156 -2.8526940737044137 1.4877924285701294
C -1.7374976060145653 -2.1287734499112476 0.7175818369896956
I 2.263783658447433 2.9124354826774366 -0.9567113080499567
C 4.683056533515413 -0.7111939507714449 -1.6466038742547273
H 4.769374949749879 -1.2881314546094282 -2.5659820913791807
H 4.975965138409034 -1.3167667832556011 -0.7910952086169442
H 5.341225856029516 0.15681536219887968 -1.6934285418674493
O 1.0856957759021482 1.3518091346799215 2.0497790835693195
Rh 2.5313405015022648 0.5049282715288965 0.13302481431726423
I 2.5834450565485554 -1.8487709655006346 1.3673351493444763
I 4.75450713325646 1.2560297154843185 1.3041380725195177
O -1.0381391679343652 1.6805945540482181 1.4759101387600142
C -0.11133169504356591 1.0844420863040347 2.0348443356117643
O 2.493505484289337 -0.26323577423329614 -2.483681993385457
C 3.2510220600988315 -0.22360727377278167 -1.531272572351576
