36
## STRUCTURE-ID: 64590e5177547273cc56c184 ; CHARGE = -3; SPIN = 1
O -2.0290844362927802 3.927725719255708 -1.1226772601860284
C -2.298141326429007 1.4383291927057165 -3.2918568033647118
H -1.5324736821326777 2.067555151775443 -3.729294991222166
H -3.0995434187250837 2.0212974365697045 -2.8517774803256346
H -2.692405181663294 0.7328349962549291 -4.013483256865923
H -1.1476859718288732 3.882463552109106 -1.5281119775055285
Rh -3.102243263016766 -1.3121551922531856 0.049684641905838954
I -0.8944252422847279 -2.8629021303778233 0.30094613309692
I -1.4186116397788502 0.28301694898651625 -1.6913798336936157
O -4.49240030176164 0.8635142308926743 -1.0885177519657583
C -4.56881579732181 -0.0644839878886183 -0.27262817261753836
O -5.113273525459671 -3.082199053530653 -1.2622495240844245
C -4.2486497228530675 -2.4925113219348027 -0.7472649945300974
O -5.716568422402826 -0.19083448527975544 0.43979029641445666
H -6.341973869915792 0.533831232482465 0.2350619689673007
Rh -0.7693533035715947 1.7771964698301934 0.42872969953237194
I -2.5175080446255778 0.2251765243329688 2.336015659047928
O -3.235515669256722 3.169437396727978 0.557615774956151
C -2.172174850895001 3.075931392526916 -0.033490473647119844
O 0.8411268509670539 3.9490286726724793 1.718165488998664
C 0.18439698473898172 3.1575208329501425 1.1749315206103381
C 2.8685769110871044 -2.215040857241253 2.598413164424364
O 2.017027831984547 -1.6931349503636623 3.2830918850835316
I 4.376259997044563 -0.30751826012136346 1.7870152508965822
C 6.454764239982454 -1.2130516450825328 1.6954285150407786
H 6.926314447758522 -0.9116645095646302 0.7605055484226428
H 6.366776798060244 -2.2957337278350542 1.7411450906981978
H 6.976425522929701 -0.8147270108762538 2.5644547937973243
O 2.260120462585231 1.1270325371256726 2.201766793916037
Rh 2.9320725768776104 -1.160311904729707 -0.16266340140712596
I 4.972296602292998 -1.9038755970192758 -1.5120945712281422
I 1.060151535725633 0.09326179777176948 1.159882775752489
O 3.3366259228171136 -3.9098531512390418 0.9748096882964173
C 2.874505104784226 -2.8869110487564282 1.3712782142573574
O 1.1075293029635054 -1.5450252278357537 -2.4799136517900506
C 1.8358765776160288 -1.4632200230404138 -1.5913287596816852
