34
## STRUCTURE-ID: 6459016686af0818f225e6fa ; CHARGE = -3; SPIN = 1
O -5.602981320180963 0.008266336821162911 -1.98524758836684
C -4.370450349551876 -2.5986325734206597 -0.01826830182640293
H -4.661294895397743 -3.5462285643638465 -0.4637558100340659
H -5.152710463007183 -1.8497047141437735 -0.09460042082239314
H -4.0478623941272485 -2.718884251966882 1.0108705976609522
H -5.34239145964902 -0.6554115137276557 -2.6512219551476615
Rh -0.48309512686136336 -0.40204129197428984 -0.39747959121070453
I 1.38311765865946 -2.348370195234049 0.05692878301748136
I -2.629010146759776 -1.8680707522072215 -1.1437032149965265
O -2.5141744177321956 1.219739731802307 0.5918243052542856
C -1.6971739835700235 1.1557250725759491 -0.33615240977727456
O -1.3675520325889083 -1.0674741454129177 2.175700072198398
C -0.6488453451500693 -0.30589967244069594 1.5845078456113189
O -1.0358824572165677 2.3160818994860897 -0.7145532020776422
H -1.3450552801826856 3.0549205049544863 -0.16644849318829755
Rh -2.7685684921434834 0.5437731247986333 -2.2221994138741468
I -0.239007752703341 -0.051437247310839075 -3.1546806595576165
O -4.943452723759828 1.7911959386851894 -0.8806092935857605
C -4.620640052759178 0.876044506346475 -1.6112882761798426
O -2.9797550002413176 3.209076096402556 -3.5594157425012303
C -2.9418213845293715 2.144242657209348 -3.1224950355456667
I 4.898327300647941 -0.7188033045405806 -1.4565058004323412
C 6.464785613643578 0.28044047353894475 1.933201551689825
H 6.986824963034025 -0.3571415773052504 1.2190605768704774
H 6.369888017763129 -0.27174696617342187 2.8680605189952746
H 7.024366511952477 1.2006153821118295 2.0958011989194745
O 0.13370214852662612 0.6106924921407013 1.7610625666354311
Rh 3.7072561998166607 -0.7344122795307431 0.9462253521984493
I 5.06296446034689 -2.892106022605871 1.663273310323922
I 2.925367623333388 -0.33971789845031575 3.5114302050627004
O 1.9195492360571484 1.2857495321743273 -0.3143861872265252
C 2.613410803408874 0.5599936247744578 0.2621096492852449
O 4.791773386500621 1.8111139947685748 1.2106803607379553
C 5.110391154421318 0.6584116022183332 1.4022745018898686
