33
## STRUCTURE-ID: 64590b9faa3759287c4ecfcd ; CHARGE = -3; SPIN = 1
O -1.450142900512097 4.113828530736204 -1.2002821662985341
C -0.9682725096562885 0.5700623351984753 -2.91465041278652
H -0.17973190642245354 1.2458612462148277 -3.238369617982269
H -1.937223100455644 1.0589925153834248 -2.954780883074421
H -0.9593802836534779 -0.3367694386162243 -3.514327840677666
H -0.5916554465103375 4.493332499726027 -0.9418289139944108
Rh -2.111531421205845 -1.878704374483198 -0.06018379908856853
I -1.8931412055408323 -3.224231962747074 -2.2960279661469913
I -0.6531555830723319 0.0273494938267468 -0.8742240648800115
O -4.0841563780175045 -0.26300549225342085 0.9133955117356928
C -2.9330947615114256 -0.6113476966596242 1.1681523747773557
O -2.730285809877171 -3.764803770743324 2.168182702739307
C -2.5557067392456014 -3.110617017430237 1.2227854515944132
O -2.2977044972814733 -0.06551047758812252 2.2339432690017285
H -2.8927343486561985 0.5320823175669593 2.7306607444778623
Rh -0.5001589030805773 2.095971140146877 0.6889874158830478
I 1.1212592616720893 0.34184992030747735 2.072257386681401
O -2.8023673722517177 2.4055284087277164 -0.9137068420979323
C -1.7567811739789754 2.9492807569814374 -0.5600411904672901
O -1.3061273012242838 4.144811599655325 2.7183644172194565
C -0.9270749990172635 3.3900619943568073 1.927099084391243
C 4.1230629013770095 -1.0284016638160147 1.3939678566562796
O 3.746645969835275 -2.0079474438657674 1.9527463783285215
I 2.423862667515573 -0.9798994719825782 -2.9946433147036102
O 0.7032650459858545 -2.6696339868693504 0.5982306860172008
H 0.735840764628509 -3.6287750904570264 0.7878854306529355
Rh 1.9976248103547394 -0.3578538474597204 -0.44917500297308016
I 5.332643780080723 0.385335087857068 2.427149262816736
I 2.125617295033723 2.4004433988179072 -0.924611996557722
O 2.6392919983345386 -3.1462275740506733 -0.38782907107594833
C 1.8241522347028116 -2.300458357734223 -0.07953449728314393
O 4.848963572558458 -0.24540936833297322 -0.6988246692374781
C 3.9081963390921977 -0.5351942104136816 -0.000765723647805491
