34
## STRUCTURE-ID: 64590237256e3648a224ef5e ; CHARGE = -3; SPIN = 1
O -1.4652652161443365 -2.872966155165424 -2.949553292699447
C -3.832851948379517 1.859120039972622 -3.549647643609667
H -4.640236589215571 1.411149602096369 -2.9760228544132157
H -3.9526081695516697 1.716171285842197 -4.618790861780969
H -3.704586723878027 2.907410295161632 -3.2902595483345713
H -2.017100211479154 -2.3687422212876976 -3.5756351131488544
Rh -1.5543461790165989 1.4396580026287586 -0.2195460733782188
I -1.8223426810814678 4.024638296994492 -0.5696429875656441
I -1.9555512685371088 0.8137354773987898 -2.9743301573119574
O 0.06290370500899674 -0.6929549249922963 -0.49017440016912306
C -1.0256219935529542 -0.4157955649161265 0.054645884248421
O -0.7281583275341137 0.9167671209510034 2.497794020692018
C -0.44287039763254404 1.3046271937573881 1.375998566795756
O -1.5010826235986787 -1.240726580857964 1.055406452215235
H -0.9290348489155883 -2.02580304315021 1.1147470934860206
Rh -2.916977899680514 -1.2264814040470566 -0.9760773054085419
I -4.048039621317454 0.7794601913405108 0.4553987523275197
O -1.1158657763035744 -3.302574298965635 -0.8142433814043256
C -1.7369869442872847 -2.6403186824575378 -1.6398242602598592
O -5.1787178441269015 -2.881534261347646 -2.0215921254788367
C -4.338284769634513 -2.191978080006952 -1.6433513900143577
I 2.3009069143671956 1.1290268627098594 4.252010554426275
C 5.787638256275608 0.3788521525703717 2.4090005139448456
H 5.735015451484123 1.176262593957895 3.1519363803711524
H 6.098253806456002 0.8228658848498076 1.462198718073198
H 6.5058146562224595 -0.37844951129290993 2.7214333435378273
O 0.5817327156724117 1.7452689281729938 0.8273606850755888
Rh 2.830116228339287 0.7429649674683602 1.6801827872080282
I 3.497228386198617 0.12126572264674716 -0.8093361919807288
I 3.8540798569993098 3.141729183176245 1.443373817776927
O 4.28309566845489 -1.469569684742565 2.491998419805119
C 4.45656593600254 -0.2981312308049419 2.268116288106014
O 1.1065415766922666 -1.6648072654251027 2.0181414724128643
C 1.8066368756939064 -0.7601408922358734 1.8382838364561436
