33
## STRUCTURE-ID: 64590b9eaa3759287c4ecfc4 ; CHARGE = -3; SPIN = 1
O -0.6801211415908323 5.149398032753185 -0.38144379084815233
C -1.0413708602409728 -0.4023047803729504 -3.6152792642059848
H -0.08857271427634904 -0.5772858214634771 -4.108384290318835
H -1.5990628452520055 0.3876783541140639 -4.1065200958429635
H -1.6255483119721736 -1.3161328072847418 -3.5463124474124306
H -0.00427241127270159 5.301170580367475 0.3014787472820395
Rh -1.4492230174397431 -1.2991579888280667 0.4153129590689669
I -2.9465513338020006 -2.925029678681629 -1.0107731161746147
I -0.6384935865593409 0.27301118603506763 -1.5735833221650535
O -3.914260453551849 -0.6460249403619909 1.6761611398177503
C -2.862976971169025 -1.0028797481751097 2.235124928543816
O -1.858838394959819 -3.196476756718843 2.655707262840723
C -2.049695142614986 -2.1959894504671853 1.9720342293396897
O -2.358386437898889 -0.23057380763490742 3.2674490364907305
H -2.895741691599298 0.579814898510706 3.3423949894989904
Rh -0.2520914416245796 2.3713346007272222 0.4672755768924831
I 0.524285811679454 -0.034160029488190476 1.6715516098385248
O -1.6519801193366284 3.5869208261934222 -1.592576583182601
C -0.9398959363323542 3.8472249846739053 -0.6391903382141285
O -2.790934848071139 2.3501609507551606 2.056907605919564
C -1.8314497203828857 2.4322479937617962 1.403854609552007
C 3.641059623451269 -0.902502070789663 1.6503627392924543
O 3.250474376881402 -1.8780647051665755 2.212511970098604
I 2.941135787310625 -0.5257817166801831 -3.057193812259851
O 0.680330691889883 -2.6363134330914693 -1.1327857846270866
H 0.6778172670689114 -3.6099168139171245 -1.2403119236562705
Rh 2.040291775832537 -0.21597184941433434 -0.6123678195630693
I 4.235807703216418 0.8054121134179361 2.8169787432774553
I 2.2313477347763535 2.594030439927834 -0.4870407494869489
O 2.7295612538280296 -2.9494757254037007 -0.30840874713457805
C 1.8532292254042455 -2.1795490072451114 -0.6565576679110104
O 4.873958821243256 -0.4178620970404325 -0.30328758702093905
C 3.8001673073652946 -0.5369517330122072 0.22691119227075465
