38
## STRUCTURE-ID: 645907ecf69d8a4f9413ed04 ; CHARGE = -2; SPIN = 1
O 0.31185955805021437 -1.943666191988924 -0.7979454722212315
C -0.5013134414933186 0.5198228803015353 -3.819343647135265
H 0.15289246984277827 -0.33618762648935696 -3.69528681330462
H -0.037889676467340476 1.4024058183979833 -3.3895412926374604
H -0.722333623852732 0.6985048727304302 -4.865753727197803
H 0.15924513677361163 -2.7289943559491077 -1.3489845764211612
Rh -2.5114178337693525 2.468177837328359 -1.5580281301457861
I -2.3010664895491457 3.737766451299841 -3.8551148216409374
I -2.3853500732241995 0.1507175197484212 -2.8169102334690757
O -2.1445744043564856 1.9404107590147368 1.2619416761406175
C -2.713088029164186 1.618609907895423 0.21746676050008584
O -3.5962074463226705 4.652207174099191 0.15454231190760265
C -3.164956022727633 3.8713043919055306 -0.5895388310497646
O -3.680012881921547 0.6354475684561197 0.32110407052519124
H -3.8759500026824276 0.42022221755325395 1.2556871747608143
Rh -2.645211108228393 -1.626660087584638 -0.9384414346757808
I -5.081048224241126 -1.5826751532340804 -1.9310292319758477
O -0.6140098363244805 -0.4495268077019078 0.5144963486147078
C -0.8176216540128715 -1.3435537429387108 -0.3139150948848248
O -2.7072497888930247 -3.7660646025728353 1.1352299945519038
C -2.7415412796368157 -2.9877656354141084 0.2802230587094045
H 5.2834503061932505 -1.573623197839435 3.2549701300276457
I 2.237190840074069 -1.4020505281966675 2.3808256907137513
O 5.481164963355218 -1.347854869017702 2.3147285394075285
C 4.467749434609335 -1.9628766355936538 1.4843113412064477
H 4.5857444150037825 -1.5901284089419356 0.47299582094103904
H 4.614823328506206 -3.037546400437677 1.5323301375607925
H 5.453340875991769 -0.36739924298415655 2.1952466387185883
C 0.28182432411217173 -0.8126203693335972 3.4833851031138137
H 0.17915508699074206 -1.1012126318787359 4.530133371575465
H -0.5978915236534592 -1.1688594047377485 2.93172711725523
Rh 1.3884859359832744 0.6743653737780436 0.8080090458876292
I 3.7159170358099876 1.794176845058295 1.0126675719120644
I 0.3000566262453789 1.3562704834098875 3.345091706379757
O 2.066431366822027 0.14110639943499148 -2.0691774121481714
C 1.5232670905392915 0.6964043419655046 -1.1306622287508485
O -0.07332594173420144 2.6184311463969783 -1.0734554558714156
C 0.7094604873521885 1.7329139040604413 -0.69398520688008
