36
## STRUCTURE-ID: 64590eeadcb96c6d337862ea ; CHARGE = -3; SPIN = 1
O 0.8028924159640397 -2.477788619898436 -0.19272812238896284
C -1.4035570234961687 -0.5688587164782771 -4.360389229211909
H -1.2136780274495091 -0.9232357401289872 -5.367529644422443
H -0.6791231974735633 0.17334320862025204 -4.035916763991482
H -2.4184790143540247 -0.2117047777470352 -4.221656432598127
H 0.5573737336805054 -3.2276907682605147 -0.7610768058263285
Rh -1.9983568368354623 0.20698971457195592 1.474524873804896
I -2.3958304670696053 1.210524629477518 -0.9278264522192965
I -1.156552480027868 -2.299984599603032 -3.0528033832344383
O -0.574245069559514 -1.430967448946578 3.294436523769277
C -1.3867487301034744 -0.504561707481879 3.2152902500780676
O -4.2753954606289835 1.5659109345525064 2.817692633821103
C -3.361294410190501 1.0567557315593523 2.311591053103748
O -1.874480047619258 0.012825892097617123 4.37441705618509
H -1.4864420168728518 -0.43114808665380133 5.157827490318965
Rh -2.081308646203864 -1.9077437648186033 -0.5687515825111714
I -4.555013524122026 -2.5247446823699504 -1.2547315228453528
O 0.07809269647382674 -0.6051186903505933 0.7186464952099105
C -0.268516855923955 -1.613825341685212 0.08362399873166393
O -3.2245031707007836 -2.395309443099855 2.1179650744118645
C -2.6843339804225512 -1.8264930910750585 1.2251041446926223
C 1.2466884690717404 1.9293028054709807 1.0512836168398636
O 0.16462350362705508 2.0258713208665498 1.6590250276682037
I 4.5115261701269 1.5005524144846891 0.03075119449713393
O 2.332631865406042 4.055781095941416 1.1636893470729899
C 2.5598031973042876 0.26932303061041085 -3.4175261901949248
H 2.918550665172001 -0.7034547559906117 -3.705980459125428
H 3.0892369168144524 1.1498475849137624 -3.73598109234462
H 2.6556595138360035 4.846071279296816 0.6803568821090352
Rh 2.2724871167412894 0.242385722617129 0.816366372716483
I 1.3839399675570707 0.40934342417686576 -1.7362239628742842
I 2.743532376335526 0.31950724206807996 3.6069270205293287
O 3.439891611832751 -2.500630892437988 1.1534895985235518
C 3.0619853106323096 -1.4493735691543435 0.8452780685791125
O 1.50665512557059 3.42196722310011 -0.817201468543213
C 1.712288302907566 3.2063314417546396 0.3580363896690857
