20
## STRUCTURE-ID: 645bdb124b7ee57b8032ebb0 ; CHARGE = -1; SPIN = 1
C -3.205081575196131 0.8269653279510762 1.1527462706380989
O -4.335757873535673 1.0721825486309782 1.017294782590549
I -2.0744443702560718 -1.2332711832244572 3.3146749740828945
C 1.5076142451995633 -1.2801711545258232 -1.6816900103036843
H 1.5720490824771458 -2.2621792777463465 -2.143832068997941
H 2.4074883294950165 -1.0475148465230935 -1.1195608979215668
H 1.378891689430438 -0.5476286973539007 -2.4795656099344288
O -0.9085026087066986 -2.434997876687061 -2.4486207176470245
C 2.2221706579846794 2.540150258674823 1.6640110280537488
H 2.4417975680154975 3.4259397258150965 2.2470920513068915
H 1.7128033323983192 2.797659466497318 0.7408815461047741
H 3.117081684029861 1.9613375345852062 1.471279572483726
H -1.7749981416092977 -2.7195464325217817 -2.797610933241122
Rh -1.455612212409347 0.4869025961832851 1.3752872190305285
I -1.0511311217787345 2.270956511004567 -0.5561333265210887
I 0.873347355775272 1.2966681935472517 2.838319937077235
O -2.0534261639118543 -1.443907648279566 -0.7949152883377816
C -1.0026080106689537 -1.7216913716999571 -1.3452299024976264
O 0.31004402636993467 -0.7606050135936181 0.3403840012387521
C 0.3182741068968797 -1.2272486607340496 -0.7948126272047559
