20
## STRUCTURE-ID: 645bdd2032ea92653936ef5b ; CHARGE = -1; SPIN = 1
C -2.8849144261600803 -0.9481714119068736 -0.13325798616131412
O -4.013603462270726 -1.1438693877536206 -0.06389274794953732
I -0.27757436874256775 -0.9016884797714623 2.3850718020361628
C -0.7380058133841624 -2.6181456293117242 -0.507960406323371
H 0.3535112858423976 -2.7172998892081925 -0.4862038642807079
H -1.103892396988811 -2.954918588055722 -1.480254913608161
H -1.1557767459867745 -3.27387647145394 0.2581761392132192
O 1.1957414359141316 -0.17521233042331785 -1.1016380168520212
C 1.8891289042595534 2.5754075929154205 2.674742567482567
H 2.355807192146806 3.361734498269998 3.2517366507736796
H 1.6660934532759952 1.710660179532374 3.2867677282439445
H 0.9957769444501621 2.9328946100996394 2.178208049506217
H 2.1137623442048357 0.1755439005184988 -1.0786136339850305
Rh -1.1122395272796992 -0.5905559332783062 -0.12882357340761175
I -1.3351344207374525 2.117175964891513 0.0433768604393014
I 3.275181495422193 1.9638210434214542 1.1662862124551023
O 0.9175233403484243 0.950323407369623 -3.0264406301296956
C 0.4871304088117456 0.23849106485112945 -2.1587599147142633
O -1.6680834088926049 -0.41341964130395664 -3.022373888863135
C -0.96043223423338 -0.28889449940251627 -2.056146433875385
