20
## STRUCTURE-ID: 645bcb88843cb079f45a483a ; CHARGE = -1; SPIN = 1
C -2.8709323384050776 -1.419428233348618 -0.41997128374576287
O -3.9881517269864712 -1.7261654284106709 -0.25313173980993736
I -0.7979116452587312 -1.3411373791954029 -3.121549605045206
C 4.244879793944826 -0.8442231976082702 0.5264722547705699
H 4.489660466203459 -1.3984606767214942 -0.37972144482044834
H 4.930339954095881 -0.010855255764519308 0.6752923243953178
H 4.303692043527969 -1.5585611595659248 1.3470452331086213
O -2.12101535605315 0.49335343625434286 1.7503789207424378
C -1.933101875092829 2.483485403039056 -1.5434728616711095
H -2.7579448244641935 2.165452638614368 -0.9155628859756486
H -2.022088190097762 2.0531559488766318 -2.5345871013048415
H -1.8638622064309076 3.562559025697765 -1.589233323305337
H -2.262068194462569 0.5725315807330612 2.7136887427678715
Rh -1.1063717988818853 -0.9498030239376527 -0.4507219847249318
I -0.13099004736940567 1.7230402727248484 -0.6639126519539024
I 1.3443154202782284 -2.0630329450906317 0.13725803825709487
O 2.4196058254911907 0.7445140421423249 0.4700470105389286
C 2.888862783335457 -0.33215476001656646 0.4246824157707861
O -1.267388235742733 -1.4629053904410068 2.377533444472321
C -1.4995298476316787 -0.6913648979810245 1.4494664975332594
