13
## STRUCTURE-ID: 645bb9719edd9e5924108f0a ; CHARGE = -1; SPIN = 1
I -2.121849386288801 2.6035403227788176 -0.9522656955808521
C -1.1475145009658068 -0.7649830031826707 1.031397102608621
H -1.4320626154004041 0.1608513547120228 1.5356423225030014
H -0.9143495723151165 -1.5289174588935202 1.772908387909912
H -1.986828857546386 -1.0953588007615787 0.4181240165816832
O 1.3688289074426139 3.072319517273048 -1.2175563964761484
Rh 0.5966203443168375 -0.38099899630428763 -0.22360509345031832
I 2.548252160174015 -2.1111783259326553 0.5012508389851245
I 0.5460125672407223 1.5822115698982542 -1.8935743809915273
O -0.34906530414560427 -2.405030775118448 -2.2297995405149194
C -0.031566691021187164 -1.6260875693121815 -1.4573124514424332
O 1.693541638567208 1.647012268322182 1.6930275642032535
C 1.2299813099419048 0.8466198965210214 1.0217633256645788
