20
## STRUCTURE-ID: 645bbe6ec07fac0d6d099df0 ; CHARGE = -1; SPIN = 1
C -3.2148727569663453 1.6260772648177633 -0.32804285925168764
O -4.35769601394279 1.5862471139910361 -0.39990788417228346
I 0.2266338506954847 3.4763540690250867 -0.18960903544802934
C 1.8037142323228734 1.273495020028098 1.370337253199104
H 2.635563814304731 1.9818648155590481 1.3557567849932342
H 1.1311685456945242 1.5537273634789313 2.177356278179176
H 2.191623652957184 0.26946062560295947 1.545145380943824
O 0.42322256959845245 -3.502595936831473 1.037363073931357
C 0.40376139427681473 -2.009997825316745 -1.2243455707867117
H 1.0113398767967203 -2.879646310576827 -1.0280170170233964
H 0.9895827290900675 -1.2113789999810698 -1.6646946532772913
H -0.4378047894985681 -2.265561867643828 -1.8579788386782736
H 0.2637673489777623 -3.750376931105418 1.9475582891425873
Rh -1.4007397237512738 1.0340837368634652 -0.09148878307877392
I -1.7581285094320547 1.107725149758733 2.5200580806452764
I -0.3395349062369456 -1.3506898980642563 0.6385463193968617
O -1.1150745118666556 0.2749671912567829 -2.9667312154926067
C -1.2166930220753827 0.5774712502334248 -1.8589790597344582
O 1.5862348601623917 0.8810788949873429 -1.0108191820157193
C 1.173931358893001 1.3276952739169128 0.028492638527826273
