15
## STRUCTURE-ID: 645bdfde52344516ee53af9d ; CHARGE = 0; SPIN = 1
C -2.073914838648217 -1.1517209109471944 0.5551429061035349
O -3.1790932705201174 -1.1837749551890768 0.8285654977113107
I 0.39309551348329536 0.5970987262488383 2.442231069102895
C 0.8181532829312813 1.975288434768333 -0.42482818310987003
H 0.6077108088336535 2.052661741007073 -1.4939021239337749
H 1.7662623231588652 1.4702846145044324 -0.25922436858972975
H 0.8953031893218503 2.9880328367862896 -0.01825911042870469
H 2.893310698394545 -2.2214770764431604 0.9233250432288033
Rh -0.2780576961650711 -1.04747414531837 0.12991872180481592
I 2.3699635825588565 -1.5244364003535675 -0.4024310583233431
I -0.5394176386482846 -3.371747954081351 1.6735035293486857
O -1.4918124698253967 1.6611426054740928 0.2310613361425546
C -0.3430946844659586 1.3459907314496633 0.23996749443424645
O -1.1109326794781453 -0.7694392425369759 -2.7491639293794057
C -0.7274761209311892 -0.8204290053689893 -1.6759068241121222
