20
## STRUCTURE-ID: 645bcb0d1a9d6b06f90203b4 ; CHARGE = -1; SPIN = 1
C -2.5647877663847347 -1.4382527732748926 -0.8146749559326507
O -3.6822203861068963 -1.7104810143442104 -1.034267935330332
I 0.33207604823803366 -1.7312611061259953 -2.569221531487781
C 4.30366543630635 -0.9947103271811406 0.3453338472297971
H 4.24019086823285 -1.9120028977626862 -0.24110719619052512
H 5.081111362388048 -0.339118018675619 -0.04594012729075671
H 4.509450666690077 -1.2968493910594416 1.3719331813639903
O -2.485681448504208 0.6134468563696647 1.4506556190786957
C -1.9732048564467932 2.5566989251651657 -1.1851184278096691
H -2.728656608533971 2.120484325524377 -0.5430613517629118
H -2.128559035233708 2.256071307099897 -2.2145924190958377
H -1.9487828119652897 3.6344789484120374 -1.0912572316962281
H -2.96347021027775 0.7157072952020276 2.296168610192562
Rh -0.8866285357991824 -0.9875197008111186 -0.26521117674574474
I -0.07775004920592385 1.7865511067496902 -0.5506891715435485
I 1.3018213397830578 -1.6727418119297108 1.2105837966137467
O 2.664526519589189 0.7422492174455622 -0.08009905579768824
C 3.0344564833824035 -0.3031751089332107 0.2900130681367684
O -2.1171960586658685 -1.407083221788632 2.3020526281090277
C -1.9103609574858507 -0.6324926100813564 1.3684998299592357
