10
## STRUCTURE-ID: 645bcca21159351a915a4834 ; CHARGE = -1; SPIN = 1
C -1.975835553931783 -0.19970717564633308 1.1763357006699289
O -3.0328943585872805 -0.56589286559567 0.8851552676056927
O -0.9864188354014599 0.9100935138220155 -1.6343212355652486
Rh -0.31880304222452094 -0.3009361749289094 0.04522288756059687
I 2.7974213306543145 3.732366231962126 1.9328022633572335
I 1.4480170622062405 1.3698902248173723 0.9397056285266049
O 0.5275697360534937 -0.3375987989083783 -2.82041839882791
C -0.11725403463303362 0.08758816153229916 -1.9040277509048114
O 1.0691175734456044 -2.8459754994370208 0.856420332103441
C 0.589080122418428 -1.8498276176175026 0.5231253054744771
