17
## STRUCTURE-ID: 645bc2b01a626f29637e8a98 ; CHARGE = -1; SPIN = 1
C -2.035119434887079 3.1459885430497363 0.29952879593255133
O -3.0034939187361593 3.7886440212290537 0.30730616641691616
Rh -0.3834205346654537 2.330364729754518 0.17401040993501687
I -0.9040390251354499 0.438883402057893 2.1249486060485068
I -1.2520941379410946 0.7333392058401168 -1.8671332741198703
O 0.9213602309497738 5.026705118214243 0.5363258223259614
C 0.4374833414051948 3.9772271137367583 0.3934652439177849
O 2.487977646553949 2.2404962692115307 -0.4805060768632013
C 1.4801911971320263 1.6052106428790516 -0.13410314869207784
H -1.6133115326030207 -2.628910193279136 0.8067347729265444
I -0.12004613444662525 -2.3634543889378823 0.3465090211133127
O 1.678653615808839 0.2500089692680932 -0.0018082766365343584
C -0.0843412103810943 -4.416098013386626 -0.4772258551334884
H -0.7553950551817568 -4.432305581860175 -1.3304896907258226
H -0.39235191750434545 -5.092518459829784 0.31383451390013545
H 0.9370448765611077 -4.614970210306383 -0.7863224223334498
H 2.600901993071172 0.011388832359004165 -0.22507460801228277
