15
## STRUCTURE-ID: 645bea86b2e02d594f1fda9d ; CHARGE = -1; SPIN = 1
C -1.8457794865016661 0.43407358532605345 1.5729009007398183
O -2.1913654367001674 0.8268630256282244 0.5352102150655103
I 3.101780854500238 -0.015420871392373128 -0.05593226668832563
C -0.22581824157546604 1.041588085549527 -2.2893854576988395
H -0.47455137241609985 0.8959648156856579 -3.3334661622440795
H 0.8322912934753912 1.2473453074524852 -2.1724305436023386
H -0.8358319621306806 1.8113941943939336 -1.8332571149666494
O 0.4466472511408925 -1.8872658440219618 -2.251831120639686
Rh -0.08120308020510186 -0.8040453026163736 1.2288939933878316
I -1.448715537295831 -3.0661421488215845 0.940316353136486
I -0.6416861175721362 -0.8016060354726577 -1.300801714062682
O 0.97252587120544 1.9237369758221938 0.9882421922414693
C 1.027065968536435 0.7532459907704712 0.9737981001908363
O 0.8749812150235048 -1.2801676597566416 4.026303224692015
C 0.48965878051524386 -1.079564118546942 2.971439400448675
