19
## STRUCTURE-ID: 645bbb8bff43f4141a507c54 ; CHARGE = 0; SPIN = 1
H -3.5150398998846066 -0.6894682096233381 -1.794206662071449
I -3.2817700257940006 0.31178737419874875 -0.5912515414667399
C -1.130386475088204 -1.602776050064503 2.074599515704457
H -1.8833366257610957 -1.0850554974306117 2.6749664264348714
H -1.585518879617976 -2.5346946338414558 1.730662430996085
H -0.30972932384570884 -1.8719423366242294 2.743767804684001
O 2.1635184923615296 0.38046297185232714 -2.2200049130610457
C 1.9870998698479805 2.106380320063137 -0.18289257745294915
H 1.4630438264581256 2.770682585726978 0.49226138436839423
H 2.6451502638502387 2.6667386686454493 -0.8345057720098343
H 2.5418731437754754 1.3581274719941911 0.369145258205258
H 2.027173321283643 0.09088255641760128 -3.1322300686625053
Rh -0.5321425832704811 -0.36657847950117817 0.457140944114404
I -0.6945594838317546 -0.3404788718942392 -3.642101638880906
I 0.5555912117402436 1.109019703919445 -1.397662337774353
O -0.20006755049062852 1.7021949840730575 2.611328699970167
C -0.4129181679955324 0.9631123286665337 1.7589993891308213
O 0.2835867621171765 -2.9797972760436453 -0.7616327131286601
C -0.12156787585443364 -1.9885976105341507 -0.35638362910028015
