17
## STRUCTURE-ID: 645bc7570dc988689232ebb8 ; CHARGE = -1; SPIN = 1
C -1.3058721928769712 -1.9549884700450335 1.9360649619912504
O -2.323291671941373 -1.9413793013117033 2.499934727411178
Rh 0.327115559680864 -1.9798263314272142 1.0835104697575233
I -0.21745202060603622 0.32213948918437846 -0.09589263167156561
I -0.7416004652112597 -3.495227455327963 -1.02686980701121
O 2.304324422081858 -2.7333416658158463 3.220717388226048
C 1.449528620443568 -2.462732050226676 2.467123522076937
O 2.750196250168288 -3.004462856545561 -0.19897654572028417
C 2.153591431339371 -2.0306615179426646 0.27197266201600245
H -0.4707048696185117 4.789585913103893 -2.5896863528391405
I -0.2258935887352243 3.330016448325276 -1.8181116452769948
O 2.8742646835689523 -0.8551550469623178 0.31413863446057894
C -2.3614747507361638 3.2657756885514404 -1.5324825642717226
H -2.527360421739127 2.3326978641829696 -1.0077556643312588
H -2.8172864958361417 3.2632260486352824 -2.5170714615415646
H -2.6297279676268968 4.125604247838306 -0.9277187961823834
H 3.76164347764484 -0.9712710042165662 -0.07889689709343232
