15
## STRUCTURE-ID: 645be960e1860e5bde554efb ; CHARGE = -1; SPIN = 1
C -1.769678973887062 -2.159672592163954 1.4343859568086572
O -2.6751537036524455 -2.304792027498724 2.137456984339442
I -1.3491710958729213 0.1970556353622418 -0.8607991883087227
C 0.2081383320218106 2.7372244127037706 -2.1048815112350843
H -0.8132652080790443 3.1209454084194825 -2.087278727945173
H 0.28319899194272374 2.123262051310579 -3.0056349003986074
H 0.9433852965255611 3.5446528461892424 -2.128296753954416
O 1.055133668263897 -1.9159421996944883 2.870120355051797
Rh -0.2503411194036213 -1.9200390190603582 0.46773162535270174
I 2.0482233744958105 -1.590333933013123 -0.7340117284081727
I -0.052677414988782895 -4.602882583317376 0.5435840007028145
O 0.21088334251906665 0.10293822531311193 2.2298709170209716
C 0.5128091972083514 -1.047284358279041 2.265516132272833
O 1.1883694586559972 1.7869821303996303 -0.07219297439175745
C 0.4601458542506593 1.9278860033290186 -0.9555701869072885
