21
## STRUCTURE-ID: 645be8fdc9906d6cbe507c63 ; CHARGE = 0; SPIN = 1
C -2.720029110417621 -0.4069827357485704 0.6020841407047008
O -3.764593861115672 -0.013950177223037853 0.3586544657444236
H -1.2232048613574764 -4.325885076906524 1.3979814360342555
I -1.0069765170042793 -3.2883414062432967 2.5645374833447647
C 2.119090733217039 -1.6846490569213912 0.8668319981782215
H 2.0320556357975517 -1.7274302509519408 1.9514043912616281
H 1.9082871316020926 -2.6818776399785116 0.47469047619474397
H 3.1281308633877356 -1.3956959766036474 0.5719576019455994
O -1.1666083395139488 2.482984677422896 -3.1136546311799154
C 0.5095279106941245 2.702045691066958 -0.9509852961219416
H 0.07995037587021446 3.571656147806753 -1.43009150581394
H 1.5619374604818388 2.587151379020964 -1.1764166772144293
H 0.3367696886099412 2.7006477179180273 0.11800922353610288
H -1.678876113805707 2.090493568924227 -3.8276893469132744
Rh -0.8452926961679385 -0.6981798657645747 0.6406303951225978
I -0.9684315619643219 -2.2610275322796127 -1.5093923451729228
I -0.5071142737097839 1.0661244731911494 -1.8052687468976052
O -0.044425928233734854 1.3953223101688423 2.64301452863716
C -0.36248553599309213 0.5596637056542224 1.923319745556123
O 1.5020836281073415 0.06496236566423264 -0.58355037420086
C 1.1102053715156945 -0.7370323182171497 0.28393303725459546
