20
## STRUCTURE-ID: 645bbf99d5647554607e8a87 ; CHARGE = -1; SPIN = 1
C -2.229439303736391 1.313723380678104 -1.3242226013015133
O -3.0139477993142383 1.422497443003995 -2.1685162517822665
I -0.9898871394647695 3.9336710547080167 0.16250039666640606
C 1.9207968717147397 1.67245878662419 1.293062081229488
H 2.9400517498299092 2.0550800778619296 1.3538884918061078
H 1.2802613108346037 2.2274172081317665 1.9781098539074629
H 1.9134704060140748 0.6198501607178961 1.5847059271806192
O 0.9115342960916494 -3.2992345450433 -0.18263072377853354
C -1.652302547126814 -2.2850847027298586 -0.1079662840055285
H -1.7643082519619455 -3.3595029574662214 -0.025226165689627524
H -1.497650344487664 -1.9961303675577113 -1.1421039114763032
H -2.4861138685896793 -1.754215643754302 0.3345393357031809
H 1.6183066572062268 -3.759202084613656 0.27454075859950183
Rh -0.5169492760551591 1.4120720135660803 -0.5293478642400181
I -1.3554528841823792 0.23036474196839624 2.313734151404757
I 0.12276610652184912 -1.8099063397193857 0.94599080227418
O 0.888771270116735 -0.6885091232248142 -2.1398164886603834
C 0.28951671379824057 0.051958675992363444 -1.4735793862776458
O 2.2071971447587995 2.2034353333735752 -0.9999463494648224
C 1.413378888032232 1.8092568874829489 -0.14771577209509454
