21
## STRUCTURE-ID: 645bebdb9e17c00d3f0dd8da ; CHARGE = 0; SPIN = 1
C -0.9147408650800232 0.9411601753342625 0.6287731370045428
O -1.8406622562225794 0.6692367077012665 -0.0789430977868406
H -0.8957459433344969 -1.8606693176067521 3.037349561170877
I 0.5992976914049768 -1.4019073403401796 2.714117696014279
C -0.884846408832056 1.9540757597499832 1.7257681498754314
H 0.11398696023594265 2.1189775028266986 2.1287387803733084
H -1.5477849774287225 1.6121455574105181 2.521072735289977
H -1.2798193839862229 2.890329230645072 1.3305209568290945
O 2.453096705308117 0.3714063189530605 -2.7628072585140724
C -2.161722066916199 -2.5525179872983097 -0.7092246108769404
H -2.682324695753411 -1.6386911688215606 -0.4453830036359617
H -2.032028755019923 -3.2133595588166735 0.139906876647814
H -2.651805841974603 -3.060090868511319 -1.5313286239998753
H 2.93131047206202 -0.3625045716039978 -3.1896029193359254
Rh 0.7475044740857357 -0.05842118629913355 0.33399228004950593
I -0.18461073215824075 -1.9627950397205993 -1.4012254509848865
I 0.7264947101030191 2.773060642637325 -1.9493691820774397
O 2.0179577018378314 1.6178739982397683 0.4863454620863741
C 1.7944700239255238 1.359744589861892 -0.7198128910945204
O 3.163758945958274 -0.5252708840671662 -0.8190620361970633
C 2.52821424178504 0.32821743972586276 -1.4398265608376686
