13
## STRUCTURE-ID: 645bb898a3900912d6554ef3 ; CHARGE = -1; SPIN = 1
I -0.8023674781297869 -1.0776236445708418 -2.241258309976061
C -1.9729376236265668 0.45049696510157483 0.3644977667309331
H -2.836211490940976 -0.21192027993295304 0.2669019162039878
H -2.068805848925613 1.2761029919493372 -0.33932962834976793
H -1.8954484300792755 0.8351190621555917 1.3930421279752856
O 1.2287940777462165 -1.9557153251169481 1.4064328729372175
Rh -0.22009016462612044 -0.6183516246301719 0.22420465226434974
I 3.269625682340319 -0.724018174524939 -1.0274585381314405
I -0.4646570500976597 -2.862434591076407 1.6970221476100478
O 1.1329268716433138 1.4634378334627192 1.1838365449716273
C 1.0233970361158107 0.843765710022769 0.14586624621432817
O 1.765413004849236 1.6410259946001646 -2.013981511026354
C 1.8403614137310753 0.9401150825600805 -1.059776287424148
