15
## STRUCTURE-ID: 645be4cc946099152b52ff50 ; CHARGE = -1; SPIN = 1
C -3.2261512943787247 -0.01360945376823349 -0.34702483077448854
O -4.3691039563236815 0.021417965871913115 -0.3309563505960809
I -0.36086719133479567 -2.6324481410418565 0.7838163403012496
C 1.9630508169240055 -0.0060862171809057545 1.3181289135079122
H 2.3913540860423694 -0.9940567758057577 1.4912814797830132
H 1.2618452715676496 0.23757075745357542 2.1143542929386143
H 2.7602333247727002 0.7415274874670392 1.322972518534982
O 1.0414571526648606 2.269975104200802 -2.06250895602271
Rh -1.3501309534002948 -0.22595098039959685 -0.16053599140048405
I -1.5354215338170791 0.9576726914558736 2.1983232171679905
I 0.23525619881534468 2.055070192365267 -0.4362267333902927
O -0.8322955862445894 -1.204229101747191 -2.9216901440944163
C -1.0950150161022856 -0.8415200666169533 -1.8669408085340418
O 1.74886906665365 -0.39523435128863893 -1.0746507709709514
C 1.3669196141608735 0.029900889034655084 -0.02834217645032056
