20
## STRUCTURE-ID: 645be2bf8516be7a6374b444 ; CHARGE = -1; SPIN = 1
C -2.087786006218462 -0.5011681985166864 1.2223073435339809
O -3.205730667665734 -0.35925117263868817 1.3989748089707355
I 0.5979797511367213 1.379793531782603 2.0830127127141256
C 0.02020157499277568 -2.016358162963224 2.4443960514513723
H 1.0499071490421392 -2.3807370738482487 2.4271708017486606
H -0.659591320644397 -2.868656971944471 2.392273773021764
H -0.15314118429327847 -1.4738630816819125 3.3753256972485812
O -2.0752414792024405 1.6899405485898653 -2.073803648555993
C 0.4896876112200504 2.504864125273388 -1.8862516741449786
H -0.00840359090788898 3.1207744282259506 -1.1472651585374358
H 0.23965948564342343 2.832119130988919 -2.88658392120942
H 1.5596750966881938 2.4542138715154618 -1.7189765939385255
H -2.8114458245535725 1.1767476239410724 -2.409641006932155
Rh -0.2708211492793776 -0.7658200888104659 0.7697111180338072
I -0.8032083598107566 -2.8077527097548662 -0.875672856317539
I -0.26204314388816835 0.5401610188581634 -1.6629250745626556
O 2.394822975950005 -2.042768119721537 0.31277276350610506
C 1.6052149605889645 -1.152684886821915 0.07437952514664768
O 2.6324837640099683 0.7558088121024102 -0.9105940415136007
C 1.7477803571917934 -0.08536262457583162 -0.9286106196634857
