12
## STRUCTURE-ID: 645bb3a63d3f6d3fab2b1b64 ; CHARGE = -1; SPIN = 1
Rh 0.31679111605851107 -0.2903101235488999 0.770600251617108
I -2.1529145075234264 2.9188954249565944 -0.20560699596956733
I -0.6316310241465035 2.045493054493896 1.859235754740784
O -2.4139891764558365 -0.7723669171186575 0.026930035294092106
C -1.2496702142619058 -1.099982607662229 -0.024105056570235726
O 0.2906807063110239 -2.856868120462012 -0.850945136338787
C -0.12176832019982219 -1.85643583057811 -0.29600227405110596
I 0.8715496584353866 -1.4867118999575213 3.05007311894999
C 1.1331099589412639 0.7015785640905176 -0.8751054857191672
H 0.4377397273841986 1.3425775360361896 -1.4242269567134218
H 1.5966177798965375 0.019978263474305615 -1.5950579658748625
H 1.9234842955605804 1.3341526562759207 -0.43578928936482647
