13
## STRUCTURE-ID: 645bb8fa483d5b51e75a4846 ; CHARGE = -1; SPIN = 1
I -1.6646793888541938 -2.7221883937930498 -0.2615571877953732
C -1.421816745229174 0.6987658611242519 0.2700471881777791
H -2.034391545241329 0.781698737359437 -0.633780067992057
H -1.0238550958075359 1.6860781818588182 0.5248018312482382
H -2.069634491301309 0.37505589878590134 1.087493418640057
O 1.3419343326365174 1.199428040767244 -1.6616690460420553
Rh 0.11911785823919557 -0.6856940037061197 -0.13963140668318078
I 2.3772844626901373 -2.0842729762715337 -0.8060242424899763
I 0.11011600350167962 -0.08040234719685124 -2.8639666032387048
O 0.6350529946090997 -0.8066454217154719 2.774834339348594
C 0.42399655335353115 -0.7428119301309263 1.653974317877191
O 1.9063439126921704 1.4938724115168853 0.4573233848456401
C 1.3005311487112097 0.8871159414014176 -0.4018459258961516
