15
## STRUCTURE-ID: 645be461662fb54f86554eea ; CHARGE = -1; SPIN = 1
C -3.0473358853519046 0.8520530595187595 -0.31988466059082565
O -4.0382613140904535 0.5802819918810189 -0.8440216542947299
I 0.9137042824238601 1.846540846737102 -1.0121176331693318
C 2.2036870136863054 -1.7372500812080331 -0.742104122708557
H 1.376383078510037 -2.0226360884238592 -1.3959630306475181
H 2.739834543759603 -2.634759525435076 -0.424977173405697
H 2.899497812276629 -1.0850818887546998 -1.2736534298170519
O -0.7870186898636249 -2.1457836767878904 -1.1371356515360884
Rh -1.3934078467489093 1.2496604547555146 0.4353858499812721
I -0.2907212188130662 0.7849551176808168 2.942013168987356
I -0.6747613766667321 -1.2543969398528467 0.45951154021853957
O 2.192840582028794 -0.533376392404552 1.379385771925568
C 1.7401845320689646 -1.0596619812228087 0.44416372570682616
O -2.0206985522030654 4.13913359842147 0.820255705339371
C -1.813926961016416 3.020321505095099 0.6691415940108411
