20
## STRUCTURE-ID: 645bdba49ea4f9452c315fb0 ; CHARGE = -1; SPIN = 1
C -2.4893203169489526 -0.7684287174699105 0.2933612777743151
O -3.545765679153212 -0.39653816449553086 0.009480776490910172
I -0.8882615670334622 -0.3006425679751128 2.992631361088984
C 2.2649543295358083 -0.482843697736397 1.4890416132578528
H 2.1525604334162636 -1.1338507741501849 2.3535890031320745
H 1.9645641958338507 0.5245867382228341 1.784130564995218
H 3.3034373240533554 -0.4559508257791566 1.1601347970038582
O -0.46541332890704395 3.6332567100853397 -0.700767126144986
C -1.0558291932801098 1.3676869028587995 -2.107500775619091
H -1.0835994974147272 2.382608665328164 -2.4751356430386044
H -1.9942354183952442 0.8529921879147543 -2.2812628664625043
H -0.22788083283321728 0.8155039444698385 -2.536957109015366
H -0.28650267393055084 4.210011268894193 0.04247767293026513
Rh -0.6603110281529491 -1.228042971729863 0.5110670819532934
I -0.9485615578488898 -2.3156227271121237 -1.9616375923619658
I -0.7426255377332074 1.4920678472438391 -0.015365866094526939
O 1.8220113014035655 -0.8872732203311907 -0.8040802464010355
C 1.404260905059175 -0.9224929997093309 0.333769960306605
O 1.1178819831363038 -3.6262753999823807 1.0048934513974153
C 0.35863615919033187 -2.7607521985455525 0.9081296648060921
