20
## STRUCTURE-ID: 645bccde5640e60c6e2fb203 ; CHARGE = -1; SPIN = 1
C -1.5873082487231351 1.8294905124069818 0.16095901052071884
O -2.5348477635290925 2.317086827291938 -0.29460699532681556
I 2.7499987730233455 -0.7273175571135454 0.5964572621885246
C -0.705786772442116 -3.1555585159904798 -0.7205133891517371
H -0.1101310023722126 -2.868898165985082 0.14213125209321292
H -1.387955913818528 -3.9437487970561773 -0.4100182257862522
H -0.04960666879939548 -3.5336324691516348 -1.4990408648869964
O 1.6436218479392035 2.4439273993013746 -0.9663162028548463
C -1.5277415220310206 -1.9921992464371214 -1.216087434467668
H 2.2710462180194297 -1.8265047030800001 1.627867621355454
H -2.1532503016648783 -2.2599491598544774 -2.0624850895260924
H -2.1321164314827774 -1.560371909301771 -0.42198386437464375
H 2.0195271132679653 3.1647178571059023 -1.5102022398146344
Rh -0.0054992340317978625 1.4379586537292417 1.0393890816431437
I -0.9780735126761319 -0.5160624948719348 2.5060021339133085
I -0.27362502271248734 -0.33114902601669893 -1.9477879335984376
O 0.5533009150418434 4.122155560783154 -0.00469217005452949
C 0.7531991226021296 2.910014709513252 -0.04824686385632995
O 2.089774091704658 2.5434429140504804 2.855607484453771
C 1.3654743126849846 1.946597610676589 2.173567427530836
