15
## STRUCTURE-ID: 645bdf623b6d4428550d4d44 ; CHARGE = -1; SPIN = 1
C -2.777890404213954 0.4799468820418231 -0.19183949493966543
O -3.88651238312594 0.24665441822487366 -0.3336941924319399
I -1.1495425768434075 -0.5294734539386681 -2.795210966695803
O 1.7173765283400344 -2.1006728808942183 -1.1963384490192863
C -0.46059929850235004 1.4187097101560402 1.4490012186583414
H 0.5267887553398454 1.273546557996601 1.888224675631091
H -1.2245623417748484 1.483906707981431 2.221082685242719
H 2.2353801143968464 -2.9061777663087742 -0.9948751254572169
Rh -0.8524330239448744 0.34191106029750185 -0.25138178859470983
I -0.4761062193630197 3.231765478677912 0.30802452962174315
I -0.9468374541447643 -1.8599092939788464 1.2269661410324513
O 1.6290569039627651 1.1177845495242744 -1.0207524884045007
C 1.0816532300934643 0.11540938012572009 -0.5922138014882112
O 2.672020329835376 -1.1814980012325662 0.6128127901928696
C 1.9122078399448073 -1.1319033486730907 -0.32980573334789676
