15
## STRUCTURE-ID: 645be1a9cd60fe0fb747e4ea ; CHARGE = 0; SPIN = 1
C -1.8334837794767762 0.008834607105694352 -1.523829726466825
O -2.869111066965807 -0.5066692413655279 -1.4937418583218107
I -1.385353183760025 2.26501731827057 0.5736207368862088
C 0.621297728858974 -0.6256497773408762 2.009387383027502
H 1.642097524204373 -0.8430841596897904 1.6889537720758074
H 0.35071872726524317 -1.2941763682216316 2.827814987486936
H 0.5872156269112384 0.40682361397478717 2.362002807063276
H 2.076856224877638 2.850445339026585 0.49800581998706184
Rh -0.12482928671138627 0.3763959775694243 -0.7574789308555852
I 2.394070641499608 1.5621699211958162 -0.37592346695447654
I -1.3232849571112477 1.3619913477898944 -3.454790144682406
O -1.204086959264039 -1.6648100767282608 0.8381382973185005
C -0.3363918989497762 -0.854648555093628 0.8960017967781291
O 0.8469512124692403 -1.9625613549732737 -2.3716472184488167
C 0.557333446152733 -1.0800785915197697 -1.7165142548934882
