17
## STRUCTURE-ID: 645bc2b03acfea447239f2a0 ; CHARGE = -1; SPIN = 1
C -1.8197215136454161 2.378513438304535 0.1632032867980033
O -2.0468704750148863 3.5213991786172536 0.3065164921836409
Rh -0.16759841690215868 1.3654650985495318 -0.3130127018966804
I -0.8613284111444133 1.5088016980500822 -2.8455423766186785
I -3.9990099996263178 1.1160451567545022 0.33599858824261936
O 1.106930301182731 1.7602478623031887 2.3535315796310736
C 0.5835777646292065 1.5469593196352946 1.340578782357375
O 2.5702511098018084 1.3754240488707121 -1.2154900732628293
C 1.5812201061536362 0.6828493365348905 -0.9736213443192034
H -2.085957392592356 -2.617266428667354 0.2223060249997382
I -1.274705992155083 -1.1450571255051996 0.10024328244865499
O 1.644637546601999 -0.6436380564067294 -1.255728523556864
C 0.38184138594012573 -2.3613716199912327 0.7904963547733189
H 0.6854516554036668 -3.010410843739709 -0.02226246508553263
H 0.036696634693772774 -2.9135980448190097 1.6582368815886004
H 1.180585712107362 -1.677170992802622 1.0497915864954102
H 2.4839999845663323 -0.8871920256881365 -1.6952453747786487
