18
## STRUCTURE-ID: 645bb34a64c2742d570fad20 ; CHARGE = -1; SPIN = 1
I -2.268972670367869 0.9706082478888264 0.7031104460121965
C -1.4979954163842233 -1.9164308453913623 -0.8294256109249687
H -1.1407797369850663 -2.678303563918691 -1.5271589474909986
H -2.585825743921031 -1.8644053292027396 -0.9160095826439295
H -1.25143487869017 -2.2361987712911318 0.19207794554976018
O 1.482531717840307 -1.2769375725784933 -0.06914333640391782
C 0.7611631701245433 2.469042444363682 2.989876129296144
H -0.321474206879823 2.49202294575783 2.9799850012831763
H 1.1586375076967892 2.885371835891041 2.0723836451862256
H 1.1587637699747786 2.9794456795194715 3.856277594581979
H 2.323973977519953 -1.7710006158991012 0.008756664024304292
Rh -0.5711842639376025 -0.05531201740798474 -1.0533231378343564
I 0.9680725396050539 2.1623805316152405 -1.160643943048598
I 1.3697930241489653 0.4197628778003949 3.1003066420156955
O 1.6497568776045048 -1.5049402848105558 -2.2998558913065494
C 1.0744522689886107 -1.0900504304265763 -1.3255488075641735
O -1.3289707876825234 0.06178095385260177 -3.9065780661797085
C -0.9805071486552692 -0.04683608576243491 -2.815086744552394
