23
## STRUCTURE-ID: 645bcdfa148eb228e0315fad ; CHARGE = -1; SPIN = 1
C -3.356397230502897 -0.7023988356686915 -0.2138221091467439
O -3.9529001470878997 0.28149088226696994 0.014936933087149721
H 2.4777920431359295 -2.9203035070603427 -0.6896398603093733
I 2.1924446622381772 -1.3721992681587236 -0.3500365791315044
O 0.11675265680496881 0.857147930887 1.8037635586933964
C 4.400974010328229 -1.3788618112827737 0.11179213238861117
H 4.910560002629187 -1.6679196902751512 -0.8047474816103223
H 4.55989211367356 -2.086460981634607 0.9222800343991716
H 4.67462502128637 -0.3716239942112512 0.4106460452554511
H 0.23378472406393752 1.6144618514610836 2.4110099276446157
O -0.12183532195758436 2.07992560053046 -3.0928968875469938
C -1.6538132224251727 2.243485840589966 -0.9654437473561606
H -2.1754989312381956 2.6299032656060453 -1.8319237087892448
H -0.8697513173513731 2.9348504818360497 -0.6786558285250308
H -2.3467181053623687 2.0895071244824273 -0.14443349842216394
H 0.4204727836893968 1.722399097437628 -3.7979408314252887
Rh -1.4135183148963713 -1.1082508795758312 0.5237190357082335
I -0.6228644257976274 -2.8417220497140403 -1.323057683268879
I -0.8144779651600422 0.42453710748760193 -1.4955750359484918
O -2.0489891278491217 1.2472455105547835 2.150566017891248
C -1.2011083097008173 0.5214770126614066 1.6332103256978447
O -1.798014996133481 -2.245862287342863 3.2558499713012723
C -1.6114106023867585 -1.9508284008770984 2.1503992694131155
