12
## STRUCTURE-ID: 645bd6962970ff7d3a315fa4 ; CHARGE = -1; SPIN = 1
C -2.2176061952915185 0.549813062146144 -0.003562121597292595
O -3.2961475812560477 0.6683389321636102 0.3550384309319396
I -0.23940636954492603 0.13305426892351804 2.56500920688008
O 0.061856006138027414 -3.7372411074373884 0.18361610711228232
H 0.5975611339921585 -4.453635274071272 -0.17592006900717466
Rh -0.2754123986677791 0.5273772821005361 -0.08917561603500847
I 0.024675029622771898 0.5843180325673302 -2.768616410167757
I 0.1334727534736117 -2.144590737959704 -1.0263027960997915
O 2.7484688280866587 1.0464018653121383 0.2366394836336732
C 1.545731879956191 1.1618382861087533 0.1325915363325251
O 0.3081226784527349 3.4029111074021983 0.36689142191971286
C 0.6086842350377785 2.2614142827441106 0.2237908260967889
