15
## STRUCTURE-ID: 645bd74627e75d22002fb20b ; CHARGE = 0; SPIN = 1
C -3.2148743934080155 0.8891908673016526 -0.05657198689077859
O -4.323035558541165 1.136935006002645 -0.19165926574153494
I -1.9623054486201112 -1.8260580799986073 -1.0587130952934563
C 2.7645135953132773 -0.7389998169910644 -0.713386466860093
H 2.916380265931036 -1.2471015863288877 0.23873167077022728
H 3.558207140187777 -0.014346282035319019 -0.8966705327099268
H 2.8056782394277824 -1.4626091400830181 -1.5308536564854078
H -1.1167559734344055 -2.4607174729198986 2.4498759657675975
Rh -1.4486014033840175 0.44221751757542554 0.11962772238676353
I -1.19810928890185 -0.9825796186006026 2.9974237589776114
I 0.9947522942813207 1.101210808783107 -2.495857913836402
O 0.6096526391578417 -0.1294867988139841 0.12569829086460096
C 1.4573518022425591 -0.08263421997302987 -0.7210300002542855
O -0.7992665771987387 3.2228966853356713 1.0264736407654655
C -1.043587333053233 2.1520821307454963 0.7069118685398362
