13
## STRUCTURE-ID: 645bb9e6c758620b426df39a ; CHARGE = -1; SPIN = 1
I -1.4839478834167303 1.5046965303826327 -2.57200053573122
C -0.1757754390753273 -0.7972233141722694 1.409708957190466
H 0.41610282427913825 -1.711858358981891 1.355594915215447
H -1.1780913798700818 -1.0422970158380633 1.7746989762161545
H 0.30291413379784454 -0.09719923386143932 2.097622151536104
O -0.25615903167023374 2.013818227678324 0.4466668194558628
Rh -0.4641253150462356 0.14903827067579717 -0.4701959710537865
I -1.590073255068508 -2.0880998502697077 -1.2510688153461247
I -2.055279418154444 2.0971698098318714 1.137127883397474
O 2.3392308147890786 0.5997531627574851 0.5019755255354076
C 1.506106556938939 0.24887865053071007 -0.27984401464286757
O 1.4591355291425367 -0.6505829639610553 -2.6136369040355985
C 1.1799618633540265 -0.2260939147724012 -1.536648987737317
