13
## STRUCTURE-ID: 645bb5670275901808507c5d ; CHARGE = 0; SPIN = 1
I -1.3844223813809624 -1.2783873393788205 1.823600365401043
C -1.35774727862622 0.5233756620071017 -0.9765240085456007
H -0.8921885100443272 1.2037137739643156 -1.7004910462595648
H -2.2482831242630477 0.9620756089457232 -0.5266151328786014
H -1.6179339189167747 -0.42222856899287675 -1.4522296009876325
H -1.2815915583323467 3.514460964940748 0.6559817397133278
Rh 0.16799820326629641 0.23656420086990987 0.3858189653933909
I 0.04585822343572689 2.857854583148993 1.2351355262943613
I 2.743702351399393 -0.3482036629348796 1.6833599863143396
O 1.6896988901066146 -3.067189977239243 0.8219842282361547
C 1.7462785567179524 -1.9611402193241074 0.4236361759189306
O 1.2845108857334415 -1.0694160702919053 -1.7788242715057165
C 1.10411966090426 -1.1514789557149678 -0.5948329270944213
