20
## STRUCTURE-ID: 645bc3d543e9fa6bd6732d34 ; CHARGE = -1; SPIN = 1
C -2.2627791614891817 -1.984081244367835 0.0065042622318174205
O -3.2618925401410492 -2.390154150731196 -0.36739122721304096
I -0.3432048134787503 -2.3373613006677223 -2.670230396014597
C -1.506717861709243 -0.3068042253833151 2.6661037677785226
H -2.5563586992111644 -0.3313402215183122 2.372511912049576
H -1.2163407485625433 -1.31255312635516 2.970150477461518
H -1.3731429091798555 0.38441719454381107 3.4979495172540394
O 3.9198034209528614 0.9739099350291073 -0.963019262648021
C 1.4000212593029018 1.70803107810848 -1.6961418368961938
H 2.3176209389571314 2.2422454246348886 -1.891448956384019
H 0.7227801105920002 2.3022968433771496 -1.092236093038176
H 0.9298546666858581 1.3962883974460067 -2.6230501383375864
H 4.626726505959455 0.4631043555118607 -0.5682879699514012
Rh -0.5793495513729725 -1.005318254945733 -0.1792588418160055
I 0.9929988549852612 -2.68536685794919 1.1583554726249154
I 1.9315325421816878 -0.006073727338258052 -0.5881078726113473
O -1.7524089816142732 1.1553715854275666 -1.8867184343495818
C -1.2738862703867078 0.38153333668469935 -1.1839281572087714
O -0.047111495878786276 1.1928343182940233 1.525774741066239
C -0.6681452665926263 0.15902064019913306 1.5124690360021034
