20
## STRUCTURE-ID: 645bd13ab16eb20239600694 ; CHARGE = -1; SPIN = 1
C -2.3135179180448695 -0.014303470066765306 -1.1280996770333396
O -3.4626045707956776 -0.01411401766248361 -1.3504688901217679
I -0.06907170632401208 1.6081800421310561 1.6441847121494841
C 2.748684470425605 1.191380520870922 2.9326521149680826
H 2.276664035473445 1.6570158970211148 3.7968401771635043
H 3.0869088050310474 1.9995222564712278 2.2835173986742343
H 3.5884559984637936 0.5622973674502911 3.2230645023239286
O -0.973322260311861 2.8455443569991785 -1.561924142544003
C -1.4986459134788441 -3.534453583591233 -0.8077574341482102
H -1.1381142643877873 -3.673788685930565 -1.8202094984797725
H -2.464669305462622 -3.0418370502768908 -0.8177939474258612
H -1.5450056841842992 -4.476950166221872 -0.2772576998487501
H -1.1530677437355736 3.577627349158572 -2.1834569807494306
Rh -0.5024775711012427 0.14624517753949123 -1.0056070362622782
I 2.054841343379265 0.5159998467521505 -1.6360972645677927
I -0.1159843411348787 -2.250038354277234 0.2211981100507471
O -1.134393987965419 1.6270558524796774 -3.418070468302324
C -0.9151357699114524 1.6433145507861644 -2.206710227769877
O 1.7586249017532907 -0.7511252013156295 1.896877199697966
C 1.771831482312066 0.38242731168290534 2.2151190522254445
