15
## STRUCTURE-ID: 645bd8b18a4de73518732d43 ; CHARGE = 0; SPIN = 1
C -1.395205773334592 -1.0627373966717895 1.55932000172494
O -2.191552006728773 -1.656637646577847 2.1377658485039244
I 0.13638254985845624 -0.8255854441961441 -2.132769341244696
C -0.33937763732227866 0.9363519837476606 -3.335214728365734
H -1.3741794934462819 1.1977939450523172 -3.1414279426225864
H -0.1890497435189679 0.6649917179398377 -4.373569566493757
H 0.3332843210294225 1.7323332842283452 -3.0350584851446274
H -1.7481751048958623 2.9181522592043043 1.4910288265312717
Rh -0.229202810940774 -0.12418045353566028 0.4908400795350221
I -1.2463170132030073 2.441890016410108 0.07293723746488247
I 2.0208401352459022 -3.2499627434331013 1.4397162010325828
O 1.1909733497575887 -1.484193503456773 3.712092795716444
C 1.4795613683174524 -1.4095471295365891 2.5607231426774186
O 2.181022300696751 0.3225479243511085 1.0070829672028145
C 1.3709955584849398 -0.4012168135257897 1.5465329634820728
