23
## STRUCTURE-ID: 645bd3f51873b333712fb1fd ; CHARGE = -1; SPIN = 1
C -2.439334456922309 -2.1517357459935775 1.7444593089131242
O -3.378867864022393 -2.8155973475674645 1.4946684806788135
H -1.121746913419208 4.01832858955632 -0.5542508750957865
I -0.3086176624146643 3.1984273193200408 -1.640973175712317
O 1.899219871258065 -2.3852199507998106 2.8581542733489584
C -0.2868817977831991 5.201491468636929 -2.7917018497251647
H -1.3217078838270317 5.476329238037668 -2.975667571692599
H 0.243299561296698 5.014886072614792 -3.721763385373073
H 0.24162956673495306 5.92259475000632 -2.174266298823032
H 2.870319590106211 -2.3289966541721614 2.757064827615454
O -0.15986397942037084 -4.283184345090286 1.2395654294804013
C 0.636763231540768 -0.026459381686809173 -1.4044225935432169
H 0.3342396878275568 0.4476560191180949 -2.3327783940730282
H 0.501306894481708 -1.1002078319833408 -1.4548579910021815
H 1.66733297366988 0.18849019706844308 -1.1435228793236603
H 0.02792939096944848 -4.953795124428468 0.5510448360564022
Rh -0.7076712212468084 -1.5655627658701938 1.9348891974766627
I -0.8941772241271754 -0.021575752464013213 4.1196795847579635
I -0.607497164165298 0.6524489949171569 0.2232118984371976
O -0.1932845545485448 -3.0016684715275175 -0.5671907915211404
C -0.3136093207873337 -3.0366087338989227 0.6694330290780143
O 2.039940585088047 -0.913257827634638 1.2067266804487315
C 1.271278689710991 -1.5367827161585728 1.9624982595934828
