17
## STRUCTURE-ID: 645bbd099101380b2b5a484e ; CHARGE = -1; SPIN = 1
C -3.1147445081598795 -0.39339079205478106 0.6824073128791572
O -3.775023728434077 -0.7523933406610737 1.570163354602477
Rh -2.160635186801586 0.25226191437951023 -0.7564135200618856
I -1.989055698718113 -2.3065803049676363 -1.8869762681831486
I 0.15964361601788535 0.0009710976009082169 0.529324017972216
O -3.774783352058534 2.625058911356222 -1.654493341518789
C -3.222360345154307 1.6871234164128952 -1.2234817727493568
O -1.4539002211860086 0.8551920583739682 -3.5332544327883255
C -1.2491586272925488 1.0742056671355007 -2.3354562512951396
H 4.29989599995626 -2.9543204649971773 1.4778509950932004
I 2.9269723786145234 -2.1577513010335894 1.0138035336980615
O -0.33353310930785346 2.066531595292136 -2.0592621801929387
C 3.3709120847482223 -0.7574871054873261 2.6012194841438587
H 3.332342014728361 -1.3114713394207576 3.5334120010567154
H 2.5796946056864942 -0.01867792442608646 2.5344687051033374
H 4.345431192977272 -0.33015779263255873 2.3883244095189706
H 0.05830288438388053 2.4208857051298462 -2.8816360472784255
