15
## STRUCTURE-ID: 645bea15824b7942bf60069d ; CHARGE = -1; SPIN = 1
C -1.173621112170377 -1.0530884378287317 -1.5942185379091327
O -1.8480092675799813 -1.2337430134836482 -2.501972260643746
I 0.08950692298138618 -3.6864230037843515 0.04861852860038369
C -0.7413476839612649 2.021126565202991 -0.9371630898490154
H -0.5787880356573265 3.0565320113228496 -0.638375075260012
H -1.808085194509707 1.796646151314636 -0.9307971174223677
H -0.36673416803431974 1.8660112303259215 -1.9493732249464173
O 2.712754380543965 -1.1371943438073593 3.5422366021163962
Rh -0.09983272700069053 -0.8973673535433857 -0.14806968814947127
I 2.058002402036579 -0.6098315887167562 -1.7012267102855576
I -2.215719895703568 -0.6788894952679956 1.4724347159817783
O 1.311551004789545 -0.9903015201478393 1.7427488734252117
C 2.0151844184211556 -1.0626473300580803 2.645747600953509
O 0.6621395892304943 1.4866745750918307 0.9347899066706495
C -0.017000633385902516 1.1224955533798895 0.014619476717810135
