9
## STRUCTURE-ID: 645bbdb6c42b7813ab32ebb3 ; CHARGE = -1; SPIN = 1
C -1.58007023040124 -0.0821202650761369 0.8060197823945412
O -2.5906285032222587 0.4671914776848543 1.012654354578456
Rh 0.23160736183929587 -0.03746624021194596 0.16146609584998212
I 1.6237294306793526 -2.3439885345169085 0.7849449948203369
I -0.40596691816973357 -3.3735333955073115 -0.8637679872021505
O 0.11838290795088385 1.0974589312372867 -2.604160916778316
C 0.310110612362687 0.3599695038876268 -1.7181191610566329
O 1.1555515913579295 2.5298712290653786 1.3228690917698533
C 1.1372837476030688 1.3826172934371566 1.0980937456239352
