15
## STRUCTURE-ID: 645be3e31965ce13fb52ff50 ; CHARGE = -1; SPIN = 1
C -2.8499818871043634 0.4897339474689566 -0.16290094744625638
O -3.938507316792007 0.27020218901050186 -0.4457064754326471
I 0.4305040772954657 0.7736212069367008 -2.2099765257197177
C 2.229423277717885 -0.8705611624091286 -0.062470183675929374
H 1.5649650981976284 -1.6810076459270382 -0.36046236239818724
H 2.674639359703879 -1.096940417175454 0.9087434566614753
H 3.0203335992267317 -0.7728051012206346 -0.8112129833115816
O -2.519491259928016 -2.172323091267809 -1.8781999734716934
Rh -0.9844637431431216 0.43151702292779937 0.25917381221732533
I -0.06379909199066644 -0.6322951790622297 2.597731915028104
I -1.4471616020508633 -2.089918713525798 -0.35826387019529615
O 1.8942343651949676 1.4751310466120735 0.4838780788877849
C 1.5712102551776048 0.43510587467360695 0.030025180509660545
O -0.7545321698330097 3.261364946114055 1.185758931160619
C -0.8273729616721105 2.179175076844355 0.8238819471863776
