15
## STRUCTURE-ID: 645bd7b10c21d2139b554efb ; CHARGE = 0; SPIN = 1
C -2.68517634345277 0.5444491160139214 -0.9472586692640489
O -3.305852055181228 0.703046762953107 -1.8944392270220167
I -1.7171935212413862 -2.269190471619835 -0.2675843180601771
C 2.7644333064259032 -0.5961930519015337 -0.8321901954791552
H 3.17121344929976 -1.0547419009777703 0.06864279692878214
H 3.458417066707825 0.136181368433432 -1.2438733469845957
H 2.616082859789334 -1.3564182672724665 -1.6018298942386682
H -0.724778108176481 -2.068401415558372 3.0239433423631015
Rh -1.7278539233442929 0.20025780229790133 0.5851224899260501
I -1.1467998508356738 -0.5410431324895105 3.154368430751658
I 0.5832819822200824 1.1206172372968508 -2.2391356656862507
O 0.8481591467405056 0.040955046017517135 0.4752795124309322
C 1.4820438005383492 0.031212142554043636 -0.528149790913701
O -1.8267762347799692 3.117695713424811 1.225774969487435
C -1.7892015747099492 1.9915730508282201 1.0213295657606574
