20
## STRUCTURE-ID: 645bbde1e5cb11698e2fb203 ; CHARGE = -1; SPIN = 3
C -2.3278602770080203 2.494576217375735 0.980739570650688
O -2.787742089577886 2.655547072839234 2.0493914339133936
I 1.8743670851097525 0.5782506094117208 -0.6940136839903848
C 1.8198941393410335 0.34562395818273883 -2.8719163747211964
H 0.9669312685746793 -0.27839799353409894 -3.1173085927986053
H 2.755431036810618 -0.11347477196087528 -3.1683320784439846
H 1.700147574930027 1.3324223018775176 -3.3038036502045953
O -2.1494536596043985 -0.219008977381258 1.9037107213806677
C 0.747169135264723 -2.9994119477690178 0.06245551027762398
H 0.4984729795434007 -4.007696457883269 0.3666096400277293
H 0.913611907227447 -2.361639220378075 0.9234812677789691
H 1.6044984044958597 -2.982151759303762 -0.5981257399535487
H -2.1604185792774686 -0.9226630948329972 2.5868311338791843
Rh -0.6987104930501555 1.657026310748638 0.24213452178405082
I -1.4673605424048524 1.9553049840588899 -2.3166697959507188
I -0.9355110062998881 -2.202363151968041 -1.0151849488322664
O 0.04909122223286661 -0.5214272716811877 2.0320899106502734
C -0.8884387025218634 0.09549172870102433 1.5273459765666493
O 0.2653185347118757 2.867507569872436 2.777542681435368
C 0.220562061502246 2.6264838936246213 1.6330224965506879
