20
## STRUCTURE-ID: 645bc427ad77f0342036ef44 ; CHARGE = -1; SPIN = 1
C -2.075152112130097 0.08863123892849557 1.3375791533756567
O -3.125597267605958 0.33155517346368507 1.7493077840967648
I 1.781578121255656 -0.2031493257900773 1.4483126548981868
C 1.2858159964301041 0.19359956226784322 3.538290035491345
H 2.0895913738954435 -0.2173176736111651 4.1369887838645125
H 0.34244312780778713 -0.2980749314877524 3.7377009449678247
H 1.1987890100307088 1.270929085149194 3.645254271589388
O -1.291454870084661 1.5181381979062438 -2.9210974987344995
C 1.372817091649789 -0.6003574609975059 -2.157715338232734
H 1.7171683531160749 0.37904184475614244 -1.8257196204806017
H 1.957220902046987 -1.363483197944066 -1.641883831879347
H 1.5270125712998708 -0.6947472540037599 -3.2345518175053396
H -1.4540741134971722 2.3075137132830617 -3.4345508803185196
Rh -0.8286316629209967 -0.3803699241591054 -0.010728420849368252
I -0.19806655353961225 3.187178635514255 1.5894471104995664
I -0.8286458336301156 2.090913019540047 -0.9798263342104255
O -0.8228484617310499 -1.2582483812778653 -2.744747693806359
C -0.11214052172151492 -0.826614179210548 -1.8379351493699763
O -1.3565899890248496 -3.322072561395026 -0.3061273014281528
C -1.1792351616463972 -2.203065580932093 -0.08799685196793364
