17
## STRUCTURE-ID: 645bbc532d7bb46a2c36ef58 ; CHARGE = -1; SPIN = 1
C -3.4131225340255784 -0.3160029307400391 -0.21577646997269775
O -4.38627146520605 -0.7926446809140051 -0.6230586058172537
Rh -2.0400582324676573 0.7553200814205114 0.41173920880062137
I 0.3377822994937548 -0.970306001520497 0.1769453571184297
I -2.5212005596145097 0.1002586775983519 2.9811256969983915
O -1.026385025617884 3.4855859841861125 1.1182389521082305
C -1.2981631540967349 2.3868936820786533 0.8773405827572661
O -2.710573146671574 2.291818877484111 -1.9944221502923438
C -1.986245703492533 1.458942076013206 -1.4605663017323203
H 0.6550578577145854 -0.7790348582268675 -1.3579026793579392
I 4.216194421996508 -1.7913422677629973 -0.8112593409340103
O -0.9936031144632267 0.9093208613922379 -2.216609356836714
C 4.058306611585713 -1.982636913987625 1.3168971330729211
H 3.0045586141283414 -2.045385021304958 1.5568616051699637
H 4.506951764385668 -1.1035455633738283 1.7595871504702443
H 4.585001669452523 -2.882084303758752 1.605260939649848
H -0.9882303031013233 1.2748423014163561 -3.1244017212026804
