20
## STRUCTURE-ID: 645bdddbbacb2052f5099de4 ; CHARGE = -1; SPIN = 1
C -2.4011762899572817 1.0610526026088027 -0.5376825624948015
O -3.5306876612366627 0.8913601902732259 -0.6612205911244836
I 2.0048104317149233 1.6177076669556762 -0.6211997818045901
C -0.5401348630250457 1.7779228669393752 -3.2525992993617128
H -1.3383016368073746 1.5961560829676318 -3.971592135088622
H 0.40976770644874366 1.7994329769435158 -3.7878916285115047
H -0.6936828461873652 2.7442031037568015 -2.7580924517925105
O 1.9011878072923598 -1.1030814084576404 4.074065796445297
C 1.2049815023127395 -2.5784046768861586 1.8805866003180822
H 2.0538210928149727 -2.578549404295401 1.208351805803351
H 0.33312355420504475 -3.013003508074202 1.4084553166123628
H 1.4472061014393947 -3.0574825855260914 2.818172117211346
H 2.110367730766248 -0.3442610363411946 4.62278111817665
Rh -0.5786828733138153 1.243156682934904 -0.3755806152133059
I -0.7623032610753185 2.560240150635048 2.024716706182207
I 0.7396956707684466 -0.564535216444645 2.3474414057154593
O -0.968025050997961 -1.5721121905734174 0.051032180526058415
C -0.4645344352778661 -0.5659021571194278 0.4299827628483824
O -0.42705117514268576 -0.5329093720945481 -2.6273599384470887
C -0.5003815047414619 0.6190092317977269 -2.2723668060005915
