15
## STRUCTURE-ID: 645be29fd43099577c5a483a ; CHARGE = -1; SPIN = 1
C -3.1147007236272612 -0.22077776870561217 -0.5236546741100004
O -4.0450801485307055 0.01016163825105332 -1.1531665485536822
I -1.1230237171810544 1.83768466768183 1.1262478940755234
C 2.194034838832791 1.978293420482605 -1.0469923209221605
H 2.9648007318684546 2.4974890765658766 -0.4782998771432384
H 1.264677370471362 2.553735383316318 -1.015113186079169
H 2.4656861958725877 1.8729837757015118 -2.0969833743580866
O 0.3651656851548073 -2.9529014566727154 2.6698784503982593
Rh -1.6688000094482436 -0.6472380635474808 0.5475287527563253
I 0.4562904654892893 -0.5452893176627166 -1.7421881577662592
I 0.10809463940137555 -1.122263317300918 2.3770024339120406
O -2.1603175898245492 -3.5886832352150764 0.7132203807017841
C -2.02372916118371 -2.453675379728485 0.5840365781512663
O 2.347736698235824 0.10086534746807842 0.4918494723256476
C 1.969164724469027 0.679615229365784 -0.4533658233882703
