20
## STRUCTURE-ID: 645bcbe5148aa511ef0203b4 ; CHARGE = -1; SPIN = 1
C -2.260252328362557 -0.7993761686777635 -0.9081711534775018
O -3.395504681272668 -1.0161846840115139 -1.0573728612917754
I 0.2513799729960305 -0.9475128298594514 -3.175707203588448
C 3.651066410620827 -1.2892774452926223 0.7922861777335016
H 4.22625953544508 -1.9587174029459926 0.15128742684157595
H 4.056649447106074 -0.27960465033469445 0.7457650084360947
H 3.7089033102609354 -1.6806127142390916 1.8077378375623028
O -1.8756475198001101 0.5554490484101502 1.656860410775803
C -2.2577091838660097 2.612934503268712 -1.2438549093783364
H -2.710095613350215 2.054430118387239 -0.4320533301697801
H -2.4405842303475858 2.1205791830514915 -2.192014721781297
H -2.5959562515582766 3.6406909095628848 -1.2608003642948435
H -1.8740669393219365 0.6628152686160854 2.6294488843330406
Rh -0.4982577445386242 -0.47240695626992535 -0.6708084078508155
I -0.13333042384319563 2.614166987469957 -0.9144756548685203
I 1.2639225183310663 -3.210302602586927 0.40277663030068617
O 1.6060488770586552 -0.3601527051244735 -0.07257032872606481
C 2.2472196196569336 -1.2781418571941843 0.3480089698105955
O -0.12171479487627099 -0.7198564016709854 2.1367444094292147
C -0.8483299803381205 -0.24891960055884946 1.256913180204489
