15
## STRUCTURE-ID: 645bd4d9bfa23936022fb20b ; CHARGE = 0; SPIN = 1
C -1.8127743464570514 0.6604167465881587 0.6022975360489258
O -2.5828741641859154 1.1279768162399864 1.2871985892878222
I -4.05264450773338 4.095396447516878 0.7843163941784956
C 1.918330707159078 -0.15325522348114415 0.9949088872127276
H 2.73988494397384 0.4739625884420371 1.3497428418460466
H 2.3230159627330713 -0.9825969051141381 0.41082208510448914
H 1.3842835614522166 -0.5695562109832831 1.8520621527144756
H 0.4535627451052503 -3.4126268342984316 0.40701588849795417
Rh -0.6743251797741979 -0.18013038853914687 -0.6620656969506041
I -0.8791220998960156 -2.5787794243008153 0.7031895383138218
I -2.0349860689775485 1.14118226710119 -2.565789380625036
O 1.0976175097183514 1.8208116611300684 -0.1500285836993461
C 1.0274656585944315 0.6849440739618197 0.1679314568370057
O 0.7841144367162083 -1.248803381148164 -3.070308072911941
C 0.308450841571659 -0.878942233115008 -2.111293635854864
