20
## STRUCTURE-ID: 645bcc7f7a5e433d96108f1b ; CHARGE = -1; SPIN = 1
C -1.5291904552576192 2.1794469845674085 0.16942744332940116
O -2.2184664722834877 3.0104120142099173 -0.2642947164470904
I 4.01069847372457 4.8010269553897 -1.4580029951071103
C -0.8881938661776211 -3.500279654046003 -0.24126194811777388
H -1.1115913699066642 -3.149705656300753 0.8283363138823068
H -1.876746122703844 -4.01729609190693 -0.10471989241540024
H -0.5264617993065407 -4.372446363426734 -0.8454273723573771
O 1.677583972326523 2.4728087026697922 -0.7570694331625273
C -1.0933463327881299 -2.2944493198188014 -1.1780272760809922
H 0.15125949964916396 -3.502686184488052 0.19188339554909511
H -1.083011070856115 -2.562746335935647 -2.2318133282736228
H -1.996945968635054 -1.7435699755254561 -0.9284193944907311
H 2.2812868141872995 3.225436459797651 -1.025686193765482
Rh -0.15290903674269485 1.2314307888656306 0.950808479343833
I -1.5200017235726644 -0.6539678386931086 2.128181090596924
I 0.5692930120227144 -0.7002503887611637 -1.0336027748273562
O 0.8864687492810182 3.9507826723856243 0.723649213544671
C 0.8776803225934757 2.798502137580898 0.2872806972358991
O 2.231247394440416 1.5681734003702406 2.7172284310152808
C 1.3113459800052512 1.2593776930657983 2.0715302605480286
