13
## STRUCTURE-ID: 645bb2ce10ce7021177e8a8d ; CHARGE = 0; SPIN = 1
Rh -0.46294956012746175 -0.5060598902584678 0.02612288766179214
I -1.7810034921109505 2.5433498608517375 1.0997438094205245
I 0.5757511866000268 2.2247673019248513 2.290598157437957
O -3.2671139663468374 -1.2718234326963922 0.8277959420605637
C -2.1512711458397304 -1.04493479496555 0.6641790251015034
O -1.5165210741161546 0.5567395228975625 -2.5553711141380444
C -1.1306117624462566 0.14987395970575437 -1.5537035915970927
H 2.473756499172715 -1.6113861027257113 1.559969187770266
I 0.9324713056920897 -1.8705521418221105 1.8455330251573934
C 1.300296955879968 0.12653477277592667 -0.9251021380703962
H 1.2285382580648954 0.8747122597135266 -1.7238364759929554
H 1.9807602743904076 0.559765984560197 -0.1798342900776281
H 1.8178965211872755 -0.7309872999613507 -1.376094424733894
