13
## STRUCTURE-ID: 645bb9dcf2894722bb0fad14 ; CHARGE = -1; SPIN = 1
I -1.802194347801156 -2.553366893204024 0.551394279813081
C -1.6522034937110983 1.2406053384908597 -0.18467540336275456
H -2.5024055680049995 0.7821734772608966 -0.7088701625765584
H -1.113047472775217 1.8946336034658455 -0.8743548291437201
H -2.0185540601968723 1.8306184517171251 0.6609270486039999
O 1.863952450193371 -1.8832339210796671 -0.147059417909077
Rh -0.5272040000161019 -0.3456259701916496 0.49688156481443646
I 2.5457093715301675 -2.3211537305444443 -3.544277381087819
I 0.8465556244427191 -1.3325141863668972 -1.5691454151702242
O 1.974070773192445 1.1876771460680977 -0.13179660448277777
C 1.0964018022505797 0.7471949380606869 0.5789815065146281
O 0.5669686372718143 0.36188926706780306 3.0320457982815365
C 0.7219502836243465 0.39110247925541225 1.8399490157052505
