13
## STRUCTURE-ID: 645bd96daf18d348636df394 ; CHARGE = 0; SPIN = 1
C -1.7593681886673993 -0.5054022122122739 0.4854099034324444
O -2.8015940854536248 -0.9208008442809895 0.631832607288455
I 1.047080459840412 -1.964629722099669 1.3683364567362104
C -0.02960708703730875 -0.748172261397781 -1.7139826468145725
H -1.050922632592284 -0.8052761768542047 -2.0925571634534355
H 0.38751756595495607 -1.7503416640809213 -1.6351921369272207
H 0.5703423331451825 -0.15483900830246639 -2.405072734515771
H 0.5137876133341596 0.5527796720312291 3.85783481886583
Rh -0.03828204100949078 0.19130495621415064 0.1970470804047745
I -0.10012822087790839 1.6034914735101546 2.841029561205296
I -1.1226981124094333 2.373377184311174 -0.9487730275137038
O 2.7057951838786822 1.2662636322794527 -0.4162259434086932
C 1.6780772118940663 0.8622449708821671 -0.16968677529961954
