15
## STRUCTURE-ID: 645bc7842e58a447af108f04 ; CHARGE = -1; SPIN = 1
C -2.7725534786181507 -0.4376880100860627 0.38997978726756477
O -3.716446796782108 0.20499082193135099 0.42562619063795165
I -0.48270411921810175 1.5704888730253497 1.7515467247344865
O 0.15886050721505096 1.0430439331647692 -1.8424038440143944
C 3.2699017143495084 0.6656152663695409 0.6061198272357212
H 3.387915701702271 0.7309740959169331 1.6729610871874177
H 3.3417170302167323 1.5708356431724886 0.030429280747373534
H 0.014250769395985614 1.629723103971593 -2.611972495838032
Rh -0.8119956850901822 -0.6568705347599663 0.23897138786562527
I 1.9785997187609023 -0.7497368791000395 -0.0923805730231284
I -0.6454064504985446 -2.660955079961782 -1.6061178523558879
O -0.1663671541787128 -2.5772365849158505 2.513315445942014
C -0.4990712039546413 -1.8551509711332237 1.6927113953765565
O -2.0546603296565844 0.9412889331996505 -1.841387556334131
C -1.0020402236434196 0.5806773892052159 -1.3273988054291148
