20
## STRUCTURE-ID: 645be2cc0ab75e78cd014ef4 ; CHARGE = -1; SPIN = 1
C -2.134793789475706 -1.4381686786363825 0.7782108680971138
O -3.2562535453945074 -1.6732380160393012 0.7923411256144413
I -0.6560376560929567 1.3334570764891467 2.166639688883823
C 0.09876828543426755 -2.0520571712307945 2.283258129301462
H 1.1101763341895516 -1.7437050588761123 2.5711199013273447
H 0.11266559074148484 -3.102638278707265 1.9900099486623433
H -0.5690981905354638 -1.919779039699252 3.1347251024438374
O -1.502592629373401 1.860570076652247 -2.4705064593729262
C 0.6822242930829971 2.484882135144301 -1.0791542015676523
H -0.05255524190525097 3.038466130013761 -0.508303637744253
H 0.930992668650718 3.005807061577123 -1.9944565678505217
H 1.5689682558989666 2.3009061802752115 -0.48686861125020653
H -2.1134081630972665 1.417033663679885 -3.0740882351523613
Rh -0.3902305546439991 -0.8486385991515116 0.6573185491961405
I -2.011027329227302 -1.3954519603833644 -3.0220450878957013
I -0.177680878254703 0.6258551767365363 -1.632565086702509
O 3.3111750470807273 0.8094267322572932 0.35683845973005207
C 2.527221939826697 -0.08804614091366152 0.2330848261785995
O 1.002492697182445 -1.8891581054699318 -0.4429685732963861
C 1.5189928659127105 -0.7255231837179456 -0.2525901386026317
