20
## STRUCTURE-ID: 645be6240e56fd3b0f7e8a84 ; CHARGE = -1; SPIN = 1
C -1.6275241911177372 0.42064867451243704 1.6204763318075797
O -2.367354497775488 0.6140630718104628 2.4749238753205436
I -2.7714024046333106 1.7469874212865841 -0.9948679527345625
C 2.302614168894259 1.18398525890888 -1.3629883441497368
H 2.755121604757396 1.7378784765924615 -2.184924892146358
H 2.3943496137479374 0.11241017766763783 -1.5424023400042732
H 2.813431863364412 1.4180297876883456 -0.4303931713412132
O 0.66539746527262 -1.3508603160049333 1.6159605893151667
C -2.1451017116502777 -2.5245913375537565 -0.3670837447509119
H -2.2752656004654863 -3.4608306242852653 -0.8989795353007899
H -3.0385058638584326 -1.9099318618109604 -0.4198716754213888
H -1.8295100013302106 -2.6809570698698053 0.6590660436949121
H 1.3537919223857282 -1.8247546965244223 2.1275291184423586
Rh -0.36325833326499957 0.79229764207087 0.19354865664010742
I 0.22804776595599358 3.1056402823782334 1.4883978630165566
I -0.5513244153780044 -1.4295131951942688 -1.3567335758250372
O 2.17907249838363 0.2749824026248454 1.4941490546602532
C 1.0767460283934842 -0.1358762186137073 1.2180243185419588
O 0.3651095678619255 2.3399917623503987 -2.072604980833751
C 0.8355645204565786 1.5704003619659748 -1.2612256389314431
