20
## STRUCTURE-ID: 645bc6ce66cff643a02fb1fa ; CHARGE = -1; SPIN = 1
C -1.257695134019267 -1.5049499610297525 1.6428106834241687
O -1.5456716996204387 -2.506890051091447 2.1391024829483323
I -0.8838519624649822 1.731635062567658 2.6697379081416166
C -2.1311044439675078 -1.8562698850470039 -1.5894624502914818
H -1.8109358919970273 -2.443533561843652 -2.4518944988328335
H -2.622067122181479 -2.5061244549663817 -0.8652338215954173
H -2.850957936637412 -1.0990272676283872 -1.9009245363619514
O 1.1526837365413125 1.2545607262987188 -1.2162043054696128
C 2.6290220150013317 1.9009325739589857 1.093535617974119
H 3.713850091614131 1.893734197528073 1.060850239661876
H 2.2677951895142736 2.0043516742922387 2.1133029401968155
H 2.2110673088664257 2.6718658928385928 0.45786104325400456
H 1.0965088227206432 0.7039269584072592 -1.992376498880756
Rh -1.055811540634106 0.04172632761178635 0.6352242790779513
I 3.4036738917559384 -1.0367419667001307 2.390616797134664
I 1.877595961370709 0.06907556970225823 0.2681856054349731
O -1.9183437996974837 1.9822790839757018 -1.4857111317118221
C -1.5234831255025114 1.311084733740232 -0.6280039238491362
O 0.18282194521628695 -1.418683001145223 -1.409408630737032
C -0.9350963058786693 -1.192952651469698 -0.932007799518489
