13
## STRUCTURE-ID: 645bb96671f1f14cd7732d34 ; CHARGE = -1; SPIN = 1
I -1.9456164364692552 1.6582438657609144 -0.9313265766432943
C -1.069774513635202 -0.9535217468775362 1.2117377708764405
H -0.5780608603444952 -0.8207225179350344 2.1777394947573545
H -1.1302882787492776 -2.0216384010379675 0.99955623975671
H -2.076302121288286 -0.5403402229996066 1.2627940479020718
O 2.4587035031882474 2.6449115044958873 -0.9877304305352919
Rh 0.080087712851958 0.023473983962456972 -0.3246229239062528
I 2.1207440422719945 -1.6062127793769507 0.238811892573959
I 1.7097401198645732 1.3892086213935269 -2.1673015166292013
O -0.8828142765945795 -1.9107742051349146 -2.4114469381432335
C -0.533921754095347 -1.1916665523499101 -1.604129115429812
O 1.1341126295134272 2.0580420406422184 1.6191489494625244
C 0.7133902334862458 1.2709964094569224 0.9167691059580269
