23
## STRUCTURE-ID: 645bd0093d8711047832eba4 ; CHARGE = -1; SPIN = 1
C -2.514904240478381 0.15632482117726876 1.5281576574769589
O -3.326681410367379 0.9596102396390918 1.6987497294971263
H 2.3316830979322045 -0.8249880961985664 3.048183037681122
I 1.3080455638541995 -0.5244650707512282 1.7269494503797047
O 0.8836230526034909 -1.9838350022122315 -0.9261996753692097
C 3.068408609246903 0.44068244335943074 0.9278157136233891
H 2.729673622667086 0.9260819052056875 0.021220748881786836
H 3.8293297131849053 -0.2960937597326283 0.7045982485898381
H 3.4268997488952686 1.1833633467488596 1.6281018180044984
H 1.31281456201584 -2.259294624337978 -1.759472324167773
O 0.5879589854198466 3.1999729190098627 -1.6023649292032434
C -1.709614378438155 1.682369170351857 -1.801372342637938
H -2.608430666979643 1.9931832068915971 -1.2767277414873537
H -1.893117004291467 0.7644283755572062 -2.3526782416486838
H -1.355813961278223 2.464536948268471 -2.45562965226218
H 1.3507989440244026 3.613860139463418 -1.1970618545964067
Rh -1.3649358871133717 -0.938717861675388 0.5130590246139728
I -0.24474578008014244 -2.1627033125225226 3.7244217329301805
I -0.23354059115139364 1.2784031703801475 -0.3882313174227641
O -0.8689638655211138 -1.5986620129482334 -2.2406074128523423
C -0.4120902619540748 -1.6131111231289297 -1.0924347341789378
O -2.313350864814825 -3.7777861773866888 0.8073250759604765
C -1.9830469873760146 -2.6831596451584954 0.7641979881877801
