15
## STRUCTURE-ID: 645be1c21d611d35fd5d492e ; CHARGE = 0; SPIN = 1
C -2.088194916503308 -1.2180735310503124 -2.291850523266635
O -2.894603123174116 -2.039913521433962 -2.3817289584238215
I -1.4966209798300176 0.5097526378523048 0.26865397119946866
C 0.32509793893219824 0.5086935529062045 3.71239157942533
H 0.7079333018150749 1.387648845967497 4.250326156168183
H 0.21547677970337567 -0.32914987798027795 4.4155074407032995
H -0.6698465544673535 0.7531999430246354 3.3044779433146734
H 2.658293117511908 -0.42985783704415553 -0.8134039703249859
Rh -0.8574108565577087 0.133770961073274 -2.236293490729935
I 1.653495168492156 -1.6001882358968542 -1.176286221784176
I 0.6835686530657964 2.2856182857725917 -2.3437960162093843
O 1.8598272818405943 -0.11565591859040125 1.8660225165560438
C 1.1559070422756934 0.16876437389186089 2.6884422823980567
O -0.5952296954241642 -0.027859470994931485 -5.207468162789338
C -0.6576931576798485 0.013249792502315614 -4.054994546236964
