19
## STRUCTURE-ID: 645becb1ed30767f7251c323 ; CHARGE = 0; SPIN = 1
C -1.3649131681631792 0.5417186210654001 2.1005013575049714
O -2.233688959989812 1.2868716372795734 2.198929997582445
H -0.22282956953885888 1.8350415271309237 -4.085224398610464
I -0.45514490954076947 0.007822837919836793 -1.3417176831258861
O -0.11525360856128211 2.5810966580447294 -3.4437534798555083
C -1.0310932744362173 2.4441486055114945 -2.3881541983680745
H -0.8689054481706127 3.169516440806668 -1.6030564097593627
H -2.0453070363022894 2.3008518529311286 -2.739608446689728
H 0.8090056552352654 2.643189040665338 -3.097541741899793
C 0.24746619423692864 -1.9097067649383375 -0.7912104591401629
H 1.2424581813769395 -1.843069149311618 -0.35487240662043146
H 0.24103969181088877 -2.551029591988814 -1.6657745944507594
Rh 0.0018171948221569084 -0.6982914928622649 2.2134403368752738
I 1.8441231625841088 1.0402822056499341 1.4501332995119118
I -1.1666103917434099 -2.6264790552111843 0.6801931995395885
O 0.256718823199369 -1.5642257287085681 4.651879260058516
C 1.037604226185732 -1.8656753564060113 3.7652268661640504
O 2.3358421317122975 -2.7225095965234667 1.9105336207067596
C 1.4876711052827403 -2.069552691054743 2.5400758805766146
