15
## STRUCTURE-ID: 645be347e5dacf61965d491a ; CHARGE = -1; SPIN = 1
C -3.1001566653343313 -0.8322847504164208 0.48559599789745944
O -3.788537365129279 -1.3463105029869598 1.2508788376636357
I -3.274774200020807 2.186159338195218 -0.33350069981140334
C 2.7471349639738976 1.0432903913300715 0.007589447956214183
H 2.2358475139527187 1.874756511391201 -0.4836850924514799
H 3.5575880267989417 0.6794634335652008 -0.6252295359410867
H 3.121926427824602 1.4240138347953746 0.9587368934166856
O -0.7610807421495892 -0.9463108943441944 1.9960755754400858
Rh -1.9630146258242678 -0.049911228459170405 -0.7210436260403787
I -0.2961059234061539 0.9781154445836887 -2.4455451862798765
I 0.004328290087418163 0.6691305677940411 1.5568533515470702
O -0.797106213339178 -2.781154605800544 -0.9580359620885311
C -1.203428160367056 -1.7043461150009767 -0.9223206468285706
O 1.7075115267455236 -1.1658151063609434 -0.015340763043883071
C 1.8098671461875564 -0.028796318285571134 0.24897140856412434
