15
## STRUCTURE-ID: 645be523b32b47556374b45b ; CHARGE = -1; SPIN = 1
C -2.7833467910065193 0.02960997672726385 -0.15418999746376028
O -3.9266015309854136 0.03518848664427418 -0.2547568096461598
I -1.1030607867915048 -2.6666388231377938 0.41987730351639313
C 2.0916797323267806 -0.006430584000898369 1.51723666376237
H 1.9356792910173746 -0.766356790729236 2.2842593618050553
H 2.062906453303298 0.9610761385663433 2.0218717479199526
H 3.04739534085297 -0.15041438468487917 1.0135708231369913
O 0.8859732502520029 0.06886511116865832 -3.917626576379014
Rh -0.9587851953982632 0.009383581528392224 0.3203839882122059
I -1.3997805956383804 0.315236009607077 2.956362727694777
I -0.8225315055652467 2.6494785625809354 -0.13779591613094092
O -1.0105194312982304 -0.16584730285255606 -2.659194600563462
C -0.05726684560307661 -0.04799976398675093 -3.285870906040601
O 1.0548115376914446 -0.20085386249919532 -0.6664408523977299
C 0.9834470768427537 -0.06429635493163093 0.5423130425739158
