15
## STRUCTURE-ID: 645be433e8671272343adfd8 ; CHARGE = -1; SPIN = 1
C -2.760542401481599 0.9232437835317167 0.08630507504106352
O -3.684024208743105 1.131540080337048 -0.5634959579295125
I 0.7631139762333429 -1.5182721100368006 -2.7148185831162737
C 2.6637924251361533 -0.3648648006370421 -0.5769562829750807
H 2.6784198006598148 -1.299679282218371 -0.009312684755471553
H 2.933515496859529 0.4484743041307243 0.09568660259270508
H 3.3763072947186226 -0.46913661789906186 -1.392254039701584
O -3.199241187208394 -1.9655389460973853 -1.0978885448828801
Rh -1.3197580477005775 0.371631176016306 1.089807597488959
I 0.473281277631627 -0.8102300843215345 2.5232586265765957
I -1.8189928069275891 -1.9797665723153977 0.1625178541563536
O 0.46566932998268695 0.6187939741001652 -0.733177503946735
C 1.3069009226597206 -0.15312628887225715 -1.0860016553714749
O -0.8584949647657615 3.048408565931766 2.346633056044209
C -1.0199469070538727 2.018522818349755 1.8696964407802867
