20
## STRUCTURE-ID: 645bcd1ad01e8a7c230fad23 ; CHARGE = -1; SPIN = 1
C -1.7462960439561899 2.0026384626722216 0.8288920340231705
O -2.415042106446707 2.836964043492789 1.2936106824475175
I 1.0236797392834218 -0.3507575167479669 1.9358432769324474
C -0.4226083591794013 -2.9179264960491524 -1.0069946055822039
H 0.551261768547319 -3.2418978312052946 2.617019088794018
H -0.9863888015873175 -3.734142073300667 -0.5603189081238946
H -0.19827488213274255 -3.16201457757279 -2.0403881776212276
O 1.5826461737645405 2.491983808011169 -2.0589061695751174
C -1.2623162519707294 -1.6686751315794717 -0.9157921685548388
H 0.5091427895898281 -2.8042266878392756 -0.45901183644891413
H -2.180168782494188 -1.7442648669967973 -1.4921459880304193
H -1.479883993070274 -1.3936401954162958 0.11418902131468943
H 2.1578068843746028 3.1037650992974775 -2.5614199947320797
Rh 0.16904426790626878 1.7694589437115231 0.3472521913099835
I 0.04531952704688013 -4.722551443455617 2.6721868709649974
I -0.20787417106110093 0.12745144244683285 -1.745372445279306
O 1.9284672723112208 4.0104604578892165 -0.4873742487386402
C 1.381055755953538 2.9439965545302935 -0.7769278288671748
O 0.93803545585293 3.559878295428058 2.590198311573687
C 0.6123937572680881 2.8934997126837527 1.7054608941933038
