13
## STRUCTURE-ID: 645bb91e9362624a5d0fad2e ; CHARGE = -1; SPIN = 1
I -1.8817096382270426 -2.7744637669338923 -0.02511968803916608
C -1.6727328997836768 0.536343675936461 0.294705298422251
H -2.4940760460120694 0.47701643888380924 -0.42036648287150935
H -1.2090018531807876 1.5270398359511768 0.22726775293785517
H -2.078874150018055 0.3914618101372187 1.297508132406706
O 3.144095415828179 2.2139731343639055 -1.338570766518238
Rh -0.12383859674298871 -0.8164589603965361 -0.1734644752071041
I 2.2581140189504256 -2.1869626856498914 -0.5112511956414046
I -0.419591927877143 -0.2938428356736215 -2.744729951518461
O 0.5096032273790329 -1.0634838336653594 2.718518245026688
C 0.2417083957765003 -0.9791737362933084 1.6076763501975724
O 1.4332026466770011 1.244755317770706 -0.16926458861556945
C 2.2931014072306284 1.7237956055693284 -0.7629086305796137
