20
## STRUCTURE-ID: 645bcc64e8003439473adfdb ; CHARGE = -1; SPIN = 1
C -1.4657274991101927 2.209056450651349 0.1583277864637632
O -2.1202608246497956 3.069057955385472 -0.27353092565860915
I 3.6929273480220672 5.003794844395575 -1.7039709368862659
C -0.8986422952161147 -3.5071000513047714 -0.22360605114825768
H -1.1821727501103723 -3.125423323807581 0.8218740799451537
H -1.894269022278455 -4.019526001349259 -0.1269986758906608
H -0.5046508344844589 -4.39553839868471 -0.7817483833255071
O 1.7163638491907252 2.4659199507391643 -0.7216206874161544
C -1.0469019362312986 -2.3286279213933136 -1.2049165795333765
H 0.1124211509280804 -3.4977718004507916 0.2715389425009443
H -0.9695098139277815 -2.6275682681655645 -2.24759576181363
H -1.9646249759804477 -1.7725010811800481 -1.03137365672294
H 2.2773689116002998 3.2415068782365104 -1.0225139621656796
Rh -0.13356838580112718 1.2184307667796779 0.9623550371950356
I -1.580010806416271 -0.6352320582702411 2.0909060791960523
I 0.605610224736723 -0.7244369207574182 -1.009878448772336
O 0.935175740008896 3.9254334601782235 0.7827432953523595
C 0.9238525124780932 2.779469180772467 0.33026723815323994
O 2.1987634316993727 1.5070004860232808 2.8043445583485447
C 1.2978559755420433 1.2140558522019873 2.1253970521783137
