20
## STRUCTURE-ID: 645bc4ccc79a83133b507c5d ; CHARGE = -1; SPIN = 1
C -1.1227737354966758 -2.117723820783081 0.8483437482345949
O -1.369887251892312 -3.215364083123494 0.5522893740457182
I -0.16984545904627654 0.2277842337432006 3.3444142902837775
C 1.1959643828524278 1.8645581870354293 3.9197247051570665
H 1.858295427617122 1.455844828765108 4.674412798826311
H 0.5818993359982234 2.677645406238796 4.296473458310529
H 1.729584804449278 2.1743960430426212 3.0298560068439184
O 1.1468058902068512 -0.8138361095807092 -1.0878422235117449
C -0.043973304275581965 -1.33338216012901 -3.147268846122896
H 0.02729096504677329 -2.378870960348594 -2.8521864666501955
H -0.9947946009608494 -1.1632565559711348 -3.6509923061054828
H 0.7724466886328893 -1.073007737056404 -3.819868130254775
H 1.9648008005858884 -0.61748338295163 -1.5684201500898403
Rh -0.7471486617986051 -0.3152799436434299 0.846537616830121
I -0.8385478889771002 3.756466614479959 1.6615840061704716
I -0.45632500616306737 1.8805675186772794 -0.4330538380325875
O 0.01052899749605951 0.861107261082575 -2.1991230962978063
C 0.0050822083410271 -0.4611915992638577 -1.8918976053487728
O -2.3306229890192873 -0.7641086054890787 -1.5216885022136692
C -1.2187806035975475 -0.644865134723578 -1.0012948400753554
