20
## STRUCTURE-ID: 645bda9c66312b69d9732d43 ; CHARGE = -1; SPIN = 1
C -2.1103657140941365 -0.9548559297514065 -0.24955979221502778
O -2.7083046262298516 -1.776590958062686 -0.8316211448703877
I -1.7771967951649466 0.14346553979252294 2.965593781320347
C 0.3752747040459347 -2.5422050974517747 1.7787508920058401
H 0.1359875636556989 -3.5881420974127214 2.0067530827124913
H -0.2725408610093236 -1.899364525425899 2.4104431856785364
H 1.4104820115023493 -2.3203955020855345 2.0728358202504653
O 0.03766254106721329 0.4052533247779078 -2.089614755696652
C 2.1163795144213724 2.400901958769249 -0.44016056630889333
H 3.132876324666253 2.3459235397779676 -0.8066909885693041
H 1.9571488338132448 3.2729242332285535 0.1829126666384862
H 1.400250687234756 2.3821762821101364 -1.2523061935869861
H 0.05187386516986257 0.4302973240546366 -3.0655585224855293
Rh -1.377912250584747 0.6027488338743752 0.3474244247081798
I -1.4300624109418074 3.2837699805849057 0.5270693299171948
I 1.7555502328087842 0.6748723428584049 0.7537500661826219
O -2.041528927456474 1.1256181359020083 -2.422181000216476
C -1.1920518932889668 0.7815565584768731 -1.5985341259825914
O 0.3109214369992419 -2.4411552622535546 -0.712036236086218
C 0.22555576338533231 -2.3267986817641373 0.4227300766042061
