20
## STRUCTURE-ID: 645bc1d8df2f6c73256ee1c4 ; CHARGE = -1; SPIN = 1
C -2.7351858904074087 0.5542981675201055 -0.6549246002959341
O -3.873308371966893 0.5771657858988627 -0.7007200708811256
I -1.0946647082407712 2.159513343462562 -2.9994882839162558
C 1.8788367334199214 0.2669450361268204 -2.3827237710945144
H 1.9728505044018685 1.335404514234595 -2.5803981257613806
H 2.8702556429100428 -0.18339208192006293 -2.342013103658642
H 1.3015875083270418 -0.17231109780503348 -3.1955831299653346
O -0.5011194522161224 -2.704948004095147 2.9740328996005743
C 0.008927349383617058 -0.055714970490501066 2.6209307478196036
H 0.09981719892740692 -0.5947180748401977 3.5527332908103575
H -0.7150668037653839 0.7485348991397861 2.694356543017486
H 0.9728186219714462 0.31026445510403294 2.286124101829441
H -0.7233011698445876 -3.6147815718017977 2.7700788527227154
Rh -0.8092017304436914 0.42469055387430066 -0.8169681004916899
I -1.3062152449776299 -1.860034226107281 -2.111200511972794
I -0.669054741645251 -1.4521775398430599 1.1843320686534444
O 0.3880387232653518 2.7182777762996087 0.681190286881306
C -0.10829877874811321 1.8159881015071497 0.17088159944954853
O 1.850142938977447 -0.3474288180932513 -0.10325257291220324
C 1.1921416706717225 0.07442375182849421 -1.047388119834629
