15
## STRUCTURE-ID: 645bd069c2dfc213c65c0124 ; CHARGE = -1; SPIN = 1
C -1.204227069042082 -1.0482636643315135 0.5282035621121441
O -2.3202245069369596 -1.1379775185349879 0.7757426132800106
I 3.2204008412022254 -0.14931477980592175 0.45242031903319874
O -0.31098724380807785 1.7958225616504975 0.9317662292903013
C -1.147302585305564 1.5680600427634015 -2.664309583788861
H -1.5628983696489192 2.4359966611196113 -2.1889298286086847
H -1.7820416485627526 0.9041721944508502 -3.219800507115816
H -0.43825416143859947 2.559534221393071 1.5309203471734114
Rh 0.6336762740104138 -0.8554881923577119 0.3984703461137763
I 0.5655534407791523 0.8107167619151266 -1.87996769156218
I 0.734403938039514 -2.7270963890962503 2.6320341955268023
O 1.7347719910485775 -3.3106008698321143 -1.0337345962890485
C 1.2325917333556602 -2.3779846308975627 -0.6106668734911508
O 0.42110172076913543 0.8052128288517074 2.77406252108638
C 0.22343564553825968 0.7272107727118287 1.5737889472397266
