15
## STRUCTURE-ID: 645bd210f9f2da6a55099df0 ; CHARGE = -1; SPIN = 1
C -1.912531610831844 1.6833900278962535 -0.6938128997472682
O -3.0191486531443106 1.943346554676693 -0.7874718578406501
I 3.1720065203510224 1.8529639707145569 -2.0362809605634724
C -0.8503883781804661 -2.4020862203690347 1.6937351137601806
H -1.7779981894005377 -2.054292861715265 2.13013498269094
H -0.8537266061641596 -3.4746714624225707 1.5393238680855137
H 0.010599963423564156 -2.092815572265286 2.274052829756114
O 0.9043678477779421 -2.285203699779155 -0.7312357864177735
Rh -0.11049860340664744 1.1856981468604217 -0.6076297066391165
I -0.5467785200738163 0.07325252417503089 -3.1393989668830757
I -0.6571372905994816 -1.4900726621516216 -0.25501828055127157
O 2.4236221654971426 -0.035715121513466834 0.22103422035347758
C 1.7652212029941723 0.6569807947922558 -0.4643166343645329
O 0.9609687944969311 3.686881092658235 0.6640861249618945
C 0.4914213572605054 2.7523444884429322 0.1927979533990595
