15
## STRUCTURE-ID: 645bd604eaadd2297a315fa4 ; CHARGE = 0; SPIN = 1
C -3.178769031204487 -0.309566819412273 0.7326616204508792
O -4.15876407342283 -0.8949514407877288 0.8028014106836158
I -0.002268770291109783 -1.4017413662041267 1.0584042281027553
C 2.726947034037404 -1.4361237621252347 -0.6491060988807014
H 3.545237603813043 -0.9914766105773533 -1.2197430768528978
H 2.198498816116519 -2.18266513920478 -1.2470226619433202
H 3.1028166940871564 -1.9709046148989928 0.22546337337361064
H -1.4754238804385253 -0.3122585944813648 -2.6971570540847982
Rh -1.654834022360776 0.7458759361897264 0.8318671441939656
I -1.4200104216197555 1.1565022461454397 -2.0908535230120107
I -3.310543376383028 2.6105049832561478 1.9466037170564239
O 1.6519957233340925 0.7390886716086713 -0.3564842302585316
C 1.821452661653334 -0.4036029265468207 -0.2519052619433976
O 0.44895173138739497 2.712236483975025 1.6540025242389118
C -0.29528668870849717 1.9390829530635978 1.2604678888755387
