21
## STRUCTURE-ID: 645be92344dd85726332ebb0 ; CHARGE = 0; SPIN = 1
C -3.4284629569443488 -0.9758441621814172 1.2140599519399669
O -4.521566184251926 -1.2126163673973624 1.453668269170517
H -0.501762062699677 -3.9249136100522244 2.318968088370862
I -0.7580090620356976 -2.736639961740518 3.3198892128052875
C 2.6156401523217703 -0.9471079347912097 -0.6002355793401635
H 3.2281264612841998 -1.3370728198984723 0.21101404233811197
H 2.482312824590656 -1.7260169142693018 -1.3551812954237588
H 3.0936993083952475 -0.10565030578886977 -1.09547345924434
O -1.3231344406061447 2.307261708485016 -2.1180235707315056
C 1.262649603427797 2.292279044525105 -1.1022088803582337
H 1.9360709429121539 2.2879694787316294 -1.9506004817799791
H 1.7860632680258102 2.140382155071539 -0.16589072369994495
H 0.6696728497248187 3.197087160860584 -1.0903583091533797
H -2.0042669611674824 2.02434114858952 -2.726151359630374
Rh -1.6744641572917538 -0.5981183890835138 0.7723090496977223
I -1.6023862155184794 -2.5529688112495372 -0.9469887013988733
I -0.13599603895337617 0.700165734370254 -1.352852342353049
O -1.5300676442689471 1.7936611045750326 2.5487031702770726
C -1.6207195080110097 0.8617616667621224 1.8897068669460981
O 0.755377280614148 -0.9083175874639864 0.9115012954358499
C 1.2712225404522397 -0.5796423380543843 -0.13585524386786998
