20
## STRUCTURE-ID: 645bcb11f2beef4f47732d3a ; CHARGE = -1; SPIN = 1
C -2.2094549717325407 -2.01523522487138 -1.9789931656914517
O -2.7922454036301123 -2.656070449931578 -2.745552563796708
I 0.13385100379809153 0.14307400521563363 -2.799965701248041
C 3.4037528712681593 -1.1814136547559642 1.3529530950817892
H 3.114443200268294 -2.1543707501665805 1.748831667959545
H 3.7162057512662225 -1.3303705729831903 0.3207856749197685
H 4.207579579513178 -0.7543382303130205 1.9440493581188647
O -0.22652937664469275 0.9696916962213725 1.0339793241609763
C -2.4758561455625485 2.6389897259367303 -1.141254504989027
H -2.794020480005887 2.612228692574977 -2.176407376042035
H -1.3988799387823474 2.5439825167106216 -1.0727639695206284
H -2.8281617866566977 3.5291633214413047 -0.6364535926374353
H 0.5256429370326035 1.2858872218210258 1.601853945801421
Rh -1.1874219217245714 -1.0647626666157564 -0.7790743509635021
I -3.3487145214414586 0.9281656839699011 -0.13973061320202496
I -1.4303731512343896 -3.0700993022879914 1.034846235277506
O 2.1397341705830537 0.749725135830278 2.027525323252307
C 2.2240364677520836 -0.2774303843866933 1.385287499640245
O 1.2227378819490882 -0.7423246353957978 0.5976757502521411
C 0.003673833984408238 -0.15449212801391599 0.4224079636264479
