23
## STRUCTURE-ID: 645bcdf7148eb228e0315fa4 ; CHARGE = -1; SPIN = 1
C -3.029815733475836 -0.7012596765170303 -0.3007734981307848
O -3.6558814553365924 0.24201793864125787 -0.0024991567404765527
H 2.010385545025139 -2.7607315725374058 -0.00648542336336978
I 1.9422307977720445 -1.2095802464922474 0.38665048806231855
O 0.37490182919926723 1.0023954970173072 1.6959819117015986
C 4.2178116251707145 -1.5482529720181004 0.49184956329158597
H 4.516660164134727 -1.886108712298894 -0.49520231434522377
H 4.389354174640412 -2.292605817196754 1.2625606678609362
H 4.672122533004057 -0.5970507830677717 0.7453481652382513
H 0.40845038752326107 1.7381258820247336 2.3371735863479035
O -0.9270843015936345 2.1589806771765767 -3.5026945230006348
C -1.6184862723512614 2.3076562987691136 -0.963763900681242
H -2.2651033561194795 2.7682783233979076 -1.699567452184849
H -0.7645520198981801 2.95156261853172 -0.77996030928092
H -2.1700824139008024 2.1340728781821277 -0.04390794757534232
H -0.550526539501389 1.8317664095820816 -4.320731105355882
Rh -0.9207185665801644 -1.087194770862813 0.324407478751824
I -0.4538436877824159 -2.611519753186882 -1.8023140859240674
I -0.9663811632902949 0.5075985068930469 -1.7579171444884008
O -1.8150266482559865 1.0541784708230613 2.0892785825298406
C -0.8771196872779018 0.49387971881253667 1.5242116740203517
O -1.4029830625981294 -2.43495965310205 2.935341355419032
C -1.1143121485075023 -2.061249262571469 1.8830133878474675
