20
## STRUCTURE-ID: 645bed0e654fb561cb315fb8 ; CHARGE = -1; SPIN = 1
C -2.030922624713408 -0.43063518523264294 1.364352951529721
O -3.0531769929581096 -0.18447683202132598 1.8112504328892733
I 1.992577640218519 -1.5192198752708581 -0.1076075431319831
C 0.7185724135638605 2.0302286450221416 0.7183670018121399
H 0.2246204015789124 2.993309639646068 0.8417322956443016
H 1.5467143733277922 2.1780908677856727 0.017752599444804302
H 1.1005254482614344 1.6687191223980817 1.670504629707664
O 0.09702090219167862 -2.07758962954028 2.9386548615798054
C -0.30336204073618694 -1.074882551098584 -3.246600145273719
H -0.25858954713144167 -0.017987525879393975 -3.0084045441525156
H -0.7474260936027153 -1.2325713594027305 -4.2205168586167385
H 0.6788637692025019 -1.5281671175266824 -3.1772910487252455
H 0.45650962925929084 -2.256817545475464 3.833468893610794
Rh -0.3655861650192474 -0.816398876755183 0.652902841245821
I -1.5717152590573125 -2.0200500412204887 -1.7921559819284754
I 1.467888030201438 2.710405219454921 -3.1044553432477593
O -0.8910667016429901 1.2906648544903117 -0.9145685055234203
C -0.22174299638968517 1.1018467460493595 0.05426320629804642
O 0.8393435943859047 0.028051762286714636 3.157756108111155
C 0.32095221905975785 -0.8425203177096412 2.510594148726326
