20
## STRUCTURE-ID: 645bcb5e1b9015279a36ef4a ; CHARGE = -1; SPIN = 1
C -2.766311463445232 -1.37074641992312 -0.6575743705392033
O -3.8460244757012054 -1.6638005564874885 -0.9870100261824806
I -0.40916545049503306 -1.4505051214657732 -2.8898500561772855
C 4.279372848278363 -0.8155631238374748 0.3845622212976839
H 4.379310375957978 -1.4446565006959646 -0.500521930058797
H 4.980632568524948 0.016820015226838077 0.350865850863171
H 4.464741294998599 -1.4596268424377485 1.2432797569668341
O -2.855291800633118 -0.4119462135613699 1.9147315758748509
C -1.9482899060938461 2.481429321167745 -1.4821414570946103
H -2.7661630648959465 1.883571667321867 -1.0931218618481389
H -1.850328467631664 2.3393769579439034 -2.552001625356247
H -2.079078929487111 3.527013258843644 -1.2344913233522725
H -2.9439736234407055 -0.14537472955623273 2.852113898580488
Rh -1.0341658219376146 -0.9427752470816667 -0.27714890808881637
I -0.13204515457156232 1.7862647414983506 -0.5588892385647826
I 1.3674652950378565 -1.999102964497423 0.5610514560611106
O 2.4770820036058208 0.7971305775746921 0.4435864445786253
C 2.9205477715027053 -0.2932313118985684 0.4448756059067433
O -0.7048530371428207 -0.29962601769135483 2.4583463083527053
C -1.5334609624305047 -0.5346514904428035 1.5793376787804183
