20
## STRUCTURE-ID: 645be7c9e0b59e797353cd14 ; CHARGE = -1; SPIN = 1
C -1.8932053970882066 1.4285306946495089 1.1802697926612122
O -2.7585454441564363 2.0878233414139675 1.538234392276738
I 0.0392559423400884 0.9187380130860313 3.6803004523999814
C 1.8556574857618933 -0.03471090323625169 0.8352248937385538
H 2.0250848191899746 -0.8681463756589202 1.5299208424309518
H 2.5772870713544016 0.7409488394696858 1.1207238929337011
H 2.1423997412641693 -0.37774312474818045 -0.16824188566860035
O -0.575942591617782 1.9639714879773322 -2.805676656856156
C 0.32797210716470543 -3.251155430995645 0.0336551958815322
H -0.1978046547497826 -4.190409170207961 -0.09635014422020825
H 1.2632656830163722 -3.3837686735539276 0.5662436236246619
H 0.47531396303706436 -2.73587918027408 -0.9101426059723277
H -1.0799984608260482 2.6688534284119347 -3.2617472724102536
Rh -0.1524403814640802 0.6437200024779184 0.9220078637427007
I 0.7325031671668529 3.129271366094603 0.3639118816113983
I -0.9406557519928647 -1.9694766014188556 1.2424612617236217
O -2.2734586228232194 1.8637158946172994 -1.3471196688391849
C -1.1765300852310452 1.5080195905627503 -1.7311248391955398
O -0.014018961823587167 -0.5545308400850417 -1.6643972691315974
C -0.37613962852250316 0.4122276414178406 -1.0281537507311793
