19
## STRUCTURE-ID: 645bd306596913550f099dea ; CHARGE = 0; SPIN = 1
C -0.18030990698584395 -0.19733318095778768 2.565538073626837
O -0.2781187411681854 -1.0300673355018348 3.342463419434155
H -1.2724699139572746 -2.9642699705012663 -2.1397530717608637
I 0.31554789078791434 -0.5893224222503097 -0.7787517885304942
O -1.819250199520638 -2.214043401984086 -2.4721072260507126
C -1.9703709210069742 -1.2501507919573625 -1.3976692857779736
H -2.558273485383079 -0.4169227769108077 -1.7655528108115524
H -2.4857808920606796 -1.7348983498497916 -0.5762253376112676
H -1.342146689778079 -1.7784532501605284 -3.2169673497030624
C 2.511529947606187 -0.10823830735528328 -0.3961384032200025
H 2.6466520706628938 0.9725433135288131 -0.31501037852809977
H 3.1464355566294593 -0.49523847920377967 -1.1888586176359361
Rh -0.12062457769459484 1.1841697816227026 1.31441596691044
I -2.827334875262476 1.058160302931466 1.2377406548992458
I 3.191027547651582 -0.9855745061285986 1.4698958246226572
O 2.2415260511701067 2.4988898903224466 2.664156591261879
C 1.3351683530541871 1.9862332853212072 2.1721430914762254
O -0.31406950153314456 3.4691449843941933 -0.6268837332607645
C -0.21913771321136208 2.5953712146406005 0.10756438065931878
