15
## STRUCTURE-ID: 645bd5686f89e07330315fad ; CHARGE = 0; SPIN = 1
C -0.8278416706548781 -0.8414937945673189 0.3797431435790278
O -1.6659749728296702 -0.592526221760209 -0.41662334239733606
I 1.880496508892053 -2.2993984587509146 -0.9287736120255473
C -0.8155357497854256 -1.6126071758523983 1.6432207054795238
H 0.16725275472737186 -1.6139424037644827 2.137727244750334
H -1.0918697300925568 -2.644207474563855 1.4099673714067373
H -1.5666732828635783 -1.1950248096838896 2.317709126950413
H -0.59719908713362 2.6898783877514507 1.3794677570215315
Rh 0.9901002759128461 -0.12503849009971787 0.11740194397899542
I 0.7184668389156464 1.9343572283575687 1.8372786037214486
I -0.4017381513354337 0.3592607294055296 -3.6572002668530055
O -0.7558221028374515 2.10943762640347 -1.2857011730475378
C 0.06239947077981608 1.4305928188076138 -1.8287763370018708
O 2.499437532839091 1.3487594874851698 -1.7360087823073236
C 1.4045013654658232 1.0519525508320198 -1.3694323832553819
