17
## STRUCTURE-ID: 645bc7a490fe7516bc36ef58 ; CHARGE = -1; SPIN = 1
C -0.7817842262594289 -2.6706212806753493 2.526665056651158
O -1.4474111657370734 -3.235628337771086 3.2936336883447277
Rh 0.3529879613481107 -1.9882261132322754 1.2401834777535115
I 0.32851223204390445 0.5801999309614806 2.2738317142128674
I -1.7481774572988193 -1.5230025100642635 -0.44589223551337265
O 2.3284421543540463 -4.192019363541865 1.8316601353507125
C 1.5764425471556254 -3.336349360314221 1.590202517678843
O 2.426467371620858 -2.168716714459989 -0.8464963681432967
C 1.5938894433702004 -1.4539812586963787 -0.2676685302066108
H -1.722858195216744 2.6213268436831147 0.4188186548245596
I -0.5462463445204679 2.24701782226822 -0.5737626421280594
O 1.4929494629189708 -0.17659742753794608 -0.7702839837685215
C -1.400996432814316 3.68252902497791 -2.0224404330714907
H -0.6918982772687503 3.759833795484542 -2.840918051792815
H -1.5159755859395327 4.634226833252597 -1.5131025494791612
H -2.345064618651491 3.271877057751886 -2.367489413577428
H 2.100721130894907 -0.05186894208635387 -1.5269410371356344
