20
## STRUCTURE-ID: 645bde0e1393bb2dd50203ba ; CHARGE = -1; SPIN = 1
C -0.9193295633629436 1.1819057222635112 2.0926520287967683
O -1.7334124959012345 1.4891105730883167 2.8594948242352447
I 0.7594434172385917 -2.1693268019639165 -2.600423639787028
C 0.20506992454821132 -2.276428945939441 1.4399629360414437
H 0.935858523885115 -2.4673833565825998 0.6536436858067396
H -0.7840580331688736 -2.2103859475528753 0.9837165602572345
H 0.22059303464094593 -3.101069122359086 2.1522347974739815
O -2.2402652545259394 1.101711145351764 -0.7362539273016991
C -0.5870990198523067 0.9353875505032402 -3.104579776244848
H -0.30927854422361845 0.2718937174047059 -3.9166775778916145
H 0.17267855129982812 1.6899215572379511 -2.9190597803286304
H -1.5522104415595108 1.400277716347768 -3.274229041432524
H -1.8515402455150065 1.9474562617861775 -0.5130121372295101
Rh 0.552868916270564 0.7240503957170742 1.066728996211719
I 0.7455376401130133 3.1247701434556228 -0.13854099864534028
I -0.8391821952332076 -0.20080363633405987 -1.2966482181842067
O 3.5045746503047113 0.20185065869019106 0.8958042923911572
C 2.3604911362187235 0.34609848032029056 0.8420717431863914
O 0.8117734079809331 -1.0155778856192121 3.354252006436162
C 0.5474865908419947 -0.9734582258154282 2.1588632262085703
