19
## STRUCTURE-ID: 645bbb0de7d8de653c3adfcd ; CHARGE = 0; SPIN = 1
H -4.193907853106305 0.9786082875716411 0.9718684915157131
I -2.8182816738357053 1.7318272463062683 0.5630367638040186
C -1.5847555283091035 -1.5595177926125734 0.19015144689996127
H -2.4916388360460355 -1.756432120419287 0.7633913742581387
H -1.8217361460150303 -1.3116679201039338 -0.8470934766177669
H -0.9147883718845905 -2.417752691081354 0.23661985205517222
O 1.3302976643867386 2.6344313036389453 -2.7072800000891215
C 1.9329911318774784 0.2105676026057566 -1.6509422458802832
H 2.179338063811675 0.4495360845323296 -2.67503812844852
H 1.6906849655213936 -0.8378963510116438 -1.5286463304732119
H 2.742946919635355 0.5117318203184335 -0.9977188004542056
H 0.8303697240094174 3.4104364769107547 -2.9545488461488243
Rh -0.65954909547088 0.12994291783527862 0.9894291408857603
I 1.8345212658932488 -2.669378936195561 1.2078672418416279
I 0.2297405122963163 1.3577896984248472 -1.171363473466142
O -0.510060007003659 -0.2690171124372643 3.932995310221805
C -0.9077357484974218 -0.29677082004468 2.8644323153368845
O 1.9786027296644089 0.2481189579826598 1.569108530280967
C 1.1529602830726977 -0.544556652220651 1.2437308344779638
