23
## STRUCTURE-ID: 645bce5387d8d749f73adfdb ; CHARGE = -1; SPIN = 1
C -2.6025220056932503 -0.3743924297287559 -0.2597410378332449
O -3.387908988178723 0.0960665354051412 -0.9786690242295986
H 0.5033646134360663 -2.4426665227173805 -0.38743622677098644
I 0.8812834882745334 -0.933435543701706 0.001461131056352707
O 0.7820039537816584 -0.1581404480272102 2.9950028842530045
C 2.7654834552644205 -1.5948361028334836 -1.1447630484416884
H 3.1960150195625237 -2.4256815957415143 -0.6009965799392631
H 3.441009236249693 -0.7494181227093901 -1.1630978657287963
H 2.4596766865489186 -1.8812907066300077 -2.143943882277051
H 1.115604027603555 0.11853653296194894 3.870183511170111
O -2.068595451088089 2.248598595728705 1.4462202268665343
C 0.2381502872359522 1.191730093164382 -2.8374626457218572
H 1.3191689364238697 1.1844371863051253 -2.8710478689717256
H -0.10468004703615778 1.365442182008074 -1.8246635866285028
H -0.1750590483924692 1.9277590075672388 -3.514690262714458
H -1.7862561044210632 3.182021066630834 1.3668640328572566
Rh -1.486378532120262 -0.5107081237860095 1.2232255291951273
I -1.7329154718999429 -3.063093474622481 1.8826596668367925
I -0.4396787655454543 -0.7315139905815637 -3.4593358475830853
O -0.06431105700450941 1.902191690755569 0.5476658807272137
C -1.0945133109491358 1.4029310295906763 1.0054076055682246
O -1.177208441742513 0.32891971479563525 3.92593552691489
C -0.5817324803095942 -0.08345657383380324 2.9212218813947337
