20
## STRUCTURE-ID: 645bc108f8361e6fc260069a ; CHARGE = -1; SPIN = 1
C -3.0296454057227136 -0.5350640867098099 0.9498456973167223
O -3.655349321574102 -1.0335057907098277 1.7764462417727407
I -1.1386201701121128 1.7938896329133758 -2.37346268423625
C 2.5186219073531038 0.1529390095877701 -2.1698036153652893
H 3.376431078309251 -0.5012182629515062 -2.0141590554554134
H 1.7605347509564642 -0.4148646942319635 -2.7050294463118467
H 2.82788915848782 1.0308536980509742 -2.7319753201561525
O -0.955921468879105 -2.0678438146819924 1.230553878869099
C 0.7780059856591102 -0.04055622394277988 1.890940783445583
H 1.3772287218385326 -0.7118108677147044 2.4917985373353373
H -0.2024923230860533 0.08977462223044229 2.3302899670409754
H 1.2787407812793954 0.9057410919355491 1.723236175500217
H -1.096547875823332 -2.963921413086469 0.9240795590534222
Rh -2.1720863489470106 0.36330898932892813 -0.4076288119875719
I -3.0637542850585127 -1.5477143050188396 -1.9921070223354973
I 0.5164467519289937 -0.9547670207320824 -0.010405940628081714
O -1.572180990370009 2.6470205074075626 1.4131500102335393
C -1.800260169029337 1.7709798559341436 0.6964045254229334
O 2.2461049359187437 1.4929244178431653 -0.1804256215059945
C 2.0068542868724593 0.5238346545479913 -0.8417478580068002
