15
## STRUCTURE-ID: 645bd750efb47952d336ef58 ; CHARGE = 0; SPIN = 1
C -2.7264974076697794 0.8512222834852471 -0.7991288422981865
O -3.397853431887421 1.103328791919466 -1.6900295783433974
I -2.2323795813658944 -2.07882156377304 -0.0730500335475511
C 2.7126837883795774 -0.84369781731482 -0.9510565122444717
H 2.581971688318126 -1.4944762839758 -1.8170747334097241
H 3.094426405517153 -1.4133511722461312 -0.10433155727041919
H 3.422573161481026 -0.06999608734888883 -1.2460565154277041
H -1.012716244610355 -1.949059305439772 3.1645810093356896
Rh -1.6980730448302916 0.373952481434375 0.6490979422230974
I -1.0794492836001495 -0.362769192713309 3.223707006871532
I 0.5427097437982005 0.9785914397389339 -2.2321399728038713
O 0.8058226252340543 -0.2810638892578532 0.4051851622721417
C 1.4338093866279953 -0.23463942426309445 -0.5998412523115639
O -1.1041527608834114 3.2672056606567494 1.0950823719578173
C -1.3428750445085975 2.1535740790979365 0.9750555049966646
