15
## STRUCTURE-ID: 645bc7872e58a447af108f10 ; CHARGE = -1; SPIN = 1
C -3.108108821093566 -0.18365532907293888 0.41884732035281214
O -4.148147247318535 0.29135191402072086 0.2885105802692796
I -0.0772519554564541 1.3373388970141526 1.8345007971697016
O -0.26963695333720955 1.1380559020856231 -1.5680046549261635
C 3.9385403972249744 0.8343169117999606 0.5184598415306731
H 4.506961995692904 0.5227452467668448 1.3761938135505862
H 4.236216615475705 1.6916139562353094 -0.058052967640744794
H -0.31345636157697626 1.6454595622708978 -2.402780318480879
Rh -1.3086237047088018 -0.7469374815441098 0.2739460276265886
I 2.267869282484857 -0.16455231393303238 0.018099609434946613
I 0.06045578153254004 -2.5047480139412395 -1.2958803261211385
O -0.9639685608315834 -2.7830153443045904 2.480080202412822
C -1.1319767054796932 -1.96909848850123 1.6838335326576828
O -2.286691758875525 0.48669630995767504 -2.2092889791944064
C -1.4021820037326278 0.4044282711459365 -1.3584644786417943
