15
## STRUCTURE-ID: 645bd1f9a53737491839f29a ; CHARGE = -1; SPIN = 1
C -1.8078921097203213 1.6551008512620178 0.16501237967264049
O -2.204377348196371 0.6801977308288231 0.6586058697647058
I 3.124550734719095 -0.10104562796120027 0.05698276409871143
C -0.34453573275717386 -2.112050785905701 1.318452083558907
H -0.9481823305626563 -1.5204005914232286 1.995361225897659
H -0.6443409659886145 -3.1528308800933145 1.3164523132236832
H 0.7129747150872102 -2.0165293326810874 1.5384949354539426
O 0.4466415014322851 -2.4930439908324673 -1.5534473776928945
Rh -0.01143184549182723 1.1165070921853233 -0.9520294630030798
I -1.2969932481894142 0.592649934255257 -3.2182459510401213
I -0.6554665792339787 -1.3744921716488123 -0.6578697751399856
O 0.9368025661605137 1.1161549226135732 1.8271121127394718
C 1.0329832638758374 1.0054403844229975 0.6645761099936085
O 1.0390088440748744 3.807353513309834 -1.7416340442384246
C 0.6202585347905522 2.796988951667981 -1.4178231832888146
