15
## STRUCTURE-ID: 645bd6a71f699138b75a4840 ; CHARGE = 0; SPIN = 1
C -2.2178817130202817 0.2221743035344934 -0.5890781686879887
O -3.2807382507370133 0.13654605748840193 -0.9688436522939148
I 1.3055393761275103 -2.8739456441701132 0.24285986858422437
C 0.15640249475276077 -0.09166198369783404 -1.7418720356173805
H 1.2451601137253552 -0.04615123898177033 -1.6809732068886354
H -0.21153089383433019 0.6740228136511358 -2.4218567670675104
H -0.18042980225091906 -1.0801912558726816 -2.060396173215497
H -0.846184118832487 3.5448130710587176 -0.8464792470217898
Rh -0.4986513478543627 0.15963875723918525 0.2568447728442684
I 0.24784018558579085 2.7870643770346675 0.04151230015818866
I -1.9025534095312842 -0.9100026246615345 2.2806820531559797
O 1.4284166916527796 -1.781039929842818 3.0202323602678898
C 1.3907554669195157 -1.4087212726646545 1.9014908260337238
O 2.1369793615402104 0.7359248135988974 1.2878482450513176
C 1.2268758457566915 -0.06847024371418238 1.2780288246970959
