21
## STRUCTURE-ID: 645be8bb613404313f5d491a ; CHARGE = 0; SPIN = 1
C -1.873464401448606 0.23924255473964814 1.525226299719059
O -2.7034099982828157 0.8795436671607165 1.9814174682789618
H -1.7121942912680752 -4.185295666345579 1.298986313059586
I -0.7560202838759755 -3.4117166908875887 2.2928940985117316
C 1.8834270575449523 -1.1952528258841169 0.26791220128467125
H 2.425265285790695 -1.7124863316776175 1.0602808461802744
H 0.9074474531958414 -1.7689231564452017 0.10321390097044927
H 2.456512799979815 -1.2207309031660944 -0.6586268161520191
O 1.13681601183475 1.917319952694657 -2.8451351446662754
C -1.3645445531947924 1.8156466746865223 -1.4305431154031514
H -1.360124678913225 2.6447530536239348 -2.1292990762092727
H -0.9831925862513474 2.128316926521812 -0.4623288884680161
H -2.3463787565941776 1.3615455353602888 -1.3577115913411515
H 1.7626558818973248 2.1068418539593177 -2.144715644534683
Rh -0.5289260875099489 -0.8212204847718917 0.8340818908471282
I -1.8703691329250585 -1.694438278090536 -1.493277793445468
I 0.02747408400546256 0.44663595917723026 -2.251426416258026
O 0.8722520600446309 0.7647674522772631 2.977222336914078
C 0.7672524844346379 0.2814379361602319 1.8841182174304507
O 1.7147239066498328 1.2019562574214167 -0.10904087318685174
C 1.5447977448860424 0.22205651348559213 0.6567517864684742
