15
## STRUCTURE-ID: 645be3a0616c4761d40203b7 ; CHARGE = -1; SPIN = 1
C -1.9867731005993416 0.554098127981784 0.49913771682314395
O -2.9032693586163703 1.1239778747367826 0.9003047651312948
I -0.3947643272418026 -1.6098788610290253 -2.5652893821804397
C 0.5558734765460266 1.8419139038695806 -1.4380972983671148
H -0.4141857967612683 1.8290517278389264 -1.9333429179081327
H 1.28233206282991 1.3673181454604186 -2.101550843026462
H 0.88039369388568 2.863809105464663 -1.2477063523424765
O -1.617338686866458 -2.4149209240353895 1.1409739068251785
Rh -0.5782736176188453 -0.5512116007030514 -0.0016080164195305527
I 3.5481879469901934 -2.623424351159018 1.6942148083642707
I 1.5390761348738233 -2.0903562468271386 -0.19356556207269635
O -0.6652164161596364 -1.1925131051341804 2.823395822943218
C -1.0319268586083352 -1.5525416829637357 1.7505165252350785
O 1.243564813546517 1.3695106116497227 0.8068193309482138
C 0.5423200337999086 1.0851672748496575 -0.1342025039535232
