20
## STRUCTURE-ID: 645bc06970d6a145942fb200 ; CHARGE = -1; SPIN = 1
C -3.2568233188998152 1.6781088359960266 -0.5828616754300204
O -4.377247169857714 1.8254576725523455 -0.3894516957960236
I -2.0718313240446355 1.4687687571350505 -3.426218074667292
C 2.3894599572586985 -0.5453455009356217 -1.401203284067961
H 3.0294038323972274 0.019793129995764595 -0.7208823610733548
H 2.548252840528505 -1.6085169674843032 -1.2488160315296157
H 2.6488039500071325 -0.26970671271886193 -2.4220055662651396
O -1.1194316198581207 -1.881816856587921 2.3235339735878138
C 1.0157540574215704 -0.22186335011414426 1.9072424152653729
H 1.8559418641240073 -0.8530949157923882 2.1656365554209103
H 0.39264625074584436 -0.05506690822322291 2.773338576267859
H 1.3512815652926427 0.7139225496923048 1.4720740890922959
H -1.672592712151814 -2.6509833421436078 2.194633184106064
Rh -1.4846844774251804 1.369010266081686 -0.9094266449786356
I -0.2786678181607525 -2.050367296142695 -2.6037214439348735
I -0.1546500654211844 -1.2583363474686537 0.46653440985676337
O -1.1415701127069637 1.890295529910212 2.016338080094977
C -1.1654880461914978 1.6649391877121689 0.8875382021940368
O 0.521586091131047 0.9445848185852519 -1.4029245826735632
C 0.9698562558110141 -0.1797825500493282 -1.0993581254696263
