20
## STRUCTURE-ID: 645bdc662d49993721732d3d ; CHARGE = -1; SPIN = 1
C -2.2793902534236996 -2.6259822693025043 1.260800857131776
O -3.2321320070440867 -3.278375747934088 1.3252822069765333
I -2.4611879834192165 0.6499879855562214 1.6467120413348073
C 2.1759016990338256 -1.2834328437875406 0.42184339234483037
H 2.0152497401262117 -2.2629964838021888 -0.02864597895423321
H 2.573334016366817 -1.4328003412739547 1.42657076790465
H 2.8938679869060002 -0.7116306309689001 -0.16830817434041453
O -0.48950919721248715 4.496051543428304 -0.8518605795152404
C -0.03799417639515811 2.0182130267737644 -2.251649500540923
H 0.14714288818862029 2.9061253858909044 -2.844053913435356
H -1.0134847548501904 1.586930305271383 -2.443691094429294
H 0.7387308635210732 1.273976372785357 -2.368226945789098
H -1.4127779221851908 4.707549752406498 -0.6680778759351961
Rh -0.7837084408883521 -1.5580023060736619 1.0421201694177602
I -1.1287177283817749 -1.677476926560762 -1.6717820726768244
I 0.020747098191452797 2.684426104077499 -0.23903472226573189
O 1.019750228469706 0.674304069972415 0.12668565052864225
C 0.8600269662476843 -0.5099092715089664 0.5408647423039318
O 0.324493875811483 -3.171418363655214 3.32415278947896
C 0.06965710093727913 -2.4855393612945647 2.4202982404604096
