18
## STRUCTURE-ID: 645bd2762a953171132fb203 ; CHARGE = -1; SPIN = 1
C -3.0813641941144434 -0.4492798953678181 0.10792300194727743
O -3.8066522108259946 -1.168085694417429 0.6683819288097146
H 3.5825984419478245 0.46818207907112164 -1.2090731264093058
I 2.0770992905422316 0.4186575594983169 -0.43983042833473374
O 0.5674577345396746 -1.2439065175450414 1.761716461242792
C 1.9036150353998207 2.3789610152719334 -1.3566589884710567
H 0.9659279074890317 2.7976826286354046 -1.001875065589722
H 1.8772595465540407 2.2269618939610374 -2.4340462227363804
H 2.755415980310018 2.960592109416006 -1.0144559884304993
H 0.7770211066157574 -1.6401119002123636 2.6298817712707665
O -1.469842436696675 1.0536807161623956 2.652588462568566
Rh -1.0948208465934113 -0.6420038928469578 -0.38470272018796664
I -1.0322493958814865 0.5613938422202939 -2.7187940957936254
I -0.6700784977947544 1.6472767055514081 1.0685582974371426
O -1.4643665268844244 -2.0842468114783737 2.1348703115965355
C -0.7365781301144255 -1.4403836141474105 1.3914394673325503
O -0.482333411951686 -3.4948419552569967 -0.982490183904745
C -0.6681093925404737 -2.350528268515629 -0.8734328823470162
