15
## STRUCTURE-ID: 645bd5e39a8e615ae536ef50 ; CHARGE = 0; SPIN = 1
C -3.156392688276599 0.5162202600907831 0.8677053284285029
O -4.242903118128479 0.5513062298177219 1.2222991658254219
I -1.8107710844669758 -2.200503506958391 0.07625817849022934
C 2.8218573358052184 -0.8981935445969631 -0.10632993311321529
H 3.6599679860752783 -0.3616581579253821 0.33884940813353354
H 2.847377338948572 -0.8278361125254943 -1.1937990578009352
H 2.919950524715546 -1.9428167854029883 0.19848513237789722
H -1.627684866108138 -0.7016955081159503 -3.303809319016478
Rh -1.4232541461243764 0.36903936905469764 0.29729846188910247
I -1.5359181153341521 0.8172378218194596 -2.886964058808404
I 1.3353407017383223 -0.31532312909804755 2.567994111428246
O 0.6131096291887528 0.011150714306196232 -0.24347989398794034
C 1.5517557341268005 -0.3739027286518614 0.3948846392752138
O -0.8694589446685934 3.218152674922192 1.0418514942824024
C -1.082976287491178 2.1388224032640206 0.7287563425964251
