20
## STRUCTURE-ID: 645bc9bd89d5514d2c315fbb ; CHARGE = -1; SPIN = 1
C -2.586893744812577 -0.8399087040244613 0.06036806393098481
O -3.6182447869258003 -1.2526615188941277 -0.25838823882349937
I -1.6014370963610796 2.044005782297413 -0.8943015188725332
C 0.2982427611150541 1.8474346744285934 2.575692513163388
H 0.5997622881176045 2.844325826935291 2.2449091270011197
H 0.9719715366529325 1.5479014701240519 3.380956021808924
H -0.7271631667176577 1.8817338861133508 2.946432671485642
O 3.4048436554109736 0.14575013566440595 -0.1639615383132866
C -0.8469332098949647 -1.3748122821052304 -2.978452049645785
H -0.6261618766345683 -1.8047767267078476 -3.9462564381677177
H -0.20889806268368627 -0.525893419752776 -2.7657089751992907
H -1.8907994413065385 -1.0920450293578778 -2.9054515539082373
H 3.6921600233641847 -0.3525957443372952 -0.9529177917325707
Rh -1.0298068847838104 -0.04074445780167021 0.6645490169410436
I -0.9896673328849357 -1.7296019972576349 2.7299007022221633
I -0.45280604067347924 -2.856872955942073 -1.481915339719568
O 1.3049194536567168 -0.3481493065730008 -0.761043595708854
C 2.1011672658403717 0.16167955172230575 -0.012607672351686519
O 1.7696467511088667 0.848830861575212 1.0861268044567145
C 0.43609790841239576 0.8963999538933598 1.4320697914330307
