20
## STRUCTURE-ID: 645bcaf357aab61dd05c013b ; CHARGE = -1; SPIN = 1
C -1.8775112871793782 -0.7419427565435469 -0.4824299198991549
O -2.927834887776466 -0.847574923487701 -0.9389881019989154
I 0.5287649596295977 -0.7324539691114752 -2.7291132976701618
C 3.195771115715565 -0.9919535484778427 0.34383692796922255
H 3.3382898500769973 -1.7283057662534747 -0.44712125919354406
H 3.9720344365662235 -0.22790028280594946 0.3108901651316542
H 3.228362598194144 -1.5260070271256434 1.294390210419222
O -1.6644031930653906 -0.7387923772298843 2.3100774453547874
C -2.002101197303146 2.513395713015727 -1.8957833187520916
H -2.865806924869163 1.8624706125184765 -1.9640118772145145
H -1.1483486476342841 2.064208972460989 -2.3897502169979306
H -2.2153918183197945 3.4902646102430865 -2.3086415903737088
H -1.7535757588872756 -0.6388952645097558 3.2814308486590678
Rh -0.046582346537261426 -0.7456261946051368 -0.0340874779871455
I -1.5180133472821458 2.7609336107435225 0.18458229436936727
I 0.23433205789090952 -3.3618485482543687 0.4805383403057426
O 1.5798615196589603 0.8112146916397863 0.21342392830706594
C 1.8596085289215474 -0.37013124942737285 0.21633445213727256
O 0.49411747496171315 -0.2842879345807057 2.655783297070976
C -0.41157313276156227 -0.566768368208803 1.8986391503627367
