21
## STRUCTURE-ID: 645bee236f3f965e27315fb0 ; CHARGE = 0; SPIN = 1
C -2.4329776392964257 -1.208809401525902 1.5208813702394923
O -3.4866066801843902 -1.4821459496672003 1.8708069677379358
H 0.003358589088714273 0.11932845481154761 4.3239915215562155
I 0.12320043941400419 0.8968223219870847 2.9317109504341414
C 2.3336988842100483 -1.7063865118650885 0.21688072775334816
H 3.168437132433208 -1.3356263525175627 -0.3781308742159006
H 2.6458958986632015 -1.7879872807315391 1.259556756766135
H 2.0390343855839466 -2.7036519597250597 -0.1066887656328737
O -1.4545747411598131 3.6916192738034797 -0.961227642457142
C -0.09885663277156324 1.748870608814084 -2.3519235737050996
H -0.5599752828341186 0.8614151920063867 -2.7677031579302174
H 0.9815488354164602 1.6836773924822956 -2.384024149713767
H -0.47320651485846693 2.653599859723061 -2.815403873951613
H -1.87810440988107 4.175899956239742 -0.2434542403141062
Rh -0.6710331367624949 -1.0110767569209738 0.8607285985889946
I -0.0486025369791534 -3.1242560884659185 2.5762781480175554
I -0.6534094413958706 1.9208153769976546 -0.32364988324596944
O 1.380068785455813 0.360124047666662 -0.35592759226577925
C 1.170882337443693 -0.7603193875521955 0.13817988904267706
O -1.1159561587749431 -1.6559649495525997 -2.0543576615358528
C -0.972822112810754 -1.3359478460079577 -0.9565235151682174
