15
## STRUCTURE-ID: 645be47a5edaaf55d2732d48 ; CHARGE = -1; SPIN = 1
C -3.923589442646574 0.7506358962200901 -0.5295022160655681
O -5.006141824569017 0.6639943893284747 -0.9535167855862686
I 0.2056994711632286 -0.2464293766858591 -0.5492899539371192
C 3.9628019367390594 -0.6110555387753615 -0.5837446397442366
H 3.985656679542066 -1.7076649615362793 -0.6283692897064079
H 4.892039057068341 -0.19575014998904877 -0.9938370080715652
H 3.099098874674654 -0.2916188818687271 -1.19651942990607
O -4.29230747642783 -2.499946825240473 -0.6635497422339347
Rh -2.2253041587609594 0.547623608311869 0.17139745349854116
I -1.794469590643057 -0.24703114459199085 2.857143079557576
I -2.5246757133006974 -1.8833829008955352 -0.6945388978257356
O 3.6294590518435537 0.15126524507205585 1.7511197994635321
C 3.754451095708233 -0.19454230496415917 0.6933182151787469
O -1.832404205102353 3.443919820091629 0.7819816008295112
C -1.9303137552887728 2.319983125523281 0.537907814549164
