20
## STRUCTURE-ID: 645bcc911246e46a505c0141 ; CHARGE = -1; SPIN = 1
C -1.5701239958406445 2.6715497517334197 0.3807552591462565
O -1.5978412458653846 3.7536301774015812 0.8711946333676288
I 2.4322359782734 -0.7765945172220196 0.789299487970992
C -0.18190591578343784 -3.1042700613678944 -0.4323219821294078
H -0.32062905035269107 -3.0410986432170355 0.6871447695202513
H -0.5741142925926477 -4.146393373788247 -0.4231663517502286
H 0.6274505375782466 -3.361907059842686 -1.1621860689827674
O 0.9063566914552103 2.550459039277527 -1.6285344486928195
C -1.236481059659777 -2.2232287616019306 -1.1158994268157019
H 0.7417275679998018 -2.4794875076858705 -0.01954376527944955
H -1.486265993262631 -2.5800069712812714 -2.1138447047034927
H -2.1314695470031575 -2.113619188968685 -0.5051518420981962
H 1.4170942608521604 3.2356477215713686 -2.1012098065583884
Rh 0.002632679217154399 1.3428364127036803 0.7837501984646861
I -1.4408250542407033 -0.38894960324960415 2.180083399466502
I -0.5764933284539234 -0.06473237587381658 -1.5227922370991027
O 1.7818906799679828 3.5668637237130016 0.14130758879496869
C 1.0598475639656284 2.648042114781735 -0.2602365039217988
O 1.3360789131761202 2.496606108973904 3.187014281721594
C 0.8108346105692956 2.0146530139428123 2.2643375195785076
