15
## STRUCTURE-ID: 645be373571d670ca332ebb8 ; CHARGE = -1; SPIN = 3
C -2.2640344258677167 -0.3683645304157954 1.5201501143231428
O -3.235887586674811 -0.6296939130474554 2.1139029519044437
I -0.10148433001673157 -1.0475752169906833 -1.4735427054193524
C 1.7562853230165834 2.187254912981111 -2.43925103865809
H 2.1637902366230737 2.766575842277896 -3.2766122347950692
H 1.4963401176473752 1.1654370796620517 -2.776975608509068
H 2.5108337189552272 2.083381622948487 -1.6467673519514425
O -1.1822929362427597 -4.7739776864675445 1.6262747186662394
Rh -0.4802977963883789 -1.0031472636876801 1.211229409354283
I 1.1230052950083298 1.1398549719215119 1.4375948922500386
I -0.7820481155602587 -3.4599889381046225 0.35760044957609977
O -1.0313227093699582 -2.377039528034948 3.751555328279892
C -0.3396171188543337 -1.729321011002797 3.053466343071387
O -0.2748859905592612 3.2770775466048265 -1.530673904226833
C 0.6416163182836234 2.7695261113556575 -1.9279513638656702
