21
## STRUCTURE-ID: 645bee6329ec6377ff732d43 ; CHARGE = 0; SPIN = 1
C -2.53353865868534 -0.22222493113687472 1.0028222523851693
O -3.3652257262614933 -0.15169008588310123 0.19975476153049349
H 1.1857381267066673 -0.10410747079927489 3.771201923616622
I 0.4876207381563375 0.7146783083484691 2.4271541955424354
C 2.6823615980720232 -1.7296024698724197 1.3459666523271216
H 3.0702462567792126 -0.8233918814566336 1.842028063312524
H 2.0373561966516496 -2.2292699720418603 2.0819999134113147
H 3.5223562055266155 -2.4021419557941743 1.1067803556773823
O -0.5900063944890881 3.8880257321875553 -1.1723497836874992
C -1.607743597577142 1.5896718614287708 -2.079302538377073
H -2.4347217677234747 0.907359236080446 -1.9054179046974091
H -0.977955389566033 1.2257607608478567 -2.883748882171615
H -1.974385300110957 2.5782040904790313 -2.310365908167233
H -0.06865928595587859 4.525703745782862 -0.6871670918046799
Rh -0.5098870707176583 -0.7703686616722271 0.4762602051775825
I -0.6276351375865227 -3.1920064240667956 1.5266144898239455
I -0.4766883197707427 1.7726764173350926 -0.35415708845002175
O 2.1458247716178445 -1.2220261572472464 -1.0017199475070642
C 2.081707202915246 -1.393676828158865 0.13512068193510032
O -1.1768377726946042 -1.6311479640682085 -2.2967239789765443
C -0.8699266752866508 -1.3304253502924408 -1.2247503709005976
