20
## STRUCTURE-ID: 645bc1466de870035e39f2ab ; CHARGE = -1; SPIN = 1
C -1.908695155333352 1.85005776701389 0.21384162636645454
O -2.5348524405176067 2.7051861552361465 0.734422676660705
I 0.48015260472660287 1.3947292429950873 -2.228165516337831
C 2.909339951295962 -1.3974435157784568 -3.0429958044277465
H 2.8965255773086325 -0.4703465896072007 -3.634146543089682
H 3.780440215761977 -2.0096181620074547 -3.310749855452888
H 1.9873108669130353 -1.9491452068228845 -3.2783549757541013
O -3.701193595932824 -0.5878901192518238 0.3469865301579744
C 0.07234098865865346 1.3516800362153543 2.982281629167429
H 0.6453810874263516 1.4568281673307135 3.893178006497497
H -0.8390923594549407 0.7911755505094705 3.1530825026457423
H -0.16377457120566444 2.3184704286435007 2.5512648992750804
H -4.306631504552684 -0.9341301186570902 1.03019235317963
Rh -1.1238785888034104 0.33496193301070193 -0.38675807966084397
I -0.6303620834209587 -2.1113153917509595 -1.2314939789901065
I 1.2262010320937229 0.2705263659767486 1.5807154613434933
O -2.2995163631097078 -0.6415679389434853 2.0779394612230773
C -2.4362112208638256 -0.3922572089084401 0.8699151868841054
O 3.01474702353483 -0.8834569556999969 -0.6107057791515897
C 2.9317685354752476 -1.0964444395038733 -1.710449800536425
