20
## STRUCTURE-ID: 645bde45a01ffd11f860069a ; CHARGE = -1; SPIN = 1
C -1.7521635006969523 -1.84972430000436 -0.21602877352117583
O -2.7807524015485945 -2.3560713280718746 -0.038579650481525
I -0.4106444325277042 -0.6587191214852319 -3.1096692353766464
C 0.5744691381210661 -0.9681556254433656 2.45537944066417
H -0.25131436459766404 -0.2577593122477494 2.5203538813353394
H 1.4900122097410577 -0.4148698696887819 2.2441502146790446
H 0.6821443924037116 -1.487508209463711 3.407359457064297
O -2.273012313915785 1.232789360749809 -0.6231692230474053
C -0.018253017331562024 2.8396881923600783 -1.5914827957090363
H 0.7700384458778556 2.398075455248081 -2.193901423858152
H 0.2722581679137816 3.8122345623338894 -1.2054983825939258
H -0.9454937483586967 2.8874527066181273 -2.1504329217384366
H -2.264646045170981 0.6638523172500224 -1.3927289902420792
Rh -0.016610711889438776 -1.2759239667540991 -0.5147920822233901
I 2.0110861578157575 2.601689525125505 1.0676229469185083
I -0.4281526409300887 1.532736127189967 0.06370605275851056
O 2.8740790368028826 -1.9652754026854375 -0.9381272587856134
C 1.8042766093881064 -1.572923488704064 -0.7533095304595495
O 0.3415986071766208 -3.176925102574146 1.6241430882238335
C 0.321080411726627 -1.9846625197526702 1.3450051863932537
