15
## STRUCTURE-ID: 645be23e9381bb2612732d3a ; CHARGE = 0; SPIN = 1
C -0.9733147585967353 1.3133825183977552 1.1112574501031374
O -1.7939902113331871 1.5390517300886748 1.880870832250394
I -1.039708763861798 2.1485401359063347 -4.201783809009927
C -0.21221928087173686 -1.9064444670673335 1.6618772837944369
H 0.8413013709166175 -2.1830777183538546 1.711224836470022
H -0.82862683731646 -2.8066304211883 1.6684591702443612
H -0.4313598268513134 -1.2981291499639276 2.5388531432284256
H 1.007083234386508 3.4992647829008248 -2.1334293904450834
Rh 0.37097454110919664 0.6617944331780042 -0.018690222516337403
I 1.4748816299127618 3.1170651097622333 -0.6575034501820919
I -1.285611330014823 0.1197916578615087 -2.3861225108598476
O -1.2246774263645777 -1.5721720857675925 -0.4404902190154075
C -0.4571698681915061 -1.1119784449630763 0.4086779738751818
O 2.6961589892205824 -1.1413901546925747 -0.6581974240239231
C 1.8562785378563977 -0.37906792609861 -0.48500366391323807
