15
## STRUCTURE-ID: 645be1acc5546919872fb1f4 ; CHARGE = 0; SPIN = 1
C -1.6405914695954058 -0.22806226012789596 -2.351014188638326
O -2.663868779414876 -0.6782208588015675 -2.593047363354113
I -0.7678142195810705 1.3497081582965647 1.016854353229863
C 0.024761730718609137 -0.8132385930049061 3.0952138462255947
H 0.32956396772752455 -1.8253152462042384 3.35975093834813
H -0.8962179981526105 -0.5414605478570775 3.6133645567592843
H 0.7778523815468954 -0.08876567485343627 3.4085717954121577
H 2.057071485290031 3.316182900570779 -1.8688872825612644
Rh -0.028229928050102313 0.557467330323427 -1.9529306887620317
I 2.373587278251437 1.7711495859963498 -1.6703286053823374
I -1.1435136359745828 2.726566836201238 -2.9804993077871593
O -0.09592757760308052 -1.5071520009879393 0.7786150932052598
C -0.17976223543055012 -0.7206056066196859 1.655463486612348
O 1.1381768428082562 -2.190280271685132 -1.7709622993543115
C 0.7149121574595265 -1.1279737512465022 -1.7401643339531125
