17
## STRUCTURE-ID: 645bbd3e278ce567ba0203c6 ; CHARGE = -1; SPIN = 1
C -2.4135532961487343 0.49797700172689746 -0.44059291312246374
O -3.4991756562359653 0.6858724112748505 -0.74447425680632
Rh -0.6803635039254492 0.030339014998515927 0.0011035119272921569
I -1.5419684796568813 -2.724186121026833 -0.4494130270068854
I -1.24454533449495 -1.8144508182260206 2.2462245544855097
O -0.419712735382639 2.709385091934694 1.3533004132889566
C -0.5429464647746589 1.5770845549302328 1.2132797677332852
O -1.1747843271073926 -0.42417242599229604 -2.8657043648361205
C -0.39372302220534966 -0.021091886438005303 -2.021285678431969
H -1.6277836941538977 4.188715914178576 -2.5994460545360285
I 1.9138889888976804 -0.5113581564382729 0.2072666739043711
O 0.7873841406923243 0.5125667144971758 -2.375151976525822
C 2.424026332015158 -1.2427445232361907 2.2330821640494585
H 3.507456434524703 -1.20350021418188 2.304414989551903
H 2.054720939575738 -2.260037989596454 2.3289404903609974
H 1.9486176535878774 -0.583570246030434 2.9529128601387438
H 0.9024620247924081 0.5831716776254385 -3.3444571541748562
