17
## STRUCTURE-ID: 645bba9f9eb3af75dd315fa4 ; CHARGE = 0; SPIN = 1
C -2.230817804093888 -0.9342708259750886 0.3738679108197169
H -2.7213253117128815 -0.04251502101634592 0.7666591997384057
H -2.7408399557842364 -1.8196257870900496 0.7791919189637098
H -2.3614038867251788 -0.9349026182796086 -0.7084747047784716
O 0.1093274145526753 2.949383293467618 -1.602438315235032
C 1.9584448324520196 0.8378683561835358 -1.2936517207114024
H 2.3713214025998486 1.8383128833805236 -1.3648007856690247
H 1.939902807795765 0.3318347549362344 -2.253368537489618
H 2.458910982821366 0.24652130257173568 -0.5362991428078225
H -0.3418349077837946 2.9669660036696515 -2.4542726598812705
Rh -0.2437730067527859 -1.1642445042477747 0.9425699549515764
I 0.3205583689405917 -2.4450797103186686 -1.2347613101772479
I -0.059920299893055695 1.1165676483493774 -0.6708396382435032
O -1.1163892604111711 0.25732111160203136 3.4238907948428183
C -0.7642760978699797 -0.2781451481187212 2.4756351406462644
O 1.6221306015153898 -1.9721817377176172 1.9317161667250198
C 1.7999841203493192 -0.9538100013968498 1.425375728305872
