18
## STRUCTURE-ID: 645bccd7a0e24c0a21108f04 ; CHARGE = 0; SPIN = 1
C -3.592840480434303 -0.10540097199800531 -0.5655152693410038
O -4.0816424946233125 0.33304846957783824 -1.5141310529814114
H 1.4539656849457638 0.8836780554098819 1.1635809318703507
I 1.4601773373905778 -0.5039073668984264 0.39736544121065054
O 0.26517007856508257 1.897868636921518 -1.0256424247934879
C 3.549255498673162 -0.708576282721594 1.2071581550948642
H 4.140898141881466 0.10183324105634607 0.7972199965157681
H 3.919745996585747 -1.67338195033503 0.8800306051951904
H 3.470808084967118 -0.6633304381271713 2.288062435326967
H 0.45173661589094644 2.7547589699719652 -1.4600965676124638
H -1.436700996916499 -2.305231261763478 2.672540869790275
Rh -1.4466717313707533 -0.19010856792738043 -0.2307959499534128
I -1.6663090176982143 -2.7333409891945153 1.1579329382732697
I -1.547558523579923 1.195649021492637 2.0136631726135237
O -1.8292036583477862 2.203865468910707 -1.727877833848783
C -1.0219851984358954 1.52349197119953 -1.125167747151298
O -0.9669115296736618 -1.1420598832104303 -3.01889413807615
C -1.1219338078194772 -0.8688561223644435 -1.9094335621328034
