20
## STRUCTURE-ID: 645bdf4de9d4831c206ee1d3 ; CHARGE = -1; SPIN = 1
C -3.0972646877422805 0.5953988765467639 1.3604999045128312
O -4.069195406967717 0.8556035223088204 1.9113515527631229
I -0.9771942346864566 -2.442623521432856 -0.3208637838703596
C -0.6685132460330876 -0.3591205069568805 2.2583199246371297
H -1.1062733493742793 -1.206217792277319 2.7928667550399426
H -0.6824264078051892 0.5085735056130536 2.922408715937463
H 0.37610163298238214 -0.6052085235783837 2.0383321711120757
O 1.5013702292334528 1.9055188332763038 0.5821194192544555
C 2.2106667488390372 -1.7400786424936696 -2.573912689681858
H 2.833304503350124 -1.7884315638037882 -3.4566976373387037
H 1.4305809488179801 -0.9985140073380326 -2.684171009408602
H 1.7853391706511774 -2.70503999755827 -2.331006702620275
H 2.397604750225789 1.6592696691215914 0.2654397486829802
Rh -1.6579233128327604 -0.012564037646637409 0.4318649877185651
I -2.857345203135248 0.5797655160935704 -1.931166251745744
I 3.437546788783254 -1.1372003678659093 -0.9390933602840348
O 0.697929577578663 0.7961879085692458 -1.1898648812989998
C 0.5326201528319487 1.4459592139405155 -0.17689734533578955
O -1.2320114334068553 2.8766130978410893 0.6580327937224458
C -0.8549172213099399 1.7721088176408013 0.3824376882033668
