20
## STRUCTURE-ID: 645bcc9d6a47f51bf36df3b1 ; CHARGE = -1; SPIN = 1
C -1.5933449469373921 2.6551223382692615 0.3988931588140854
O -1.6252379693653511 3.737547267080843 0.8883941779098584
I 2.450375173769134 -0.7495140431893612 0.7574782753263269
C -0.15369983522687905 -3.1073156556440913 -0.42603491388165876
H -0.2775881681200847 -3.0455671806157216 0.6952862576843237
H -0.5342056893867329 -4.153713274526613 -0.4113911356890219
H 0.6484397911394436 -3.3560545232603736 -1.1668637570048817
O 0.8535115022776812 2.5593303368010143 -1.644352125116001
C -1.227219984256856 -2.23818221502238 -1.0952092516712808
H 0.7682905935687683 -2.4719057606983452 -0.02581706569115623
H -1.4875718910857154 -2.5987848244779332 -2.0890729259176295
H -2.1144312803100265 -2.137097433293726 -0.47178250586432163
H 1.3502962007254595 3.24921839703122 -2.125037976526354
Rh -0.0009054769410676294 1.3436483380475883 0.7818124817853205
I -1.4066370050509476 -0.4011742101827765 2.200354078321017
I -0.5958984088822189 -0.07338527048980896 -1.5142831456735029
O 1.7471947459472443 3.5840754486182544 0.11162440838783008
C 1.0275771644637353 2.6585031979374376 -0.2785965719689602
O 1.3516405757709833 2.5175804280708607 3.164519958042554
C 0.8194149079008188 2.027668639544644 2.2500785787334765
