15
## STRUCTURE-ID: 645bd5db3527ba30052b1b73 ; CHARGE = 0; SPIN = 1
C -2.717687999693457 0.20670211181131787 0.6810682208344601
O -3.8238344611743855 0.01748666690444505 0.865872303709733
I -1.2147934368256585 -2.290825948065246 0.23680656180922224
C 2.051504488891999 -1.0395385109771094 -0.18119524664365916
H 3.112969491040316 -0.8096149741885266 -0.05914508800581681
H 1.8808759024454518 -1.3317206584026657 -1.2219174419172667
H 1.7761381612964855 -1.8695119900009776 0.4641269231496688
H -1.29790095615832 -0.884789281801053 -3.072443652862076
Rh -0.815430657836516 0.31918887644477606 0.5317004787914117
I -0.8524504948228715 0.581964556934905 -2.674060372524676
I 0.7922378879441087 0.17481689112641027 2.773765971203639
O 1.5459252088014892 1.3146882592117797 -0.26769038457147026
C 1.305964079800342 0.20113824986384027 0.07756969764175285
O -0.8884195374057202 3.26369430798098 1.027907720859842
C -0.8550976763032601 2.1463214431571136 0.8176343085252448
