15
## STRUCTURE-ID: 645bd75c8e68dc536c0203c3 ; CHARGE = 0; SPIN = 1
C -2.027956001795622 0.14283222123543332 -0.5188764349712858
O -3.100553557372537 0.32411292570082223 -0.08730699599731065
I -1.650444064816984 -1.7125092624851335 -1.725229932952386
C 1.621525836817944 -0.9707352729163129 -0.4316442587198318
H 0.9063430254428564 -1.6940856316699149 -0.03605889972576357
H 2.6154332059899428 -1.190172762800172 -0.03625495641731555
H 1.6329703308174577 -1.0845292541757188 -1.5197900943245597
H -0.6500934363005666 -2.511284966532044 2.744996809566052
Rh -0.4458297226344872 1.185043599145748 -0.8356637311119025
I -0.6804848711500717 -0.9340098634751937 2.7587191277020553
I 0.5272317154860249 1.7998028247372295 -3.117772205087462
O 1.8844455151365185 1.2123005906134272 0.5797038982317027
C 1.2773099051538235 0.4045749214287374 -0.03376597492872066
O -1.0711328836439709 2.8636915058390886 1.5636608594202364
C -0.8387649971303428 2.164968425354073 0.695282789316447
