20
## STRUCTURE-ID: 645bbf8ace3c1d2268099dfb ; CHARGE = -1; SPIN = 1
C -2.8349655987698 -0.777340908096715 0.2054423733535046
O -3.9946563750132067 -1.1815874011529437 0.19855568372367058
I -1.6498843742315117 3.449079435510529 -1.3641195857985702
C 3.2412170318220475 0.8537048345829785 1.817134985405463
H 4.21376116877827 0.5340478442480477 2.190353617843237
H 3.300181741780837 1.869879797382162 1.4220026962726724
H 2.490324857264129 0.8848529144874306 2.606058469537343
O -1.852232194481516 -1.6284985584037492 0.6126543393514908
C 0.6637107618736787 -0.818840692534751 -1.3973773599968813
H -0.1073496620895945 -1.5773504310862752 -1.334831569698185
H 1.6582473262222979 -1.249353741626056 -1.321937178757356
H 0.550346911761309 -0.23044005584141375 -2.301306195220828
H -2.2143898563657554 -2.477138878894419 0.9361698018178083
Rh -2.251640439158739 1.0030388889555562 -0.3825816559692972
I -2.856938063805045 1.838355130523234 2.0583926481827413
I 0.39262883881488164 0.49362436888475686 0.27260550543850404
O -2.4852749736645685 -0.355910904129468 -3.0167152116758946
C -2.305895033001736 0.22350774182842637 -2.0219104110333075
O 3.251138380968616 -0.846133913001842 0.07185787660155118
C 2.7916695512953713 -0.007495471635492853 0.7495511706223412
