20
## STRUCTURE-ID: 645bde44a01ffd11f8600694 ; CHARGE = -1; SPIN = 1
C -1.8535057170876994 -1.1712250825140496 0.794000016695285
O -2.926210762287651 -1.466913412793963 1.0710981101743555
I -0.48511680761430515 -2.250672904992168 -1.9704477285327775
C 1.2141457764954031 -1.820678282664684 2.7889111195530223
H 0.3313091264272421 -1.5431222080509726 3.363010019202808
H 1.9114799540266074 -0.9849281107669038 2.8353986581392463
H 1.6746452548252988 -2.7118747538628334 3.2149882810857657
O -2.3510195789281783 3.0226831399131484 -2.736214576628268
C 0.1923336542011216 2.2424012460569953 -1.9905714324842891
H 0.7638329407206574 1.523568621790465 -2.5686740548908293
H 0.7340764246876582 2.5597026004593584 -1.105603457754217
H -0.10393634049582588 3.0868012017808972 -2.59750692383331
H -3.306664143935072 3.0189398453538643 -2.787453808896811
Rh -0.17258319283933166 -0.6343621028131539 0.18251381027333374
I -0.05899306157974887 1.3686424805024415 1.9538888947053348
I -1.6144391291020925 1.3031654420489736 -1.367013557661807
O 2.585710366569156 -0.03220356728937862 -0.8410720455888969
C 1.5269833097767118 -0.2327899166425466 -0.44219441266369264
O 1.0939928364111091 -3.1722053710864393 0.8481559774781926
C 0.8439590897289465 -2.104928864429044 1.3547871116275587
