21
## STRUCTURE-ID: 645bec6429c5003cec246414 ; CHARGE = 0; SPIN = 1
C -2.936924252939092 0.2279857685655886 0.35394414751878817
O -4.038528366631898 0.06588029112842694 0.5883613637870287
H -1.780493141452651 3.735041847046665 -1.4127679904285404
I -0.8401855155951132 3.2851037621680788 -0.218141837399469
C -0.9393847213617863 0.24582572375037062 2.800062016185968
H -1.63806182048405 1.0757370228776104 2.911093726525059
H -1.5108425540270192 -0.6799486392953842 2.8657642718853396
H -0.19578483067183383 0.2814691052767291 3.5968346835322795
O 3.0943158715719306 0.03777656349091463 -2.7185409106222833
C 2.4071664155400443 -1.4688547131328766 -0.5582182924155058
H 3.372973310044232 -1.5161335884985863 -1.0383884255631552
H 1.9587001717005754 -2.4514869378842765 -0.46764130760355543
H 2.472947558270651 -0.9742279311126991 0.40143878430161256
H 3.063992470452334 0.6009337166669033 -3.4934003076391242
Rh -1.1955544562775002 0.41011129726287604 -0.30165470383588544
I -1.9092921609312838 0.5802431536471235 -2.9458274132702957
I 1.185341310282857 -0.3177095676582182 -1.8377890284491811
O 0.9337672250767243 0.4235769371446445 1.3211956899967017
C -0.25865002433625217 0.32863694790282016 1.4757524218533857
O -0.6942454421879422 -2.5232442725670103 -0.6064730829098905
C -0.5512570460429265 -1.3667164867796955 -0.71560380544929
