15
## STRUCTURE-ID: 645bd64eff13370f4f6006ab ; CHARGE = 0; SPIN = 1
C -3.2218793868409463 0.5825741590360476 0.49172492757191527
O -4.337749764443553 0.6557240312421868 0.7308298801063027
I -1.8588040185923087 -2.176197624349094 -0.1304320357476658
C 2.814329995933329 -0.9243854419066074 0.2743820675133239
H 3.5765359169126203 -0.3919526388272991 0.8437601145022446
H 2.999785678490156 -0.8397603435570259 -0.7962761369933813
H 2.8712051983349007 -1.9723241026707694 0.5785309149833822
H -1.2688829264620403 -0.7337315797242101 -3.4827486902864147
Rh -1.4417099535795543 0.3844004158055744 0.11357750336143872
I -1.176292255097009 0.7882349351386015 -3.077983742020521
I 0.960396486639292 -0.36413622206254365 2.7108731836042748
O 0.644369099184874 -0.017443227006976834 -0.17223044409953417
C 1.4831815032566416 -0.40706670479793394 0.590448005080445
O -0.9271556361532076 3.2539655831517744 0.8043334163458228
C -1.1173299375831947 2.16209876052828 0.521211036078346
