14
## STRUCTURE-ID: 645bbb9f900b85071536ef4a ; CHARGE = -1; SPIN = 1
C -3.213693208592664 -0.7504424436746671 -0.26072445661975974
O -4.054085083406203 -1.5210423795119346 -0.08535449961733096
Rh -1.9038825363481091 0.48545462610207396 -0.5904577954222423
I -0.14326898244769948 -0.13874530351356112 1.9525492126858244
I -3.460460445620488 2.224598147820979 0.6885005178954503
O 1.2445098599590445 -1.0909083533742046 -0.4806738717029495
C 1.5452414500657863 -0.4847519759573689 0.48508274688022684
O -0.7960717458752234 -1.3394219030004089 -2.6719190660175602
C -1.1511427629609832 -0.65125555994515 -1.8179464634090938
I -0.13502653583714194 2.3103660689467493 -1.3348883006865357
C 2.792346295391812 0.11225279009301516 0.9408461036675408
H 3.0085900404675567 -0.19344210735858197 1.96374199464655
H 3.5961458413557477 -0.1607848785687621 0.2584427930250345
H 2.670797813848582 1.1981232719418005 0.9528010846748098
