15
## STRUCTURE-ID: 645bc2b48e5db73c4c2b1b64 ; CHARGE = -1; SPIN = 1
C -2.4139261645773202 -0.3945699874253519 0.18013172864497098
O -3.360769732816723 -0.9813387222948283 -0.10597603153060112
I -2.0538873912987703 2.7492475584654765 1.3411933389722934
O 2.0134699300560994 1.0359976002020503 0.04545103747773507
C 0.612091597221708 -1.0987630699308284 -1.0448246837604984
H -0.10002843440049095 -1.6004080715953075 -1.700593695588812
H 1.6125110757599086 -1.509550412224599 -1.1881436956725884
H 2.5832114168964435 1.7992804423631983 -0.05086059978628346
Rh -0.9143508566002848 0.4004375304367312 0.9397271449086662
I -1.0545041521419412 0.5592528731602273 -3.633871573945858
I 0.638073653355132 0.9931174145199815 -1.4469044202604286
O 1.2468328574963694 0.7119945507047685 3.0020819939105743
C 0.4498953430071481 0.6829377523741618 2.1716140141391262
O 0.5891784447049283 -2.146690659380589 1.0656671174520276
C 0.15220241333780254 -1.2009447993751121 0.42530832503967847
