20
## STRUCTURE-ID: 645bc13f30e1511e853adfd3 ; CHARGE = -1; SPIN = 1
C -3.1152189461878974 0.6550538542011108 -0.7714618987507159
O -4.259551719156804 0.6423564719080117 -0.8488267395801106
I -0.20914552292419974 2.3563802204298323 -2.968611704793652
C 1.8680565688269624 -0.5891207122839494 -1.778576096130635
H 2.9280558083854706 -0.6564058703093862 -1.5327440276933055
H 1.444717521058029 -1.5843589777038014 -1.8967514271242376
H 1.785197660182645 -0.04889793625231295 -2.721148189650007
O -0.24802298069578593 -2.5153555024571514 2.5193159593355667
C 0.4694497308388293 0.04567965444095818 2.349492638114705
H 1.0467182367305874 -0.5169660609286717 3.0694151574470796
H -0.47258751307107216 0.3603262745980359 2.7804284843204354
H 1.0246702457082855 0.8817971980962347 1.9404142130279918
H -0.5068840479840042 -3.4131702753524817 2.3040866437447862
Rh -1.237216209046498 0.6860895342633951 -0.9533564536755841
I -1.5917556258973202 -1.4350794491439598 -2.4958417887070676
I 0.04441284003804237 -1.2643613201772808 0.7387925883786542
O -0.8325291910473545 3.010847131360216 0.8591527007965148
C -1.0159089239282786 2.107233061254509 0.17456213026269768
O 1.6891448354306209 1.1196999852233762 -0.10038902332415042
C 1.1883972327396952 0.15825271883332576 -0.6679531659989576
