21
## STRUCTURE-ID: 645bec7e478bd374aa5a4840 ; CHARGE = 0; SPIN = 1
C -3.1795163426997983 1.0706806320747293 0.5797956959404944
O -4.0248451112282995 1.3174964880218585 1.3036699299384853
H -1.4660975816904975 3.7157126795836986 -2.0021480786520343
I -0.8244148184266639 3.184087118048547 -0.641196763303183
C -0.23247987662405722 -1.1068893558119237 1.7628573478610756
H -1.211615506166606 -1.1815411497600092 2.2419810795880672
H -0.09819446025667658 -1.962265099807714 1.1032770597148247
H 0.5202818283279569 -1.1166423026923213 2.5525992043678656
O 3.0365045384519527 -0.6553752204809726 -2.2533593485991625
C 2.6314670671645177 -0.2862616895484684 0.40200302684039546
H 3.584371296675966 -0.19710271751874164 -0.09975751624153974
H 2.551566680630063 -1.2447330869650555 0.8980838824714619
H 2.4687772956285916 0.5349203527883618 1.0874788060245852
H 2.874556079790309 -0.7493157481233846 -3.192522036116183
Rh -1.6695733431729252 0.5845628598895244 -0.46364672012193264
I -1.5036645641379098 0.2641074052688837 -3.234320672462898
I 1.1994782915942983 -0.19269641439668003 -1.1517383362969118
O 0.22977516733546083 1.2328099649214708 1.5425178901679586
C -0.15310996153480944 0.20274840177534703 1.019468612528485
O -2.5239450713012856 -2.2479096208386897 -0.806628175977878
C -2.209321608359668 -1.1663934964284797 -0.6484148876713817
