13
## STRUCTURE-ID: 645bb8257ca421647d507c63 ; CHARGE = -1; SPIN = 1
I -1.1217769685543635 -1.5825630977812635 -2.2011279445721263
C -1.536062848948195 0.3244840323493602 0.5880007421219213
H -2.1343140654674873 1.0031221322289552 -0.02920357838281092
H -1.2262312949565244 0.8004001266264237 1.5181871839152676
H -2.079410955644864 -0.5991358020020705 0.7905739869541859
O 0.41952750493672636 2.0712323982694665 -2.8923514734018374
Rh 0.15619423617665384 -0.08261285302799497 -0.5694550105885702
I 1.517804169030876 1.941994725964662 1.9272506938825662
I 0.9392027686547734 2.3225867734410834 -1.1062449843297577
O 2.6405737965021334 -1.4850173492073904 -0.6869774511807788
C 1.6636345393048266 -1.3122608538996055 -0.012237242046454495
O 0.10943907766824518 -1.879956702786898 1.8360597630581736
C 0.651420041297186 -1.5222735301747385 0.837525314570247
