15
## STRUCTURE-ID: 645be5abe08cdf76666ee1d3 ; CHARGE = -1; SPIN = 1
C -1.5842850185730144 2.261750573289393 -0.1089051700930369
O -2.405377751644462 2.9949608906635334 -0.46680563594825075
I 1.83358890580928 2.259312255561451 2.150271164744378
O 1.8196632284696672 -1.116091389692927 1.117232801327766
C -0.7462723482105516 0.16378633725343625 -1.6920161803267881
H -0.7180373709135598 -0.879691151983622 -2.0159590053883103
H -1.3267975158828356 0.7359008990943552 -2.417843228604181
H 2.748797387821076 -1.3073955817742269 0.878478874167976
Rh -0.7920829335222563 0.6118393177848038 0.32808992995856584
I -0.5369037341901924 1.0120608249808358 2.901970170867184
I 1.3106152820797856 0.8779855076308323 -1.9496425742009877
O -1.3253084143546237 -2.1304608337674105 0.9660442895951835
C -0.4871869342012513 -1.309095133288826 0.5942249725775229
O 1.2664761343391449 -2.4466908125079203 -0.6061374571964808
C 0.9431110829738192 -1.7281717032436854 0.320997048519497
