15
## STRUCTURE-ID: 645be4cc946099152b52ff4a ; CHARGE = -1; SPIN = 1
C -3.0540322023179756 0.544940580887747 -0.983195247188781
O -3.6734008422394355 1.2341732408875141 -1.6651807969970907
I -0.5202267455611992 -2.1544809968493692 1.4719421842643536
C 2.746047157056429 0.025161893244171507 1.0709435228885051
H 3.5541906012182394 -0.6678412314403777 0.8337347044709141
H 2.2015184945519914 -0.33200461796459063 1.949761219912681
H 3.122711639358995 1.0176035325573274 1.319519178315311
O -0.5855414002877208 1.7951991263239406 -1.3742613463352464
Rh -2.0265237373455642 -0.552368882136103 0.06649538218862498
I -3.2976732941770015 0.4242599764316996 2.1395957907056395
I 0.13079842509162956 1.6552605883901106 0.31547391282789766
O -0.8744439477382683 -1.515521731428109 -2.5068697993148135
C -1.2847313408292302 -1.1887025290240674 -1.4818220888721516
O 1.7227234274822023 -0.38952826402535096 -1.1063302865071891
C 1.838583765736905 0.10384931414545845 -0.049806330358659605
