15
## STRUCTURE-ID: 645be120639171407b0abcf4 ; CHARGE = -1; SPIN = 1
C -1.4615966436029046 -1.1335597869373655 1.1280536987458798
O -2.458061682435498 -1.6805323528219287 1.3055414664784026
I -3.0398342483310916 4.367547309988757 2.132756442341558
O -0.005589441594797239 -2.5126648039068753 -1.1880178406701836
C 1.6015509547878242 1.1190137250381884 0.3721785400249015
H 2.423197061119272 0.7932296834514575 -0.27337733163997463
H 1.636239313079859 2.2060979234369054 0.47046821885490014
H 0.6513837071289486 -3.209992094893742 -1.3831304684278993
Rh -0.00976515079639296 -0.055757690337448006 0.6791051474942613
I -1.5116228042811468 2.0635487909667556 1.1626199887481798
I 2.0130462761537955 0.3106688355852892 2.3872984151212964
O -1.2922405235673986 0.35871467197671275 -1.9547985106107706
C -0.5197682589145617 -0.1956869838658953 -1.203394511893608
O 1.5357885425370825 -1.1316990517785606 -2.070117438330032
C 0.43727289871698877 -1.298928175902217 -1.5651858162369676
