20
## STRUCTURE-ID: 645bdb1f0cd1d942fd554ee4 ; CHARGE = -1; SPIN = 1
C -1.878921514771287 -0.8386319392341347 -1.1063547572818386
O -2.2459648537755066 -1.5753714106597798 -1.9344354158805235
I -1.457213926023118 -0.7748757717530304 2.3087238259140554
C 0.8205990458134408 -2.930654674347225 2.4889837328077666
H 0.37943541205829556 -3.058087268995637 3.4769531384860395
H 1.543848660283966 -2.1150865050273975 2.5701010711878367
H 1.320188804418768 -3.83456742157294 2.1423969818236563
O -0.5117031007334254 1.5648363905617908 -2.5395572091563703
C 2.132527090074399 2.2621353936950994 -0.6404113198797083
H 2.0458217771546168 2.8660825976369835 0.25459703364741887
H 1.386642044164792 2.552963295846929 -1.3694443620787229
H 3.1309463368274173 2.2945445781412603 -1.0554768721517447
H -0.709915522114412 1.9583953611966243 -3.4111942077646136
Rh -1.4169066389917113 0.5760579036780916 -0.049360684480765915
I -1.2127634253224449 2.9594648293372985 1.0613729329584858
I 1.7119873274884616 0.23173263534068425 -0.09438433478484813
O -2.703343093461653 1.8518566907224272 -2.2883852550440347
C -1.6553753235571136 1.4449043687810037 -1.786206977271567
O -0.48799980764420775 -2.895226331472193 0.44611886842318943
C -0.19188929188923293 -2.5404727218758985 1.5259638105262863
