20
## STRUCTURE-ID: 645be78d7a009a5e807e8a93 ; CHARGE = -1; SPIN = 1
C -1.7224834473317734 -0.6187569743445441 -1.7638862673809301
O -2.6196940411224774 -0.8839492681283553 -2.423501112874076
I 0.05802031983132315 -3.201910592306676 -1.1026191342187346
C 2.1063568637246877 -0.6208324187703465 -0.5778072233155439
H 2.5626032488295953 0.3678744091290138 -0.43747413081558306
H 2.716471604632001 -1.1493183438287469 -1.322602439232052
H 2.214396687764633 -1.168223033037435 0.3703303538111219
O -0.9027458303128989 3.3306807048347253 -0.5016004060120197
C 0.16551162602560487 -1.4063578824541634 2.823318957208062
H 0.008832415818265875 -1.5356466435419995 3.8862553420248167
H 0.7793039844796571 -0.5366833237412105 2.6154714367208878
H 0.586864928998814 -2.299795081590672 2.3763372986946516
H -1.5560010693374458 3.972506520968403 -0.8503926654740299
Rh 0.07320492041907552 -0.520037146180342 -1.0891943302192617
I 0.7751175772126335 1.0710130334283385 -3.1037026865946804
I -1.75384709378568 -1.063982088716686 1.910693951491467
O -2.367602045201371 1.7254693593930164 -1.0376993786878321
C -1.2952474598810952 2.0840130678910334 -0.602599224928469
O 0.3952450648482997 1.330296135430287 0.9227893541532897
C -0.22430825561185985 1.1236395655663782 -0.09211769435102385
