15
## STRUCTURE-ID: 645be96c2f6f912b85014efd ; CHARGE = -1; SPIN = 3
C -2.4709040886495277 -1.2354307701511102 0.4480458249945184
O -3.2417652709758866 -0.9139192213578368 1.2264650988982024
I -2.425852940415693 -0.12619343368137428 -2.470413129211714
C 1.006754188134202 1.4592803362448634 -0.696884126310769
H 0.5014646573098858 1.0368754291176394 -1.5701363421406158
H 2.0648393331852803 1.6153783452079924 -0.9136945643433411
H 0.580545494636762 2.432192766751809 -0.4509085269935183
O 2.648312036759401 0.9608967714764374 2.0745521368745727
Rh -1.1924921673887754 -1.7351572995121822 -0.7747417163093243
I 0.7395527417198776 -2.3893886111292133 -2.3827614852312338
I -1.505374671014606 -4.180089356634399 0.20145549620607306
O 0.567812853208911 1.8010582319947417 2.4080456659931513
C 1.4833481597372198 1.2069724016549008 1.8710717535171781
O 0.3515641022293596 -0.5033373344489773 0.562955596783993
C 0.892195571523597 0.5708617444667166 0.46694831727282315
