20
## STRUCTURE-ID: 645bc3ff8c17cf55ba554eea ; CHARGE = -1; SPIN = 1
C -2.1151331848369166 -2.6680006970736585 0.8840510642013638
O -2.7682281378947384 -3.3420624431146995 1.5590998411734587
I -2.336089372744191 -3.36603958348921 -2.2509273058096437
C -1.7827487330948544 0.23441625383117998 1.965197698005967
H -2.8154553550963586 0.29755934759073216 1.6264405763565735
H -1.7282184396019225 -0.5441849867522602 2.7273617360199034
H -1.4659143050577657 1.18408941298644 2.399496859051629
O 3.666633375998017 0.8737853708895738 -1.5851839271187507
C 1.8451609131184883 2.592444256187001 -0.3697165716417563
H 2.86054102215418 2.9519498202300865 -0.4767539372592665
H 1.4331335123194238 2.798250327398392 0.6093059459495532
H 1.205647714357431 2.9667894636794863 -1.1592014149689946
H 4.108937822099204 0.06810582997004418 -1.8695741942496027
Rh -1.196234208801588 -1.6903869506504448 -0.4029105064274358
I 1.3817480033258163 -2.9306915626993852 -0.14869622979858924
I 1.9818446857092111 0.48308127866816597 -0.5543525846025785
O -0.7109611080970035 0.16388754340009695 -2.715850655794176
C -0.8384164799070647 -0.5512374917861269 -1.8126294360212085
O 0.1386226745559945 0.6283373667271382 0.7558496717679937
C -0.8648703985053727 -0.1500925559925492 0.8189933711655485
