20
## STRUCTURE-ID: 645bed51c4c9341f721fda94 ; CHARGE = -1; SPIN = 1
C -1.7407845263649828 -0.616520459764839 0.8331042533549414
O -2.7975334379908463 -0.7762948035446591 1.2464768194899187
I -0.1683835745842838 -3.0424027490864143 -0.7252516717685502
C 0.7105907573172648 2.0633554319172354 1.8134461202677796
H 0.805716909164088 3.1460484114318 1.7350084160818964
H 1.6974105976606904 1.6039961427579241 1.840827211819522
H 0.18414712698693173 1.8173345326551067 2.736902630917096
O -0.05468821179971204 -0.9854197509422538 2.8127414466640013
C -0.44954301380732803 -0.7907798275721822 -3.992941670227226
H 0.5811786740654216 -0.45116949367553133 -3.9881648251171313
H -0.9300487713065586 -0.592039392238456 -4.9426636706344205
H -0.5132160263308816 -1.8404267612476046 -3.725873709991567
H 0.39497477268757886 -1.3423780465607873 3.6075997677602976
Rh -0.09125202885265096 -0.36881442460635955 0.0683364013438028
I -1.5139266490394585 0.34313251320892574 -2.4748669816987654
I 2.1912122714983746 0.2547769042689248 -1.158055938109521
O -0.8690146576172129 2.2996926886272333 0.055318847929587044
C -0.12758481518242692 1.5560067173311827 0.6620890495223649
O 1.9210601017859148 -1.3153829824701078 1.8452795111791767
C 0.7696845017100751 -0.9627146504891206 1.7506879912168076
