15
## STRUCTURE-ID: 645be3c7f3b7275e6d0abd03 ; CHARGE = -1; SPIN = 3
C -2.5422227713929635 -0.2661173551839342 0.4886573713818844
O -3.606926569588782 0.16062963235263325 0.36483904690044255
I -1.2815226286707884 -1.401220930908573 -2.3977236321899196
C 2.080224721092421 1.9437264328777155 -1.30583722842119
H 1.720977327613649 2.9515720243275734 -1.5145146082352645
H 2.344070951621631 1.4318491220332157 -2.234302248184168
H 2.9828252022822483 1.9594883728895527 -0.6944876655611076
O -0.1305909554170207 -2.167344039679992 2.5830626574724005
Rh -1.106331476749511 -1.487301062190834 0.3073085216366825
I 1.7604356928223828 -0.9336156524323895 -0.046423370303214556
I -2.415751641195868 -3.8289596047085905 0.5454503378051607
O -0.3720379513267161 0.10194226118347345 2.604527338786632
C -0.3879638688990685 -1.0414954495696382 2.2807402934097176
O -0.08162515872788377 1.3841724590033195 -0.3412407828864381
C 1.0364391265362616 1.1926737900064759 -0.6400560316115891
