15
## STRUCTURE-ID: 645be408d81f9a5b9d7e8a90 ; CHARGE = -1; SPIN = 1
C -2.91540730495403 0.2936729953819106 0.12906114985853895
O -4.001763129585182 0.018221697037685513 -0.11480057744938173
I 0.18070777219549167 0.8132023409623131 -2.3673432962141314
C 2.300500939005353 -0.8172055866396208 0.015142124734667502
H 2.8702501886995333 -0.5166956427621406 -0.8672273785186195
H 1.6360291117441232 -1.644254100532712 -0.23502149878934617
H 2.984783025645371 -1.1551050635441498 0.799158225875487
O -2.666865676266687 -2.2677166814206653 -1.7705407874135013
Rh -1.0009779199212971 0.4306226916777883 0.10451138467651505
I 0.25960828311984074 -0.4631229026590287 2.4758109710424976
I -1.3646033710336896 -2.143357738498382 -0.4457026866338032
O 1.881718516746327 1.4958807927414188 0.6650522099084043
C 1.611783933529747 0.3606737090758545 0.5298765102701627
O -0.8645933495473795 3.362136843470877 0.631467286090849
C -0.911171019377525 2.2330466457088103 0.450556362561761
