20
## STRUCTURE-ID: 645bcb10ea58cb643a3adfd0 ; CHARGE = -1; SPIN = 1
C -1.6690183041575648 0.9636801279775011 -0.10622522457091409
O -2.449830700020197 1.6966725978799333 -0.5390882407944537
I -2.4517946291087798 -0.6007165451191272 2.455569759240849
C -0.23513917237948256 0.5114698773796322 -2.7111410742134114
H -1.2927350725705344 0.2602733362306349 -2.668771051618
H -0.07812884767222562 1.5747074768211213 -2.5401492606534286
H 0.1409300695329528 0.2681245651088366 -3.7063324686775685
O 0.8488573652758268 -2.6743921015467262 -1.8157837763833202
C 0.9563973550261621 1.4934512784505802 3.6165604515783993
H 1.634008510746062 0.6778613446703589 3.845106880006123
H -0.07431484094069185 1.192890206770948 3.7787139333301334
H 1.2010256245882371 2.3874080718285495 4.176077054339457
H 0.4818987771272366 -3.5692231833650947 -1.6711402161685711
Rh -0.48785084631983733 -0.2102136432472482 0.6019333010359674
I 1.1825394539504674 1.9582625065854204 1.5076362335033182
I 1.161982835704906 -1.9822382790305524 1.6356940480277309
O 1.7180959247870526 -0.025723755330917978 -1.4015946620706463
C 0.5758922137738566 -0.31434530429192087 -1.7418052388529885
O -1.1660608656729692 -1.8999091365205285 -1.1976481618380552
C 0.003245148329566293 -1.7080394412514812 -1.5176122852205813
