15
## STRUCTURE-ID: 645be6aefb7cda4cad32ebad ; CHARGE = -1; SPIN = 1
C -1.7000789690485616 0.6338882045704969 -1.2330847615079312
O -2.70569234343295 0.4251623520195793 -1.732713034231373
I 1.7319817635803296 -0.6848436096387936 -1.8503680214546088
C -0.30541886587424844 -2.196038341199733 0.010553448901844599
H 0.19030862073643132 -3.1615033726787303 -0.1318155455106881
H -0.91513693148033 -1.9988692160648178 -0.868348278277531
H -0.9201271055710685 -2.246709464588219 0.9110003801687389
O 1.8196329565860105 2.832660938810373 2.2258577806646396
Rh -0.0799738510608588 1.1133900753808392 -0.47853336234233856
I -0.013937383941600587 2.950293092011165 -2.5076449620880044
I 2.1774101419478007 2.0200527603527294 0.5820185230115851
O -0.8828966327838412 1.359602507411653 2.4005826119253313
C -0.6379206803944725 1.1628474291476754 1.298143000828495
O 1.4755108359103732 -1.0075468100052978 1.1540040295872174
C 0.7663384448269699 -1.2023865455290517 0.22034819032469435
