15
## STRUCTURE-ID: 645be396d15041624479961d ; CHARGE = -1; SPIN = 1
C -1.8711066338202405 1.1272806790055303 -0.11722662415299216
O -2.785955716385217 1.6014603301948953 -0.6187633588387044
I -0.7903609420541835 -1.240376170199497 -2.196170658916568
C -0.8531962509492138 -1.978228204212428 1.6891713317922707
H -0.5724018372722834 -2.7970048196969066 2.338511399129625
H -1.3122818407185908 -2.3551980185466626 0.7839297049460797
H -1.5009214951229375 -1.2763726591661462 2.197116001223344
O 1.7189067645962939 -2.371661910394988 0.31141695569801664
Rh 0.07658521206566375 0.8341063025234968 -0.8209676461184233
I 3.5814056237866847 0.5479667968428773 0.49733617780864986
I 0.9534523297673402 -0.9447986581332719 1.137558366556949
O 1.0642893991484086 3.2189757998207025 0.6858056201396786
C 0.7312990537822047 2.3002991769363565 0.10303608547776098
O 0.9404622946826173 1.8287173470779525 -3.5203905255353187
C 0.6198240384934612 1.504834007948084 -2.470362829210359
