20
## STRUCTURE-ID: 645bcc5a03aacb162d2b1b76 ; CHARGE = -1; SPIN = 1
C -1.602719925798091 2.676451369804136 0.3833724783249105
O -1.6492916336114192 3.751717281037583 0.8804246041120423
I 2.3944860741957665 -0.8401884643542552 0.7426924410793212
C -0.1437320022158274 -3.0891325060269255 -0.42382737773003276
H -0.2578133351366324 -2.996650821966867 0.6888106064805752
H -0.5228507467275533 -4.132883267569829 -0.4263890211397291
H 0.7030038672462383 -3.2973703867283897 -1.117562225479713
O 0.8837457695891588 2.5487380940724216 -1.630340818673845
C -1.207390842377482 -2.237522032946114 -1.1205813111944911
H 0.8104810534842766 -2.3995990444166213 0.013620600526895935
H -1.4406158747406104 -2.608913441003339 -2.116562429607527
H -2.108923027101684 -2.1451371249970888 -0.5176985651896414
H 1.4031473817813882 3.2307822464014713 -2.097943664313582
Rh -0.044411331204729856 1.3473405149448876 0.7748565780955674
I -1.4837059593485242 -0.38538292538209173 2.1782443345792397
I -0.6079620818488427 -0.06797896654885188 -1.5429842847810864
O 1.7539538119383542 3.5560878757907974 0.14591504363788277
C 1.0295350680078086 2.6435800985795437 -0.2631881256051978
O 1.3058602890711424 2.458586134989418 3.1895501866863625
C 0.7852034447972598 1.9874753663201095 2.259590950192051
