12
## STRUCTURE-ID: 645bd6bfb4a57c28416ee1d0 ; CHARGE = -1; SPIN = 1
C -2.165156865107005 0.715046152332424 -0.31225516870272124
O -3.265757528758606 0.7274880830625744 -0.6157107352660569
I -1.2500739182140148 -0.0567352073666005 2.7831977181674348
O 1.2101524644659885 -2.2960675764081193 0.5595826355193521
H 1.1333579629011676 -3.239893158237195 0.6969230047049345
Rh -0.4066100747802061 0.46145951914422495 0.311656239026856
I -1.2292172739045208 -0.8978996710735373 -3.516619050708871
I 0.15031986732398814 -1.7163690736003043 -1.13212237688157
O 2.5807465033002415 0.7096895914949337 1.0513272469552781
C 1.4342452710033882 0.6851486324327627 0.7566914495524444
O 1.0599381922768898 2.9768963751754236 -0.500961715005608
C 0.748055399492694 1.931236333043391 -0.08170924736145015
