15
## STRUCTURE-ID: 645bd4b3b193f15ec6732d40 ; CHARGE = 0; SPIN = 1
C -3.0948203042899913 0.057784543284434935 -0.5605815958065721
O -3.835305401196744 0.6756180272157214 -1.1776515761677613
I -0.5731841368086837 2.3200488892730773 1.5551519050667955
C 2.205559751582999 -0.42541887604861833 0.6947255200270559
H 3.179346048685106 -0.7723706641083107 0.3322437141412442
H 1.7007802858573682 -1.2624128738234595 1.1702648543713565
H 2.374774237390209 0.3772143615582369 1.4183788884757933
H -1.2578563640339033 -2.9398505844391534 1.5101304535656603
Rh -1.073789107429555 0.20387355849549635 -0.0809661578477852
I -1.1962995768474893 -1.4479562436634492 2.0676746409080744
I 0.32192841340225326 -1.6545266392392295 -1.6373847597426938
O 1.7298367132852543 1.051602543103866 -1.1762369062591687
C 1.520543165707331 0.13743293218421418 -0.4644864615097998
O -0.9909798378668967 2.232060281748619 -2.2399747241156307
C -1.0105338874372825 1.446900744458553 -1.411287795106579
