15
## STRUCTURE-ID: 645be46707a4275d63799620 ; CHARGE = -1; SPIN = 1
C -2.7039442995511194 0.5789908119884242 0.6541271507843978
O -3.587432370076251 0.4272061051350403 1.3763071871687835
I -0.009023978334698935 0.8201691740315095 -2.857272895908287
C 2.884248862440738 -0.8771409936391424 0.7957434435045316
H 3.598775880395861 -0.18866156179883997 0.3450114711837176
H 2.890040412129003 -1.8331484649045386 0.27096099671595514
H 3.1398496147396147 -1.0929898424842885 1.8342315972502108
O -3.260495241525642 -1.738110807928332 -2.6098190084719404
Rh -1.4272657519478407 0.7248018510750096 -0.6637597408985099
I -0.04062528068237829 -1.6375135319063265 1.6433926062953614
I -2.071308372683948 -1.7991272335815909 -1.15895322847593
O 1.1284712188803183 0.7283368833894713 0.3378311914537009
C 1.5563097110816078 -0.2944623841832011 0.7379511154381244
O -0.9686589319351835 3.655477087936394 -0.29518128784950376
C -1.1289414729301075 2.526172906870434 -0.41057059819038616
