15
## STRUCTURE-ID: 645bd5f8da80273d877e8a9e ; CHARGE = 0; SPIN = 1
C -2.581412568933604 0.3189032060475059 0.6852225048313262
O -3.6777034349797098 0.24339818786642492 0.9644567355657754
I -1.2981684749232765 -2.452578747468562 0.15274917652038272
C 2.4311244364996414 -0.8895157361815736 0.274340526767527
H 2.839795493832051 -0.21505891449893166 1.0298345777317672
H 3.1361903984951347 -1.031162090360589 -0.5462553211715325
H 2.249358033817056 -1.8372036367808453 0.7897129400511642
H -1.9349881732849858 0.01526325516475846 -3.649299076185825
Rh -0.6650863367032254 0.11190947899051354 0.43792323986659387
I -2.161717403075847 1.3382759501911161 -2.8301315136482366
I 0.11732870302174728 -0.07991924538686161 3.0238419396946288
O 0.7866713255587591 -0.11617792887002462 -1.3456552753564412
C 1.1666850817411225 -0.370188968058181 -0.23769003325079321
O -0.10169919988318787 3.0374319019729668 0.6787174274860701
C -0.30637788118166137 1.9266232873722549 0.5722321510976116
