20
## STRUCTURE-ID: 645bdc1682226e3f226df39d ; CHARGE = -1; SPIN = 1
C -2.2220271239225884 -2.8484661413320342 0.8148946402189466
O -3.131074530272117 -3.5579811576966223 0.7276824628404688
I -2.699396882791104 0.36432391177356493 1.3451376803011277
C 2.192351043631597 -1.1501855095199698 0.6365366261789835
H 2.168755458805859 -2.106566948585948 0.11396616611394791
H 2.4692039630468905 -1.3372059281071447 1.6748485328594482
H 2.931911179758027 -0.4905762514349534 0.17970931401909412
O -0.7360030776917287 4.490416791000422 -0.6737932413065314
C 0.11703508507994492 2.154485508690657 -2.1256695946710455
H 0.3028241637521992 3.093067468195407 -2.633802474371915
H -0.778224116215826 1.6591354227739747 -2.4830249715994865
H 0.9669182273563425 1.4862085259884108 -2.167738089183976
H -1.6895197734157539 4.622998093702025 -0.6106642429109456
Rh -0.791413093860847 -1.6746175144838928 0.8461117742101769
I -0.7730039459073447 -1.64653108280989 -1.8932930918899282
I -0.17105751695364046 2.684344165040103 -0.09216555714084741
O 0.9308524118374122 0.7343269915603082 0.2995049572847098
C 0.814581495981195 -0.4825901716956 0.6236683890047802
O 0.14388786315152371 -3.36099786225968 3.1526009710232032
C -0.046600831370077936 -2.6335883107990914 2.2654897490197903
