20
## STRUCTURE-ID: 645bbf0a038a01261a108f10 ; CHARGE = -1; SPIN = 1
C -3.353254066537167 1.3446518217049674 -0.17547162513199857
O -4.4897158300024715 1.2009976384097163 -0.20414920035009346
I -0.0765040139044466 3.4863583249068 -0.14404304108672658
C 1.7440217751792992 1.4070687060589684 1.317512514066437
H 2.5119649334231484 2.1835784827600206 1.2817705227976264
H 1.0834811779799223 1.6186494025444296 2.1548010176663963
H 2.222163805899376 0.4375291897226229 1.4605928549056173
O 0.7614448886770859 -3.4650260243128512 0.9655897281911583
C 0.5226631267322471 -1.9529039784111764 -1.2703043335541664
H 1.2110861226527418 -2.7682161539371313 -1.1110817142308413
H 1.0184273123226302 -1.1013267398207385 -1.7218554722299417
H -0.3188451206628348 -2.273928781145065 -1.8734983476205667
H 0.6591351908415161 -3.7380925753247727 1.876789666386642
Rh -1.485712726790581 0.9127377604351808 -0.019580962379897184
I -1.7417230440795044 0.9246188687930131 2.604966845597863
I -0.19790626613214338 -1.381901096768851 0.6302888752708867
O -1.2560525929114776 0.2173089654246822 -2.915807883637655
C -1.3361815826438146 0.49602691001759686 -1.8000696342453595
O 1.4634692314967688 1.0271217457109718 -1.0590396801984927
C 1.0580376784597119 1.4247475332315924 0.0025898697831469725
