20
## STRUCTURE-ID: 645bde2f9f164b40c86ee1ca ; CHARGE = -1; SPIN = 1
C -2.532122067486909 0.7285658877154614 1.1602596627783395
O -3.6506751519999203 0.8102888681489921 1.4127004485897623
I -0.4389114722368807 -2.0675226815244754 0.14684377921051167
C 1.4729540913788817 -3.116946542787106 2.420675719851431
H 0.7049324929502014 -2.841587313221286 3.1489458719059327
H 2.4385207641253746 -3.186287584025618 2.921539533085349
H 1.1687549882644042 -4.066749627848027 1.9821588824859346
O -1.3969451985943475 3.3498853836489246 -3.6390603361947873
C -0.272950973271861 0.9421791946591275 -2.745150378633567
H -0.7087930481881456 -0.043234408760502885 -2.623126195134586
H 0.7844469160605745 0.9358465078460005 -2.504106798324201
H -0.4409864035850303 1.330147603918398 -3.738689828013489
H -1.87363496666549 4.176305288489715 -3.5723854464175337
Rh -0.7196390220864668 0.7722847210386148 0.7810428805721151
I -0.1630741234924356 0.47096113097186526 3.3968109475934103
I -1.2686339866170286 2.2912281819780507 -1.4147490884864777
O 2.0434823597842184 1.6437609275456142 0.025176620946217344
C 1.0196861666693384 1.2214088467039308 0.34592947938659613
O 2.2997845226840563 -1.2656839597231702 1.0822943235417932
C 1.5338041123074782 -2.0848504247744923 1.4128899212573
