21
## STRUCTURE-ID: 645bedeccfc0fa336979961d ; CHARGE = 0; SPIN = 1
C -2.3240032208547516 -1.0549678276019434 -0.0561601628066
O -3.218531713174366 -1.3566390421543975 -0.6953446336924425
H 0.6507046630790728 -0.3258539351515355 4.196685874924873
I 0.682778243368971 0.5676689645077003 2.8399194470286644
C 2.4509867736038937 -1.786169675648913 0.6367081154741187
H 3.3500237871867573 -1.504338952320309 1.1804960605587402
H 1.7458891278342368 -2.3130869249395327 1.2828952832343576
H 2.7220260273908923 -2.4700652298028296 -0.17013239400252175
O -0.6190054171656059 3.756323963836732 -1.1523878111103836
C -1.5891957557178933 1.3823111532785213 -1.966884692197737
H -1.3139504825259822 0.38480805507679916 -2.289108844755218
H -1.2814600812155725 2.1293289637441153 -2.684966423160257
H -2.651618450109405 1.457517482444774 -1.7703709845010245
H -0.1839605923672779 4.437014813420955 -0.6382815655646497
Rh -0.9308319017320129 -0.5650344505711123 1.038708184366834
I -1.6290519374526657 -2.5729202393639112 2.6005579797494365
I -0.5472406278650159 1.8304869687120546 -0.19071210289707413
O 2.355525542789204 0.4922323700734791 -0.15697559549423049
C 1.8292498929227672 -0.5837257720592766 0.020881025785554577
O 0.10717015663713095 -1.1508552174708542 -1.5622853094037426
C 0.39449596536762604 -0.7540354680105064 -0.4632414515367009
