15
## STRUCTURE-ID: 645be0351b3cd979dd52ff4d ; CHARGE = 0; SPIN = 1
C -1.195434376947113 -0.47315505338584196 1.6964251190074162
O -2.2470628738977827 0.0421253923148563 1.8706311743990303
I -0.023071124809067145 -0.9053668188795241 3.5799877676784155
C 0.908788327114976 1.951075358630212 -0.18524127516836167
H 1.622438560330554 1.7012187352920947 -0.9749100594513206
H 1.4013913221924528 1.729823367190989 0.7648559318505876
H 0.6532670946470804 3.0115642938648928 -0.2390425289712305
H 2.843631684376959 -1.5383692543644092 -0.7637403112381587
Rh -0.6203541923871632 -0.805790433734812 -0.16017792280311485
I 1.8948998537942696 -1.525786447281347 0.5311535712023947
I -2.1143053809914107 -3.0925602859746815 -0.026632272494145636
O -1.4467454687259793 1.4146246627644259 -0.5825062726432365
C -0.30796165513067797 1.1555031821754962 -0.3433220647651457
O -0.8149293382137096 -1.4757815356347432 -3.117372919777628
C -0.5545524313533898 -1.1891251629776036 -2.050107936825501
