15
## STRUCTURE-ID: 645bc54c89f5c45c427e8a9b ; CHARGE = -1; SPIN = 3
C -2.6075231008539177 -1.1750740238308766 0.980575997113833
O -2.480222862842185 -1.6993251589947584 2.0113722955031723
I -0.3474349678617587 -2.0248746055234337 -1.3094843084424823
O 1.818025627901017 -0.4613314413239165 1.244808930834555
C 1.9294185183990538 1.0446543720830253 -1.9032470958227439
H 2.6136148014733736 1.8069343698194458 -2.25440431098768
H 1.9779567893221028 0.14948367058846754 -2.513195817541446
H 2.0965830622618364 0.8077639235125909 -0.8586262648254818
Rh -1.6717990266844407 0.07246870309836764 -0.19887310873402214
I -3.895958427639715 1.3128500355397619 -1.2073337801682535
I -0.0768792270238755 1.8452946382228992 -2.0818209603054685
O 0.8476621015291198 -2.1468342531634192 2.449229955692673
C 1.331065726453827 -1.3085044697213943 1.8419699649838772
O -0.653516258497901 0.9272327978883905 2.468285058002176
C -0.8809927559365835 0.8492614418048604 1.3307434446973128
