20
## STRUCTURE-ID: 645be2b4173eb413ef53cd1a ; CHARGE = -1; SPIN = 1
C -2.0431662437762093 -0.4754846663868923 1.6010049392720471
O -3.1810229975335456 -0.5452773941726222 1.681356031120481
I -0.9447841054136678 2.466379945178903 1.476595155038626
C 0.2359915553673005 -2.1310371944454247 1.5807933006278823
H 0.9840509082866502 -2.527138649283128 0.889445795990243
H -0.6001446121486885 -2.831527591317307 1.5923190034234465
H 0.6815141284348439 -2.1060945961821544 2.589924281818253
O -1.9528985202394178 0.9296158188247571 -1.5160379806926736
C 0.6432573223807831 2.095249227827637 -1.6689095302177213
H -0.2037654908677368 2.764105072858184 -1.7520530428022787
H 1.2129421611774336 2.071866004108439 -2.5902623537784732
H 1.2735949406638438 2.3899923592464503 -0.8403266403629651
H -2.480245976900283 0.5897593855487814 -2.2512719186681087
Rh -0.24004101526321203 -0.1324005050070422 1.23023459338078
I -1.6903093038625412 -2.387837134300233 -1.5585024032912829
I -0.09659646269593827 0.120232583332517 -1.372166872995186
O 2.2906764964543154 1.3267212188176853 1.1649336468926343
C 1.6930884918301554 0.35348641238415807 0.744533513250901
O 2.48524559273155 -1.5135420443784136 -0.5982700559921083
C 1.93261313137431 -0.4570682526542492 -0.4033394620144211
