13
## STRUCTURE-ID: 645bb8984f9da3479c60069a ; CHARGE = -1; SPIN = 1
I -2.271444850551285 -0.5338882431917373 -2.108940231368976
C -1.6708323055157648 0.5091430046882266 1.1934482186996194
H -2.062298325409895 -0.35023647553333115 1.758876257030188
H -2.4905380168824576 1.0836928374409742 0.7564306299457438
H -1.062368065682923 1.1471097317421666 1.8427351640074903
O 2.265354353223128 -1.2894551339383808 -0.9810017095852835
Rh -0.5189710374273298 -0.3314630348612101 -0.25772459018746097
I 0.7938708681784934 -0.6715308826533849 3.7556133292533174
I 1.574942933652712 -0.9311102726403624 1.1053712004022833
O 1.1381928833736583 1.7989899426733975 -1.144063024803002
C 0.8825812097270397 0.6242261871797525 -1.128301934552212
O 1.7431601029348394 -0.5574418796874727 -3.008168066640438
C 1.678350250379789 -0.49803578121864406 -1.7842752422012753
