20
## STRUCTURE-ID: 645bc9fc14f84f59000fad20 ; CHARGE = -1; SPIN = 1
C -2.5595203947893896 -0.6072208221253846 -0.9250407498658141
O -3.629151029067723 -0.7991954232631749 -1.2950819210790985
I -1.657465596885037 2.0451192779316134 0.966828547563939
C -0.32330635491469395 1.1773065747918148 -2.7701663071117713
H -0.7100913372385538 0.37473956857695256 -3.396840494839733
H -1.118716198199422 1.9116484786015027 -2.638602745404377
H 0.5411498734136913 1.6480694555191269 -3.2375634520935748
O 1.0849514307528485 -2.072427892217101 -0.4597600824396885
C 1.5666210214459715 1.0459249231290828 3.5717913988744097
H 0.9607832727192832 0.26033765103726714 4.006527510143541
H 0.944252443013788 1.7499262441210266 3.032528970401872
H 2.152793548357765 1.5518266055527103 4.326766702202507
H 1.562258139824087 -2.8654635341998844 -0.776470435708458
Rh -0.9549997940808439 -0.3642447760029836 -0.08354870074944074
I 2.918738751322232 0.14306125545716789 2.1767296837250223
I -1.0957515289979864 -1.6983812503444582 2.252516607871169
O 1.1331467793646193 0.7465058968510653 -0.8923805650614831
C 0.06304719260333942 0.6364265024197598 -1.4375820399117936
O -0.6909175668144285 -2.8637037636380143 -1.566371006282486
C -0.18782265182951957 -2.0202549721980922 -0.8542809202347195
