20
## STRUCTURE-ID: 645bc46d56774226f65c0124 ; CHARGE = -1; SPIN = 1
C -2.119671521387681 -0.15455896362119212 1.2031232708684363
O -3.1625411053224903 0.1307905709893592 1.6144158006824743
I 1.5364957134114172 -0.4913382319842674 1.514236362417458
C 1.3624673378704966 0.31819048554862794 3.542798310090073
H 1.9125812139644214 -0.35180597273172187 4.193618336957049
H 0.3082331401339637 0.34768021828343043 3.786711510691633
H 1.785391139364621 1.318891340842016 3.5175516739600354
O -2.463425718059336 1.6964639479368682 -1.9852743649214102
C 1.6428760493751233 -0.9156094214272235 -1.9772236997035486
H 2.2926578886949107 -0.1421948291203188 -1.5642274695506946
H 1.807045373072306 -1.8352294041352666 -1.4172776873633157
H 1.8903681378577617 -1.0609691067735147 -3.029908603349202
H -2.0204412955508335 1.0894241495982577 -2.576522238881175
Rh -0.7884382517766915 -0.41611136883350897 -0.10793593410630462
I 0.7683570010641873 3.31492309527798 1.330615929026793
I -1.025686690342963 2.249579540377937 -0.6176804597284264
O -0.3639355819240333 -0.07675480845432127 -2.897692025614116
C 0.1917636620338465 -0.4627185246699827 -1.8631361765536634
O -2.0089296813287167 -2.672707382830636 -1.69059686748748
C -1.545166811150314 -1.8859453342725245 -0.9755956674346198
