17
## STRUCTURE-ID: 645bbc363f99f13ed9108f10 ; CHARGE = -1; SPIN = 1
C -3.2427310082242697 -0.19814266194717342 -0.6629308724202306
O -4.176922690724508 -0.8877419990251088 -0.6555285380131722
Rh -1.3619396514252595 0.10933777070054201 -0.3405988941852953
I -0.8259719086712211 1.6042240730963944 -2.7057964990652863
I -1.5615184933566535 2.2602172745903792 1.2767069817581118
O 0.011936952966579924 -1.7715712063307005 1.5358170575009094
C -0.4247808636479475 -0.9301064432941696 0.849546513599834
O -1.7280728605854625 -2.176740357266087 -2.0859436324058507
C -0.9492404084792149 -1.4201741495975078 -1.5216412848569842
H 3.327203688754818 1.679895257291152 -0.18492415637402268
I 1.7875805563219593 1.0382945868034814 -0.19476341796852614
O 0.3860101807700812 -1.5886130803106837 -1.718276159515507
C 2.027966874823444 1.1301798238375178 1.9547806295102483
H 1.1528164822606732 0.6654677985967324 2.3950573524562317
H 2.0691996895700244 2.1807924735377977 2.2259805496724137
H 2.9325419116911173 0.5895635443369762 2.2112287185941915
H 0.5759215479558415 -2.28488270501952 -2.378714348287008
