15
## STRUCTURE-ID: 645beab02904c76a46507c60 ; CHARGE = -1; SPIN = 1
C -1.816139054158958 0.20172645708809372 0.7973853993358799
O -1.765489002960413 1.3058205303860555 0.4725768879660285
I 3.0635532628418276 -0.6922694047081024 0.43928697928427185
C -0.4059727567232381 0.9259702085436153 -2.6727135465125236
H -0.7288781435584809 0.5987706343445213 -3.6535228931732258
H 0.5807845497231732 1.3726746780044972 -2.714523053672807
H -1.1274346357338294 1.5882500742803027 -2.210988996287395
O 1.0214492050956279 -1.7126132562468215 -2.388496441819897
Rh 0.40581794884345035 -0.6954868667059696 1.4518306813238224
I -0.1693049044553026 -3.230659543940455 0.8808368913791316
I -0.2507789536024542 -0.8306743041920444 -1.4435885520215233
O 1.248091963638391 2.1324986132984565 1.9039514807444602
C 0.912624968964992 1.044706865863492 1.7663760306461556
O -0.6484695629621762 -1.093530822656978 4.226512293272002
C -0.319854884952592 -0.9151838633586513 3.1450768395356996
