20
## STRUCTURE-ID: 645bbe580450070a55507c6b ; CHARGE = -1; SPIN = 1
C -2.83394558433837 -0.7792552143517416 0.19544677189254264
O -3.9930988149203532 -1.1847756033483416 0.19224081138028792
I -1.6506988984460746 3.436141003208702 -1.4030849342735758
C 3.228786269251929 0.8488828968564229 1.8450892618233667
H 4.200414230400408 0.5259137903042659 2.218017908013928
H 3.2855156730217208 1.8718678027518838 1.467730657715525
H 2.4738123008112303 0.8638400462951751 2.6304502988693623
O -1.849910966011093 -1.6267446435348167 0.6072464534136429
C 0.6746712827907225 -0.8075224970927812 -1.396017952882189
H -0.09273397498994347 -1.5700782276669862 -1.3375398529372304
H 1.6707973803105527 -1.2335487553643445 -1.3165733522202647
H 0.5622373215644797 -0.21842006015814275 -2.299620179615551
H -2.210421545185725 -2.474974522522764 0.9337900899375328
Rh -2.2522030822823083 0.9973340663995633 -0.4052935439187533
I -2.8806995478818718 1.8554521181266237 2.0224064798125427
I 0.3896651168237078 0.5017158394695345 0.2739391056684235
O -2.469893283333246 -0.38490923166492 -3.0289877784306527
C -2.2952975475891835 0.2021411480590267 -2.0376712700396964
O 3.254569012568046 -0.8256390055606574 0.07633216527462224
C 2.788434657435368 0.0025790497942955568 0.7620988605161557
