15
## STRUCTURE-ID: 645bc51da2681a07a839f294 ; CHARGE = -1; SPIN = 3
C -2.6745152360171494 -0.2980974397425017 -0.28784377539887857
O -3.702672010908139 -0.37309187594528326 -0.7801929009633521
I -0.4517584476690812 -2.5851779017329837 -1.1293954593122093
O 1.3978609692509747 1.0742582360526203 1.8404223565390352
C 1.6263361204837388 0.22902794825962824 -2.617851722478631
H 2.1864363023514155 0.6742506132643455 -3.4142862005956696
H 2.0072025384894885 -0.5521528769059427 -1.9891108111190572
H 0.6713194749981428 1.667887360707294 2.1211439601558424
Rh -0.8960956779006349 -0.12552452082732724 0.39615624497926044
I -1.7250993240954415 2.4715357885298883 1.4169829466447583
I 0.01402403156721056 1.2871334325718995 -1.904316269992189
O 1.906045422655202 -0.60119270769196 0.5231626488655433
C 1.0201729419299819 0.09381228939096331 0.9848642546203048
O -0.5821537037857508 -1.8405935993166833 2.8545058700928645
C -0.7971034013499667 -1.1220747466140415 1.985758857962396
