15
## STRUCTURE-ID: 645bd3e9cb2ec333d2732d34 ; CHARGE = 0; SPIN = 1
C -2.604528291472034 0.5725765118464257 -1.3885666705498778
O -3.2487715816632403 0.8557759673432599 -2.279543761315201
I -2.343430499594582 2.342966198395455 1.2319951284061812
C 2.1958044451544225 -0.43645218123542884 -0.0003669980516341732
H 2.7361693305836954 -0.1992377732274016 -0.9197576108196981
H 1.644318203772979 -1.357513720015544 -0.1866807009972917
H 2.910921266523207 -0.5613931926950373 0.8101028159234643
H -0.48363444535123135 -2.4675842449190717 2.2784443710014255
Rh -1.6254081834977134 0.06585168011383512 0.0861643173374957
I -0.7943269109024609 -0.9129150733836308 2.48913964681707
I -1.3427969208653951 -2.2556974783690635 -1.1175232479479948
O 1.4359115366995878 1.5605083405839486 1.1237731348018765
C 1.2924623776555284 0.6993279165888965 0.2993137281534534
O 0.13814763944932137 1.295691485271359 -1.7490572890266032
C 0.08916203350789144 0.7980955637020118 -0.6774368637326991
