15
## STRUCTURE-ID: 645be2a14a303d49f35d492b ; CHARGE = -1; SPIN = 1
C -2.781726522791808 -0.20824036907085422 0.06153067711292046
O -3.9240553808047225 -0.3165055474420007 0.082169815895878
I -1.4883523896089934 2.894304832446303 -0.45777623571621956
C 2.0534140809204198 1.525608054018952 -0.35525534944964865
H 2.017761881636184 2.2408323299674064 0.46882565213891747
H 1.8726551284883435 2.0905419748809644 -1.270693541819284
H 3.0213312731557935 1.0257275934234007 -0.38787572548057264
O 0.9985288607921541 -3.7752425859457506 0.9063294998383674
Rh -0.9657649095241945 0.2866153261635146 -0.0598025052575426
I -1.0492490669166166 -0.3132770736870922 -2.673083573127071
I -0.8717521354518423 0.5316556876396467 2.610595268844972
O -0.9540972949271548 -2.649339666377904 0.5120651950909371
C 0.027122885932580585 -3.2096270248059984 0.7087156512013679
O 1.073192426304015 -0.6615009179419798 0.02015952175535938
C 0.9709911627958309 0.5384473867314428 -0.1659043510284096
