13
## STRUCTURE-ID: 645bb6d498bd8047932b1b70 ; CHARGE = -1; SPIN = 1
I -3.204623818208687 0.09138067984569873 -0.545238515349348
O 0.6766367700741999 2.520225488403212 0.5022616596407691
C 1.2603174634049428 -0.07413971709556634 -0.4165459726620533
H 1.8527429856021143 -0.6164800735700093 -1.151680394261008
H 1.8729193882667907 0.2994744324899487 0.4015105684474637
H 0.31383122580592104 3.4048189296062645 0.5426138215416869
Rh -0.7153756006037175 -0.42043619584733555 -0.12089388793524905
I 0.2655582667451426 0.20784791764279079 -3.735142778970341
I 0.427291791760149 1.686213728937022 -1.3286110565840878
O -0.6794929932434765 -0.5377224325009136 2.7714069952276907
C -0.6584037709435336 -1.1078371237850708 1.705889089911555
O -0.7084058542648906 -3.3236633373554905 0.5763981438077267
C -0.7029958543949505 -2.1296822967705413 0.7980323271851879
