15
## STRUCTURE-ID: 645be52e8f19ad58776006a3 ; CHARGE = -1; SPIN = 1
C -2.0825637984925405 0.9838712793946769 -2.8148180441378976
O -2.5470731816843486 1.680319345088095 -3.6121292837366097
I 1.3279489334213848 -3.077401172849127 0.5291666232111975
C 2.0855984889133987 -0.2912752453469797 1.5589792232594926
H 1.4942832998607338 -0.4663438514829327 2.46280076202654
H 2.179280765012995 0.7838195109610702 1.4048206314359688
H 3.060499215313924 -0.745964988796016 1.7322469216052745
O -0.7335866278554422 2.119378285659891 -1.5718318436056737
Rh -1.262660283216255 0.254876677727637 -1.3115654596570614
I -0.7733470146538887 1.986466269954621 3.397242728163856
I -0.8848557817077709 2.067139582554699 0.46961576857972515
O -2.3141617373940258 -2.5289722960817715 -1.006190411753982
C -1.8965705043004741 -1.4502058204830797 -1.0955844667463202
O 0.9255625944145002 -0.40225540122130515 -0.5537450688481017
C 1.4216456323678126 -0.9134521750794727 0.41099192020361736
