20
## STRUCTURE-ID: 645bc1d9df2f6c73256ee1ca ; CHARGE = -1; SPIN = 1
C -3.0287336589090703 1.1302886199027904 -1.8217395908747516
O -4.0938216316730145 1.4285089395907444 -2.144097983672243
I -0.8874851865504256 1.1665345880681972 -4.14401350767657
C 1.8107097749366599 0.6867359924001336 -1.915425763120509
H 1.7021992671950554 1.7312277190083405 -2.2031685590958103
H 2.7479411584727185 0.5244093577661791 -1.381603151569059
H 1.8178761278243922 0.09528885406920197 -2.832773916421879
O -0.9273063637680643 -2.1982197147945506 3.221531871057236
C 1.3022375441371936 -0.5915827131226233 2.699425937279167
H 1.1623860015599046 -1.0329040348882728 3.6771627204107538
H 1.1635311255008927 0.48281328953206054 2.7190397019243693
H 2.2534458688938486 -0.8566887938899883 2.256553940459938
H -1.6193115607564668 -2.8490459351071498 3.0682204520090894
Rh -1.2695168706005584 0.6545343119850916 -1.4335617934802765
I -1.8174067840630665 -2.1081690534492896 -1.5373471133306889
I -0.2154957822334503 -1.4244895372052224 1.4808564403287425
O -0.7394434927617156 1.884744173010599 1.2469153765474688
C -1.0534158168968157 1.5046315816761295 0.19422644218414065
O 1.050739456904257 -0.4561676381097153 -0.07620801173996716
C 0.6408708227877303 0.2275499935573107 -1.0739934912191187
