20
## STRUCTURE-ID: 645bc27fcebe3e0aec0fad1a ; CHARGE = -1; SPIN = 3
C -2.3917926033878816 1.153261727486678 -0.3414251283461264
O -2.9880020791596107 1.826313766275114 -1.1130050468004564
I -1.0204494997697635 0.338047687752821 3.0194811854980768
C 0.47953127172166543 -1.161601964444907 3.5495045917464556
H 0.2411104700094293 -2.0663660435963926 3.0006516028791834
H 0.4146538337835953 -1.3113153391346286 4.619980761364254
H 1.448491104837552 -0.7710242146331013 3.2577303864680123
O 0.3721739511068582 2.3275431407747584 -2.2398744828141433
C 0.775441025750509 -2.5125872116449264 -1.574921017039236
H 1.7271735535429091 -2.3227348609902965 -1.090976922181162
H 0.6251403842826933 -1.8443324999258899 -2.4148786747549496
H 0.6720805552895924 -3.5497232923268953 -1.866276240708996
H 0.5270084201347769 2.32391361631511 -3.206946957225843
Rh -0.4748501790629676 0.9480974130569535 0.1517309910667903
I 2.185349814079706 0.4985132129186554 0.4883866471305651
I -0.7804396335373132 -2.0770103952041183 -0.1512881944409725
O -0.38660916372487714 0.2749867990938097 -2.6286175769810773
C -0.15966120391036834 1.1657244991708176 -1.813034932780827
O -0.7947560025097031 3.8714646698429345 -0.09944739463559246
C -0.4715940194767971 2.8888292892135152 0.4532264025559826
