20
## STRUCTURE-ID: 645bdddfbacb2052f5099df3 ; CHARGE = -1; SPIN = 1
C -2.9361702892178925 -0.237555361677916 -1.136325166016997
O -3.8622221263742342 -0.8934395395649612 -1.328290180931651
I 0.9154403818056309 -1.2678449517225323 -1.5366749230681387
C 0.3127590000174397 2.191785789141514 -2.3589697640788025
H 0.08011971881375086 3.252525962581056 -2.245054758822847
H 0.7606741346797279 2.028453838369327 -3.3385848623246366
H 1.0186987780301124 1.9070785309727405 -1.5805604212990756
O 2.28480089159435 -0.33184781590334667 3.5240935123584785
C 1.212600392224207 -2.3769956465126727 2.07112230175379
H 2.008016194478546 -2.5968348137009376 1.370137586578114
H 0.30526855288303517 -2.9078368163046715 1.810843072295566
H 1.5223066530208498 -2.5790469613096465 3.0860280826839417
H 2.599808404529391 0.5512008334875481 3.7252464625451456
Rh -1.5332077324768576 0.8151716375677132 -0.49585319358694047
I -0.6580596317166502 2.689229533718481 1.0646443551323734
I 0.7924425870293201 -0.3127220368771763 1.9731758559157306
O -1.3960800087725294 -1.81758419057516 0.5731862793790198
C -0.7178332508106133 -0.8380865874220293 0.37485027515309316
O -1.725511392216979 1.288652607927772 -3.2418184640395427
C -0.9838512575206201 1.435695987804889 -2.3111960496266266
