15
## STRUCTURE-ID: 645be53b4c2f0a5e69799614 ; CHARGE = -1; SPIN = 1
C -3.1694423533115295 -1.6463180764898564 -0.8186497223724869
O -4.1959510927500805 -2.0501876931559058 -1.133647788520492
I -1.5617992636922444 -3.01194396259221 1.4913053533546752
C 2.5508102168147806 0.39125218139020757 0.9598587028569396
H 2.508383677475816 0.7849063372372757 1.9794293619358778
H 3.084773111047519 1.1244752302630479 0.35217034802221353
H 3.0539450602114115 -0.5747166353079662 0.9601177372567692
O 1.8770293109321345 2.5490202594772575 -1.2383684777580473
Rh -1.5520865022738055 -1.0229624907977584 -0.22974385868046363
I -1.9829138052143622 1.1650560214318528 1.692656405227818
I 0.37607228941724424 2.217838678448476 -0.20799034874341973
O -1.312904031135957 0.5299854098613741 -2.785727113960677
C -1.3736818417306929 -0.020917452377716875 -1.775813478307788
O 0.512442287272023 -0.7093472465077898 0.30191252114620676
C 1.1853229369377412 0.27385943911975424 0.45249035854288455
