13
## STRUCTURE-ID: 645bb7ecf9a98c4ca1732d34 ; CHARGE = -1; SPIN = 1
I -3.1835213551944523 -0.2276055848901699 0.6829305638466968
C -0.5491854957099563 0.4623537283552002 -1.3524258010332908
H -0.5319603556461846 1.5064365167869158 -1.033225090599538
H -1.4017619678023245 0.2929619153317697 -2.018059442696689
H 0.37884807010874094 0.19607467449536686 -1.871766587970878
O 1.936417462306954 1.123132609071092 0.5256614225636029
H 2.6174496301231036 0.9037306264536822 -0.13907575513821976
Rh -0.7111165932926811 -0.8503025366319559 0.23958216005183267
I -1.117996194606354 -3.1851691047946087 -0.9093726243866249
O 1.5389194763177934 -1.1069962574831749 0.4971000812816781
C 1.261495730884671 0.04256784554674009 0.9193342153559325
O -0.26564723400904033 0.6135821346367518 2.782190458969746
C 0.028058826520002685 0.2292334331228685 1.6771263997553472
