13
## STRUCTURE-ID: 645bb98699460303da554ee7 ; CHARGE = -1; SPIN = 1
I -1.193396872926935 2.3601388402194905 0.8284361261771368
C -1.7970242061682273 -1.3770422602409231 0.3954155810382891
H -1.8742696939167496 -1.124067760145086 1.4623633462182053
H -1.7268310249550491 -2.460441530442678 0.2803495375389873
H -2.6897694523782403 -1.0211525261562218 -0.12268617894585597
O 2.3663195890154745 2.157505487692181 -2.8700164398121166
Rh 0.39023383218676205 0.3005346688631326 1.0579057230966584
I 1.6131253674713713 -1.7019374886814986 2.1002781654107525
I 0.9650486286975205 2.2371927868016757 -1.689758262536558
O -0.21474747726083385 -0.8149905569882172 -1.3793370804860001
C -0.6086623407158341 -0.7583640102163872 -0.25542539541387377
O 2.9752661501013558 1.0995005740273196 0.14229998151984607
C 1.794707500849393 1.1031237752672158 0.05017489619452807
