15
## STRUCTURE-ID: 645bd6473bd0986864315fbb ; CHARGE = 0; SPIN = 1
C -3.172985771970976 0.5433743612601707 0.7706092300683944
O -4.263955873877628 0.598676185506487 1.1088474414652358
I -1.8314275393782082 -2.195970620481502 0.03543701150568983
C 2.837356678697101 -0.8914616711025592 0.03609227800531427
H 3.6396024367729924 -0.34957334377345056 0.5376122638128725
H 2.933050931491072 -0.8125986270901978 -1.0467000808078468
H 2.9274989461197127 -1.9369754671116226 0.3405512588940788
H -1.5519161866622206 -0.7694722322328049 -3.3533468642231434
Rh -1.431097232573942 0.37124476734800094 0.23397677153354066
I -1.4443688871294216 0.7570688242521665 -2.969971709483584
I 1.1866457199523073 -0.3330650969120351 2.614840479006454
O 0.6298100559381008 -0.0045222073857655925 -0.23353449654232702
C 1.5326549677880124 -0.3829830126529282 0.4582714528116212
O -0.8940554144685982 3.2507949203755877 0.8636956115003487
C -1.0968128306983111 2.1554632200004584 0.6036193524533439
