20
## STRUCTURE-ID: 645bc1fa01e65c0c102fb200 ; CHARGE = -1; SPIN = 1
C -2.692961930046352 0.515815061608279 -0.392866123007104
O -3.7964409606007297 0.5465315763182672 -0.06895138282450518
I -1.19613506762385 2.5518804317822643 -2.5400213493143116
C 1.794690389883892 0.22321355430387563 -2.730688890631912
H 2.543253072860277 0.9518517367766725 -2.413234691458728
H 2.279369948275392 -0.5463991669473475 -3.336132184936092
H 1.0351340096019521 0.7125946394525304 -3.3352207772872995
O -0.3995415023945121 -2.481994279638364 3.139188284251778
C -0.6346187646105862 0.20870196759868168 2.8495205428848625
H -0.9347723847702863 -0.3127918598613179 3.746253835546337
H -1.3263356082410358 1.0053675580353185 2.593780374983018
H 0.3727422377541859 0.5951540569122366 2.9560545703182073
H -0.27413240778644543 -3.4004622372176816 2.903450194803781
Rh -0.8407342572699866 0.6320925784728357 -0.690802432403267
I -0.6961005804238787 -1.7319909684702726 -2.2845620292909574
I -0.6428121796932572 -1.2029041608700672 1.2637395154816264
O 1.6045053296211893 1.8481478565931042 0.5470037186661452
C 0.7234448368074656 1.3604186834524266 -0.025802399270373665
O 1.8204327279408732 -1.0278329890706164 -0.6514386215593093
C 1.2610130907156896 -0.4473940392308167 -1.529270154951878
