20
## STRUCTURE-ID: 645be2758222b8018c24641a ; CHARGE = -1; SPIN = 1
C -1.8135256767445171 -2.769120635475914 1.138374340841491
O -2.541734471146499 -3.5120938194456564 1.614070644365313
I -1.956656474345701 0.5349100990580892 1.066463781629095
C 0.33360126773534915 -1.527339917017789 2.4069433712464448
H 1.2008260050534327 -0.8621987384132695 2.3564931337742907
H 0.6665880766675026 -2.5165442602218597 2.723504257585148
H -0.36826079738913914 -1.1443058561823323 3.147322996532563
O -0.7195590657401278 3.560479953940742 -2.843827152729352
C 0.8624202503455687 2.623409958127848 -0.8035225775862144
H 0.2788271816425162 2.877923934438885 0.07426680619469016
H 1.1657623044703438 3.5090508994689804 -1.3454245752812868
H 1.7064492717815833 1.9919682607969826 -0.5540110519861468
H -1.5605538631101505 3.6652479708806505 -3.2930871965507884
Rh -0.5170590694812517 -1.6096072750615467 0.475453891020372
I 1.0393044419184125 -3.6903288504397924 -0.16641869977678403
I -0.40324513941036116 1.5499458710758347 -2.1301442570531846
O 2.181973392210595 -0.19152554268958777 -0.1745866348052495
C 1.0700476340477545 -0.6054476357094997 -0.44557075374415456
O -0.7459870234349611 -1.3603950895422656 -1.8230973773579646
C 0.12078175492962771 -0.5240293275884953 -1.4232029463182816
