20
## STRUCTURE-ID: 645bc02ad7cd4a021b099de4 ; CHARGE = -1; SPIN = 1
C -2.7871260394116377 0.5475103483368216 -0.6111265018861298
O -3.7143953804887855 0.12959993640010323 -0.08708680389658938
I -0.6976673403567885 2.4234792115016432 -3.076351217457228
C 1.8938036525665893 -0.27412261658265846 -2.1042288315419566
H 2.9474857439698114 0.0030528156433622692 -2.088084469251643
H 1.806018178527264 -1.3489390767424914 -1.9379528502817278
H 1.458202071780047 -0.04838234124711573 -3.0756719707940765
O -0.22501448262947257 -2.6826363569179454 2.605394658430653
C 0.009504437493916995 0.015529151973727487 2.4403087181877963
H 0.24827777557121383 -0.5856255318853865 3.3047011620077256
H -0.8352877049408812 0.6669686971747268 2.6352037473454923
H 0.8698145310013651 0.5827431058099544 2.1028458260573957
H -0.3756071568555703 -3.593980787132183 2.350438612847856
Rh -0.846967440437421 0.6512126037708048 -0.9636282112521996
I -1.3223882803460376 -1.5732335558669193 -2.358714086644581
I -0.5189711363908968 -1.3251078808941308 0.8919563140054128
O -0.3761630526358289 2.9913518402647785 0.8286059663421749
C -0.5650206518930354 2.0685747316134577 0.17883939080330438
O 1.8439364525661575 0.911301833335789 -0.058810547514831966
C 1.1875658229100208 0.44070387144359213 -0.976638905506772
