15
## STRUCTURE-ID: 645be53f9c2f4e5dda3adfca ; CHARGE = -1; SPIN = 1
C -3.291051428972011 -1.09103896631557 -0.44129486912428983
O -4.260933109960169 -1.679410601189964 -0.2711808670313194
I -0.5259324295819509 -2.3610629730520096 0.4319976818263238
C 2.1727376886403507 0.21796567265084696 1.7602556296271528
H 1.3067286047925764 -0.23482654668313854 2.2532673226016544
H 2.0659841418918297 1.2952216366899119 1.8929515199520492
H 3.079895968889026 -0.16349350390587886 2.2309331474140386
O 1.5201993846051922 0.5654771400298481 -2.522854534527567
Rh -1.6915768564016704 -0.2175974731419127 -0.6794177756585273
I -1.206925120992416 1.5106603903173108 1.566080315564734
I 0.6087430477855778 0.993243350649054 -1.0045236820533983
O -2.525781663404116 1.356429286521907 -3.093319082834286
C -2.2785756637796206 0.758107270306936 -2.1390047089293085
O 2.8347836149625216 -0.8084818739474857 -0.34811383223400705
C 2.1917038215248916 -0.1411928089298401 0.36422373540673003
