15
## STRUCTURE-ID: 645be9e2b32b404b1d5c012a ; CHARGE = -1; SPIN = 1
C -1.9717541918351973 0.16805535150343498 -0.7725635476870601
O -2.966268298735804 -0.20954511119045272 -0.33156216444937997
I 1.3066237728039132 1.695603698524019 -3.3725851371074196
C 1.1944464910574895 -0.18502254034759352 2.9320403544804527
H 0.5998950039521975 -0.05624619335657781 3.8355872497791816
H 1.730756835417033 0.7386525337437624 2.702633965668065
H 1.9461738552662604 -0.9646219628347276 3.049941264114715
O 0.07937428220635569 -1.7660188037843596 -3.1549399094852726
Rh -0.5357286002795423 0.7695574455831162 -1.7273873605419532
I -0.24969884421613434 2.7262640375495626 0.045494572120531776
I 1.4902511567626362 -0.9518435621039603 -0.08965352154155147
O -1.4908558430125345 -0.11640434731857621 -3.4928337401291425
C -0.5955687038773927 -0.8098075295483278 -3.1312814455993485
O -0.8530283887543874 -0.5456210814349651 1.6892688756689846
C 0.3153814732451255 -0.49300193498438893 1.8178405447091834
