13
## STRUCTURE-ID: 645bb9149c7fef3b820203cb ; CHARGE = -1; SPIN = 1
I -2.235032130262547 -2.446695645159212 1.3211540276670757
C -1.1856843650168383 0.4591220816715263 -0.28433212596374746
H -0.605879513111581 1.0959175068686824 -0.9585258123024729
H -1.2147423830558328 0.9021516419739547 0.7117880236981389
H -2.206986804065614 0.35223420275128664 -0.666290867274926
O 2.279296711039691 2.92526640023343 -0.5650667380341071
Rh -0.36816582719359087 -1.4691323703298924 -0.2980041230164657
I 1.8822594767144099 -0.9334575959737283 -1.6216650413919838
I -1.5173145566821866 -2.4665708439817284 -2.43417704400707
O 1.2320626345512333 -1.1283600875574786 2.177580750496052
C 0.5927953302147776 -1.1558145747265656 1.2274670407043828
O 1.4677030794913686 1.6052078436701913 1.1176794585857668
C 1.8796883473767116 2.2601314405595323 0.2723924508393617
