17
## STRUCTURE-ID: 645bc2602a53536f0232eba4 ; CHARGE = -1; SPIN = 1
C -1.8156058950915803 1.2092538958027144 -1.972492802193747
O -2.5227556748922266 1.8456122435953821 -2.6258885411015993
Rh -0.42255453153618466 0.3982192806131337 -1.0265053262418882
I -1.0374020721834896 -2.142794241993268 -1.5320944069070574
I 0.6834832894246189 1.7849730050293215 3.0600280466071776
O 1.9925381810900344 -0.741831574400741 0.45433507305294646
C 1.3172908458687949 -0.11829105720330196 -0.33854479669408016
O 1.2715733698061604 2.019489789902343 -1.3829027228205357
C 1.7136779230562027 0.8481609381474372 -1.395759296792567
H -2.694106790786822 -0.60285956518177 1.024467348229803
I -1.4706772158506496 0.39599862415732345 1.5322700695341718
O 2.388964224332967 0.3658612948491982 -2.4560602798361058
C -0.5650629757944959 -1.3684785542264377 2.368677904675592
H -1.1252600358951848 -2.2165578571147044 1.9897476049832283
H -0.6070132731313087 -1.2925446217064442 3.4505518528465378
H 0.46748555657074137 -1.4031546607210985 2.0297663905534256
H 2.4254250750124347 1.018943060450913 -3.179596117895298
