23
## STRUCTURE-ID: 645bcf5767c32b6f285c0133 ; CHARGE = -1; SPIN = 1
C -2.6693076806677407 0.8798203589747972 -0.6135018530930929
O -3.2231856633096805 1.7255048883441497 -1.2006419134846855
H 0.7845778472320517 -0.2788425236147736 0.37118795630159
I 2.0506525241514213 0.6272183783005192 0.04520331869525892
O 0.3689414740233918 -1.4609668581884856 2.0636806035382724
C 3.3001478482318674 -0.9486409152191925 -0.8156848703244542
H 3.6021917422935847 -1.6126573014621859 -0.01295911769127992
H 4.162635077822869 -0.4671908195762207 -1.266514059473152
H 2.710454946963606 -1.4790971267601711 -1.5585691946466367
H 0.7212402478389097 -1.8233171842813298 2.8994431860659935
O -1.7557575678332813 2.416581341760247 1.8287190038282364
C -0.10169651634218733 0.023334776644476887 -2.8267418606191552
H 0.944959896014115 0.054531608566706226 -3.107032654617048
H -0.3770201121352575 0.8747967194602895 -2.211233239637361
H -0.7413732660112533 -0.032604464125083575 -3.698955148390444
H -1.3089737844558178 3.231184401548002 2.1432323097075607
Rh -1.7639885734827911 -0.10343171979302995 0.6526511040881415
I -3.6465404850901946 -2.0645666328139245 0.9273159633829822
I -0.449301939646801 -1.7703643871729202 -1.6558594927428987
O 0.28232953040939973 2.0699089562752446 1.1099327128854446
C -0.8829534301507647 1.6022579975852573 1.1907759915985356
O -1.1683716249559608 -0.6776849153900134 3.4604190453812267
C -0.8396604908994854 -0.785774579062364 2.275132209246933
