20
## STRUCTURE-ID: 645bdd1db61c671f9b0fad2b ; CHARGE = -1; SPIN = 1
C -3.0606676482570356 -0.9882194915438132 0.2595951328326457
O -4.1026354533610645 -1.2849640929448205 0.6553243583558327
I -2.1047638273334597 2.0949862611983145 -0.5580007689727863
C 1.3932256966931105 0.866178791388048 4.621729385818722
H 1.3712025052146977 -0.11914405171570931 4.121385646550249
H 1.82495011907947 0.7921144459340443 5.62648845264715
H 2.026058919558031 1.47990269076374 3.966470572423925
O 2.652155914253651 0.10050121097445291 -3.3170093096837356
C 0.10259397380884294 -0.19226595577854538 -3.799605928096361
H 0.5459763913333107 0.6286729477193123 -4.3507953009771665
H -0.9889986166687644 -0.11924380303062058 -3.823528936970755
H 0.42018528394874977 -1.1323257110111953 -4.247317040274558
H 3.4854617777732106 0.23526925115488587 -2.8631282733212444
Rh -1.476548871799006 -0.5586895662977103 -0.585130316034681
I 0.5693586840841088 -0.14665812603583006 1.2022586264155724
I 0.7928387156719037 -0.13285863081449215 -1.8401625305343319
O -1.277667878526632 -2.7307259594812434 -2.654075708448504
C -1.4128652063484965 -1.9750398152727362 -1.7690137877411756
O -0.8956446709724989 1.8078108240908575 4.7109662750827175
C 0.13578419184784632 1.3746987807030513 4.643549450928482
