15
## STRUCTURE-ID: 645bd455ea30b236ab507c60 ; CHARGE = 0; SPIN = 1
C -3.0922404315801115 0.7829646477937666 0.03979863410227788
O -3.821661484756675 1.3699723110495658 -0.6200995407745641
I 0.4050941715510033 2.247697502241742 1.093620376300068
C 2.192362603096631 -0.4329738957077246 0.6059769198953672
H 3.2060545536650964 -0.03485692833227317 0.7239289050440774
H 2.263245202753709 -1.3999206901698502 0.09925335468366356
H 1.7544525750034783 -0.5507823991418765 1.593901573648131
H -0.8811966937709502 -2.7525262434912094 1.8620166869325607
Rh -1.1106167419939348 0.1779469193866181 -0.06114173794096067
I -1.1262462942927858 -1.233176407307627 2.267643597273991
I -0.6919287423969176 -2.044280496332027 -1.5574732790136436
O 1.6566888838219855 0.8643648913156958 -1.3798042622773263
C 1.495183258050573 0.49927900947926473 -0.27305813943689444
O -1.1354322173460512 1.508573540751571 -2.707887019238767
C -1.1137586418050582 0.9977182384643716 -1.6866760691979956
