14
## STRUCTURE-ID: 645bbbfca05fda1f516ee1ca ; CHARGE = -1; SPIN = 1
C -2.530861245126064 0.40157987592180666 0.3722790710596037
O -3.2733858608569233 0.9299665819971672 1.0717125302387498
Rh -1.5096874632864534 -0.5820561504856778 -0.813631780411641
I -0.8062915001145137 -2.220067939107062 1.1441572708769636
I 0.46962677677663905 2.6830946120432335 1.6459127064721633
O 0.5140214069106545 0.7886813532888148 -0.5837242180558538
C 1.131849691063052 1.0047461340247577 0.41847355778012396
O -0.42822196651655775 -2.4985795666664536 -2.8410236531067823
C -0.7667957256565372 -1.7324626490688027 -2.0552047463850114
I -2.6873687026807263 0.7140442770283052 -2.812584686984356
C 2.2687645303804 0.27330024274248044 0.9949052145790842
H 2.657221057128848 -0.4323096282382733 0.2610889319624982
H 3.0440475697563936 0.9574502716382872 1.3322136179114812
H 1.9170814322217966 -0.2873874151185734 1.8654261840629773
