23
## STRUCTURE-ID: 645bcf5767c32b6f285c013b ; CHARGE = -1; SPIN = 1
C -1.135048667804583 2.1447741969017824 -0.5013248481138611
O -1.332233001241866 3.2371423736373663 -0.7983464902952592
H 0.6153260798123942 1.0973302218781527 0.8331139499752396
I 3.77503090652609 1.0281349630218017 -1.4205699690297449
O 0.7279554876082229 -1.7176625531480174 1.3689138457310939
C 3.6718578239063095 -0.7480705810120297 -0.23872951142487614
H 4.586153851637111 -0.8206092548252613 0.3350694786923131
H 3.5545247947545318 -1.5862355482278798 -0.9132892247833941
H 2.811984998460488 -0.6663270225248438 0.4156401726667513
H 0.8401679164323027 -2.4563979164744043 2.0002113166079956
O -2.5925534147442515 2.1868004507325383 1.824358691514357
C -1.1613404111132817 -1.0711560477527204 -3.2976645171420627
H -0.8036485949629872 -1.854938413062776 -3.9555046739219484
H -1.2346610235234108 -0.12120189935287651 -3.81457637357971
H -2.104814828927377 -1.3390616210024993 -2.831929386247959
H -2.9246614521486847 2.633168630533544 2.629526826032518
Rh -0.7708084639150933 0.5650388499604244 0.4522822020055476
I -3.1602454130977615 -0.5641368692933442 -0.0051821234187403396
I 0.3123896938236673 -0.845357086801964 -1.7050457225965423
O -0.913508579700875 1.5930031594301297 3.145915940759667
C -1.4378115447585773 1.5309585811991846 2.0532564714864976
O -0.9663750857939135 -1.2782861100910359 2.7176879413408352
C -0.3576810712284663 -0.9469105037252575 1.7061860037412946
