19
## STRUCTURE-ID: 645bece26ecf59741c39f29a ; CHARGE = 0; SPIN = 1
C -0.9877449878615829 1.381202866140656 2.902540592329518
O -1.5120374105012995 2.0999701747301565 3.645013073337698
H 0.008233115144527925 1.5292080718362768 -2.8804712370950485
I -1.9372106676988337 0.4377665945411366 -0.4952662355841321
O 0.04880502270531608 2.182061539998794 -2.138306989787996
C -1.157611588436537 2.32749226910229 -1.4410170139092806
H -1.0110826689742702 3.0333947562098333 -0.622822249451761
H -1.9445036719865878 2.6346512903227546 -2.1333024364079627
H 0.8319623724235787 2.0249638378806836 -1.532237810299339
C 1.362793793304624 -2.8636654882046355 -0.7286978908928191
H 0.3768213487736067 -3.332252987391086 -0.7644678768873587
H 2.144436834762457 -3.5514828467639448 -1.0416610697181534
Rh -0.1968912068703811 0.05086218702788383 1.9474591869057085
I 1.6605889658129687 1.605534767342715 0.9508832524648213
I 1.313783242029083 -1.3266162671914892 -2.2414473537097894
O -1.1537716988971252 -1.943366001605296 2.8137140158715184
C -0.2204507956623239 -2.124651990792921 2.0376422667610825
O 1.696073288933222 -2.3856023934954975 0.5111980200290726
C 0.6778067129995392 -1.7794703796882674 1.2112477560442056
