20
## STRUCTURE-ID: 645bc9d03656dd325b554eea ; CHARGE = -1; SPIN = 1
C -2.405695453892302 -0.410489024636083 -0.1693750080514153
O -3.4331691521410335 -0.7334440906807272 -0.5747642248426628
I -1.5071172008387896 2.6298574686386345 0.008398805523433188
C -0.40772339413399117 0.6490043950938233 -2.8580980242229366
H -1.4140913935026915 0.24847299864763173 -2.754052379098685
H -0.4253453806236249 1.728926832673643 -2.9786563832258106
H 0.040362079256442085 0.1987604430896502 -3.744604735713798
O 1.3690503197223836 -1.6471357113381615 -0.5892941493585391
C 1.3849929268229038 0.7495742756643696 3.7377773720163536
H 0.9990952765299635 -0.23133566454355145 3.9975214124904284
H 0.7041006583692765 1.5312836756101245 4.0558618477363435
H 2.3735364001088075 0.9018021230781393 4.1544361889649375
H 1.302788728579231 -2.6108827004772612 -0.45060995102183415
Rh -0.7890101165461213 0.09248714425533665 0.47428230843262825
I 1.564825051651083 0.8498506724284403 1.5663330031676408
I -0.97343431173148 -2.0296117933929705 2.087741744307914
O 1.4477273539800553 0.9185963421767721 -1.3475359892575667
C 0.46299801981470023 0.26015643905136987 -1.693384899516468
O -0.5773123898923405 -1.9255357525578884 -1.690361520749624
C 0.2834219784675519 -1.1703380727813146 -1.231615417580336
