15
## STRUCTURE-ID: 645be6ffb4f15300fb0dd8e0 ; CHARGE = -1; SPIN = 1
C -2.5239586710051363 2.2144471339473095 -1.3923048606242314
O -3.5088578546704468 2.5889643760407117 -1.8620199851551469
I -0.9038822390821152 -0.6492240290895125 -2.0038483778683425
C 1.2603299792604155 -2.9448092128562133 0.15108789206519102
H 2.2336560405321864 -2.5404707388255368 -0.14494944191600087
H 0.5938917836272108 -2.770561394246472 -0.7128930438394157
H 1.3307209875223345 -4.027167499511558 0.33474301426523595
O 1.716683989304069 1.433792780146402 1.9981878276881457
Rh -0.9264599391880796 1.6664819872547185 -0.6751385709755661
I 0.7870788053113942 3.1123130651734408 -2.5002316368049824
I 1.1286352311087897 0.5301432723870491 0.48654058683403817
O -1.1251303570255096 3.250378664129202 1.8605732752365574
C -1.1296305346071955 2.6498831312757942 0.8705362313465942
O 0.30643281588738297 -2.180741397444768 2.3094830873628265
C 0.7604899630246951 -2.333430138380561 1.2802340023850736
