20
## STRUCTURE-ID: 645bc2420182fa44bd6006a0 ; CHARGE = -1; SPIN = 1
C -1.5820351279328753 1.7761510389052075 -0.34053584702249107
O -1.7424313972625607 1.640761252725659 0.8359123093548058
I -0.7174945589376063 -1.230830252548398 -2.0120287050128662
C 1.469156888091483 -1.9581953860420118 0.5802446539189694
H 0.8198145827841417 -2.7927439997535717 0.3436744630607138
H 2.0087559307124745 -2.0968168471053006 1.5118307321077387
H 2.1511997896247785 -1.7598328197422646 -0.2393444910468295
O 0.5309147656234093 -0.40836591792338084 2.8213743292699163
C -1.4474982299835353 -1.4467852330137958 1.3748677020406286
H -1.332885791026686 -1.664034252261224 2.4284319520403503
H -1.457022361903787 -2.337553502658168 0.7618693251211749
H -2.337401229228717 -0.8560194503524425 1.1992757342227238
H 1.187073008891507 0.22088603731552553 3.14045887172313
Rh -0.7131269360864971 1.5542576441687357 -1.9909541758842817
I 2.968564573827189 1.0756357130642766 1.0429420461996628
I 0.2307483380247872 -0.2599087811297815 0.8539831388092011
O 1.7915252286828776 3.223150909701229 -2.045423127628785
C 1.014548217214927 2.3515939710297658 -1.9655943364384796
O -1.5928633203202587 2.854374563712588 -4.571910868964144
C -1.2495423707950475 2.114275311907336 -3.729073705871167
