21
## STRUCTURE-ID: 645beabec44da06897799634 ; CHARGE = 0; SPIN = 1
C -2.8915545782779546 -0.5268707115940308 -0.9192200611735095
O -3.7317124287597543 -1.1634977931262922 -1.4304959017520755
H -1.0814056364788078 2.0132230550969528 2.740762125977593
I -2.0451610983119726 0.8426452790864649 2.2191381353998954
C 3.2350751056783156 1.9330541040530758 2.5274134123083623
H 4.3327520354911915 1.901230760259816 2.4845495861492974
H 2.9232131291996697 2.300477390793173 3.515661330730055
H 2.873468589206302 2.639708685924317 1.7611250457110268
O -1.7250128933302074 1.314578698111729 -3.06789667765093
C -0.6698799136262988 -3.1604610310979075 -0.9846915659984515
H -0.7616711388834022 -2.656358562277184 -1.9389144447128541
H -1.6476761513250984 -3.3061101105740063 -0.5405729946773455
H -0.1465242122690965 -4.1007491926669495 -1.0916881687946451
H -1.549906475576962 1.210010325912972 -4.02233624182801
Rh -1.4402572067587696 0.45364153868629237 -0.4101354222269028
I 0.4556598103648829 -1.915895436304444 0.2809877702452983
I 0.5624935268131058 2.103993579337779 -0.2687305654542327
O 2.284734707109285 -0.32750528568822945 2.13175392869154
C 2.708434765331418 0.6981530344227154 2.293908002127848
O -0.5421488113905386 -0.5720947018633649 -2.9432493842674
C -1.1429211242053197 0.31882637350707077 -2.3373679088046027
