15
## STRUCTURE-ID: 645bea24e57e6d4601014ef4 ; CHARGE = -1; SPIN = 1
C -2.187264836975767 0.3927088757741074 -0.7893613648835749
O -3.1811422969597967 0.1580644453286621 -0.264148188275105
I 0.8457920562242696 2.0117618459402893 -3.6152887238579625
C 1.000269914191324 -0.31211793246466824 2.678754982807642
H 1.2507180254096053 0.7517945615692685 2.723038180905861
H 1.9478642117815594 -0.8542746662347983 2.6629949381577767
H 0.38894421597254275 -0.5961280742635093 3.5352271641024786
O 2.2287351255110774 -1.9637368672422193 -0.4781463331064271
Rh -0.6828380208378686 0.8417035138724396 -1.7548479974402673
I -0.03948004448829684 2.5968298277259847 0.14644842084876694
I 1.6541477211653646 -0.216464421538901 -0.3835462735136484
O -1.5180383000188276 -0.9803973024390669 -3.9652646256740836
C -1.2110357932512428 -0.2784475971307761 -3.1070732616465255
O -0.7876670612886344 -0.9728062989403962 1.1695196227548703
C 0.29099508356475284 -0.5784899099564433 1.441693458820199
