15
## STRUCTURE-ID: 645bea1449042d74d95a483d ; CHARGE = -1; SPIN = 1
C -1.8592172829793754 -2.3766550355338296 -1.0127261274031325
O -2.1331933294533876 -3.4365328744994734 -0.6466778665006835
I -0.10133328381787755 1.37806221076003 -2.5155880976567127
C 1.193929634555254 1.3700414663109144 2.0083192159071097
H 0.3644457359828903 1.8290096870144903 2.545391099103408
H 1.808128239841745 2.137008891380511 1.5313750300043902
H 1.8523911391788026 0.8482246326421805 2.705928348626812
O 0.5720689686259154 -1.5568383181292376 -1.2168064611822145
Rh -1.2375890234818854 -0.7448257965469948 -1.577490063530102
I 4.263684125437658 0.48002945164378885 1.033825743086682
I 1.9949941959358408 -0.611684318626453 -0.38044362345644706
O -3.9738418517875522 0.21125572182553207 -2.2868983120124717
C -2.908220520597709 -0.13191329224388015 -1.996681012787213
O -0.48854059405798966 0.1554447521884082 0.794471048152797
C 0.6522938466176661 0.44937282181403226 1.0140010796478227
