13
## STRUCTURE-ID: 645bb2e8f978221cc66ee1d3 ; CHARGE = 0; SPIN = 1
Rh -0.6033949024800335 0.3124906486059321 -0.25289389082381714
I -0.8172718963771929 2.8025811889133174 0.5621699382985987
I -0.42545485600637084 -2.6048506733099055 4.497770589615984
O -3.402330144149409 0.16335661010372096 1.0372283178454753
C -2.369115289823132 0.08010225981813435 0.5790881124223646
O -0.6889112410524018 -1.98738327865133 -2.1647735335787215
C -0.653679784147037 -1.1398559024581325 -1.4093615460704696
H 2.4383667080653972 -0.34558427993564206 1.2879826479416217
I 0.9916219294053462 -0.8492978759487096 1.7305436940318826
C 1.1602574000240322 0.8021712958018977 -1.3031522657054209
H 0.8053528722699731 1.3139371532069992 -2.2082943395216965
H 1.7918639520281088 1.5025612262354198 -0.7531713219885628
H 1.7726952522461485 -0.050228372379850825 -1.6031364024688546
