20
## STRUCTURE-ID: 645bdf43a9e8040601732d34 ; CHARGE = -1; SPIN = 1
C -2.2030165553960908 -1.978426235010399 1.3023620730207857
O -2.5547497288678995 -2.934260077060782 1.8342692041120898
I -2.7366080025055073 -1.2289060496652369 -1.8006294281457609
C 1.6973735488330848 -1.2028583297276958 2.2161324629212045
H 2.5089383479791336 -1.806343022286215 1.8072564709194134
H 0.8247076998333808 -1.843089410402124 2.3381902631409006
H 2.0086254115298074 -0.7828742183554935 3.1688620644924357
O -0.9402858715354536 3.244403895276849 -1.9407700399861814
C 0.174615926382601 0.9238370731861871 -2.675514824651601
H -0.7086068976255531 1.0344997761228496 -3.2915010580705
H 0.5032211338273738 -0.1085218028341664 -2.621077121532138
H 0.9608160452723086 1.5828009677056367 -3.019797760328255
H -1.1786338233229026 4.024477091102177 -1.4384899538883382
Rh -1.5561895104188643 -0.5143164135361203 0.4346099214887387
I -1.2540079525267567 0.9054271362752864 2.6277262404034625
I -0.3304276583614218 1.5261091219303877 -0.7140694343748526
O 0.8431064590062267 -1.3082403637355746 -0.7513969039152735
C 0.5535032856859678 -0.4095730741697566 0.045539059337489265
O 1.9585329574678618 0.9850353117808016 1.2391286078899535
C 1.4290851847427302 -0.10918137659662396 1.2391701571664153
