14
## STRUCTURE-ID: 645bbbe76473c548a85a4843 ; CHARGE = -1; SPIN = 1
C -2.3608081112731094 -0.6877649797591706 0.21389250817600894
O -3.482654345841827 -0.8230805364820059 0.44035483343735404
Rh -0.6811533573625846 -0.26367469564880724 -0.4925754550903753
I -0.8645105716979485 -2.2658383693448583 1.7709025145284112
I -1.4249444578384665 1.9597915986069272 1.0227926567241616
O 1.7482970973656253 -1.1712379696483757 -0.11178500977757773
C 1.2931383183728247 -0.10017153089210633 0.1694107647138491
O -1.857818487220597 -1.3323690154128318 -3.0534213407110844
C -1.4613290379295618 -0.9348005328857106 -2.0531643927642635
I 0.8233401976884572 1.0208606150466324 -2.43200247427576
C 1.9456008286722604 0.9642821979372421 0.9690902148203239
H 3.0248663561253966 0.8221407967533768 0.9031020404930915
H 1.6684560085299174 1.9645389759893064 0.6449117740988658
H 1.6295195624096186 0.84732344574038 2.008491365626987
