13
## STRUCTURE-ID: 645bb2ce10ce7021177e8a8a ; CHARGE = 0; SPIN = 1
Rh -0.4924575802229992 -0.2610265362720787 0.2784302764508188
I -0.8432983874046636 3.9880017349484755 0.4802908748518438
I -0.41831136398767305 1.8143573886926898 2.0524618969483264
O -3.161098983935266 -1.285552602514296 1.2967460355005147
C -2.1094106830527117 -0.9477448265734697 0.9916948143100363
O -1.101353833020248 -0.6172516197997021 -2.6340831949191843
C -0.8943481749785316 -0.5214246469970067 -1.510834712695218
H 1.9431873595866391 -2.8675188990642937 0.5074448894924066
I 1.2534535602160795 -2.1311597055728595 1.7252484159832389
C 1.1964018477824592 0.575404379548947 -0.673841597147506
H 0.9894073507239021 1.5334058654815899 -1.1683647308336995
H 1.9620301832683842 0.7748285720177026 0.08705539432572139
H 1.6757987050246157 -0.05431910389570606 -1.4322483622673037
