15
## STRUCTURE-ID: 645be1ef6a2ab177ea5c3524 ; CHARGE = 0; SPIN = 1
C -1.8023629741466092 0.44140695833612725 0.40588371628734854
O -2.9680619592906696 0.4968140538267712 0.23103997291581646
I -0.7567367751043106 2.0311532803577594 1.4983866808191064
C -0.4528514028379259 -1.4497832559319885 1.3350485635507028
H 0.15275914177915365 -2.309560971234731 1.0515377117061588
H -1.379427501742306 -1.8142317146234397 1.784145314529845
H 0.07038249277711403 -0.8501395238744707 2.079007927580747
H 1.8351290452158702 3.416231043832239 -2.0602629287167393
Rh 0.655539744851258 0.33507369835583733 -1.0404702437594888
I 2.566511316560408 2.146857691913182 -1.4358178275990536
I -1.0167677582397405 1.6808482432652336 -2.559318143112763
O -0.767119335471698 -1.1365318207849489 -1.0667934842325872
C -0.8190337211113133 -0.6600554533927285 0.09917182716238925
O 2.748146117046637 -1.5328909204678256 -0.010063769790149758
C 1.9338935697141375 -0.7951913095770159 -0.3114953173413432
