20
## STRUCTURE-ID: 645bbf98d5647554607e8a84 ; CHARGE = -1; SPIN = 1
C -2.2376697827995695 0.7204373799006297 -0.7207581016117959
O -3.3672223421269076 0.803034917598745 -0.8694636515799077
I -0.9503467770133178 3.6603999984593636 -0.43736204430104636
C 1.9551590204660754 2.3778166353865497 1.2280428697720764
H 2.888575407868781 2.2029286670690156 1.7620492893154058
H 2.1220398107112404 3.0905720622316686 0.42040825721865627
H 1.2164443586251998 2.8094941215010736 1.9025244283557086
O 0.4941279926059922 -3.9711172037027844 0.0017674285608476506
C -1.6767469133276023 -2.434667536848903 -0.6315418739055815
H -1.6329675704263937 -3.512357390740279 -0.7071066594649107
H -1.9039989918611753 -1.9802380757903597 -1.5896819681004604
H -2.3905317139812903 -2.1286110221708507 0.126091637096043
H 1.3347832566583222 -4.206437941271604 0.39705807604902604
Rh -0.388446092708831 0.8800298468859455 -0.18127074487906686
I -1.328912084867115 0.5700252662200069 2.3001775220368468
I 0.2668098449003685 -1.7945994305424882 -0.0218495269123973
O 1.3230558464506514 0.8837110437302452 -2.6338926173254262
C 0.623691102309228 0.8731672006596132 -1.7245034446043825
O 2.189583537961956 0.08595359339346441 0.7334585790041921
C 1.462572090554242 1.0704578680305878 0.645852545276225
