20
## STRUCTURE-ID: 645be5e537cc5e0db56df3a0 ; CHARGE = -1; SPIN = 1
C -1.6803545296356395 -0.2889710761356959 1.2776483198292956
O -2.6401075288754927 -0.7969060563767048 1.6747397239360948
I -1.8236993523622125 1.1280983072304875 -1.5472274695415535
C 1.6013900368095058 1.974601241392968 -1.754996055021034
H 2.5680668913621645 2.4773141531158736 -1.7266510540104798
H 0.8716021854879646 2.6386894280719013 -2.2197391384376335
H 1.686357804177379 1.0586767988508472 -2.3357088636408325
O 0.34986504228788917 1.0443007148043042 3.209164377899056
C -1.6750658549225754 -2.8195597273383814 -1.5022936992378464
H -1.6359218765895405 -3.8092582897164298 -1.9381964026736513
H -2.024095704447898 -2.0830343920982854 -2.2170492012816294
H -2.288550179932159 -2.806596637968684 -0.6087822559584568
H 0.680249459417386 0.8302174044931904 4.1055393108582425
Rh -0.1710664776438393 0.4749260833744982 0.5628482080859755
I 2.9552093441540075 0.22461858160993847 0.5670849312232413
I 0.33391770905478907 -2.271336490553866 -0.920336558487615
O 0.572969244035666 -1.1462112752681697 2.813557902692306
C 0.3133714150453583 -0.03017755799022199 2.411440825033838
O 0.8449388302617571 2.5004323030454483 0.5071999511098023
C 1.160923542315514 1.70017648745695 -0.35824285237709724
