15
## STRUCTURE-ID: 645be98134cf9575d8099df3 ; CHARGE = -1; SPIN = 1
C -1.5467028149837485 -0.36156231863994936 0.9944604739733922
O -2.4116737033394635 -0.17119529895753482 1.7223205609240109
I -1.4958712557055867 -1.676939527380329 -2.4228653602574477
C -0.01922774594211223 1.9458288205563736 -1.4088178099323558
H -0.8120364000522701 1.4427042314966714 -1.965111765214268
H 0.9017360136591166 1.8653756404231017 -1.9909938624603103
H -0.258875751265954 2.9996274312671085 -1.272496639561378
O 0.706716561844098 -2.543588017031668 1.9198810134707178
Rh -0.01819050476148676 -0.6781712968219513 2.7935308969725556e-05
I 2.38175602460977 -0.942738947426164 -1.0192936563544956
I -0.2604526342145953 -3.3847607138225713 0.22950235027163565
O 1.2762895658847073 -0.5292768186751994 2.6002336983903636
C 0.7848492110169238 -1.2273856443495905 1.7498389271062411
O 0.5474988693845307 1.9321766054100364 0.9241272093341398
C 0.22418456386606275 1.3299058539516535 -0.06081307499920901
