15
## STRUCTURE-ID: 645be44c3753c675e00d4d50 ; CHARGE = -1; SPIN = 1
C -2.8414793552151916 0.5314385140400584 -0.16865085159836474
O -3.932771181932455 0.3268192476627254 -0.45188886617381807
I 0.4388096682415829 0.7412090577036647 -2.219015960290864
C 2.2157582910655296 -0.9045511551463583 -0.05410216346500984
H 1.5389752717227638 -1.7085920160773653 -0.3415577724091113
H 2.6592492330821256 -1.1261098954317408 0.9190086248054813
H 3.006703089074595 -0.8271526203866462 -0.8051744758976678
O -2.5523490026336932 -2.1580401436551067 -1.8494376965284776
Rh -0.9775110419223307 0.4490023453962458 0.2557453225702805
I -0.06966552885168326 -0.6008948014103296 2.605353346290946
I -1.4777826070724756 -2.0727358738771406 -0.3312269249773972
O 1.9162810327268192 1.452037741655081 0.46525131040155493
C 1.5769774658789564 0.4116751346414348 0.024228092289325053
O -0.7064406220112783 3.2854626998364234 1.1505913498280984
C -0.794754712153261 2.2004317650490566 0.8008766651551559
