23
## STRUCTURE-ID: 645be7be6ef92234475d4920 ; CHARGE = -1; SPIN = 1
C -3.3244959037165036 0.7438092673556265 1.265287687852978
O -4.301060251126866 1.24779038544946 1.6663409983939261
H 0.6656623641014456 -2.3042492933238994 0.20846890451007113
I 1.4687730709870428 -0.9492138946780504 -0.07052484949405131
O 0.383753559767595 0.24971319145767526 2.410242763083602
C 3.117831106656599 -2.351454625447811 -0.6327886285757908
H 3.3814422657674315 -2.934201266244774 0.24220329438379673
H 3.9517986465213353 -1.7389037552595168 -0.9577960378819783
H 2.759321866063188 -2.9814036877304217 -1.4392246923658187
H 0.3927406840924355 0.022008076149576915 3.3552085292896208
O -1.279856627850597 2.928398754422772 0.6666484228197275
C 0.06722901117070317 0.4230020548875191 -3.0999530766395873
H 0.6940833592151314 -0.3407117777386341 -3.5451536432818065
H 0.6033269340876399 0.9849115919824919 -2.3425931240205053
H -0.36012522692578197 1.0770783660447178 -3.850150937790465
H -1.040718097503333 3.2593399208605764 -0.2142730723013089
Rh -1.7432780351436543 -0.06316558302451437 0.7764026956748484
I -1.6902624467376655 -2.6974362655385375 1.4327372496598219
I -1.5778365984977718 -0.5843046307377849 -2.085009535692248
O 0.29115802293286025 1.4074638407273563 -0.012202610168600293
C -0.6461857325582362 1.6942627480028627 0.8266431710696792
O -1.1766622356164875 1.7124195600458563 3.2036140043596983
C -0.636639735686475 1.1948470223374383 2.1958724871143804
