20
## STRUCTURE-ID: 645be60868c1c000532fb20b ; CHARGE = -1; SPIN = 1
C -2.305024755157782 0.8833519664999028 0.6395487226682661
O -3.3556975247243037 0.8268419745225524 1.1202142819171241
I -1.3820250406372014 0.1853825442215374 -2.469275111676228
C 1.8457508585404583 1.6796963443714898 -1.7258933997653194
H 2.843160350161513 2.0590555886180266 -1.5023102251170728
H 1.1957501636606782 2.4820852988050888 -2.0755028407541998
H 1.927067641653825 0.9465878643871022 -2.5332434662267946
O 3.213946831492181 -0.3909691790134628 1.9709246238014166
C -2.7878287996135627 -2.7573693167164137 -0.22015712103056773
H -2.6241594534886157 -3.6111399372409765 -0.8648465304714689
H -3.0504150375839516 -1.8844150396713792 -0.8068799510052883
H -3.541033042224919 -2.9625939265279544 0.5299908611507984
H 3.094614183748478 -0.7587572049340852 2.8671810983344197
Rh -0.5741169956373584 0.9165758950719076 -0.004259904155625169
I -0.22211710378669539 3.308690285185313 1.233831251149851
I -0.9363476171426321 -2.3353119006370573 0.8006879316719534
O 0.9984265135720092 -0.07234585629558665 1.9472051171352343
C 2.084489861298275 -0.003574037437327168 1.4222602035853367
O 2.3157368086257684 0.4928693454645062 0.2053488501350065
C 1.2598221572438926 0.9953392913268378 -0.5348243913468127
