13
## STRUCTURE-ID: 645bb5b6fbfd5864d70203bd ; CHARGE = 0; SPIN = 1
I 0.010347054637080152 -2.55720468835185 3.393614941456539
C -1.332453625262605 0.07328240897042733 -1.2819297267307095
H -1.051400057588 0.5726571969176024 -2.2095706385223552
H -2.1923330859302754 0.5901689656359025 -0.8306540842145103
H -1.6031995412233793 -0.959481527732085 -1.5043747358442257
H 0.0017836177776934601 3.739425688564146 1.3787869607548302
Rh 0.09524999635358443 0.286535097457707 0.21711877929928405
I 0.21408511068042974 3.0523531410188705 -0.03670247944128493
I 0.4115847751888165 0.06199114439546064 2.867242569865757
O 0.6489836840245902 -2.663012315583129 0.24398558517127183
C 0.7722125457130625 -1.5095845675390154 -0.10272302545512606
O 2.464742855003033 -0.1055406859147445 -1.378734034693233
C 1.5603966706259726 -0.5815898578392663 -0.7560601116462278
