12
## STRUCTURE-ID: 645bbce7381a2c75862fb20b ; CHARGE = -1; SPIN = 1
C -2.7296172188081136 0.18633610188580182 -0.5862102867220826
O -3.5863796416553013 0.37358243774270167 -1.3329888368525793
I 0.5501149397764262 -1.7429255200133813 -1.311077920342253
O 3.124892678528671 -0.8779377655641326 -0.44340103952652515
H 3.871613703761586 -0.31890444108730837 -0.13055008193538747
Rh -1.3993497578614706 -0.07370225052567261 0.6464990101934088
I 0.3843955917310773 -0.26811139386372856 2.5874636388278436
I -2.7275938700806015 -2.242907723224706 1.3797095598843583
O 1.7339972451085006 0.8804726164558996 -0.6583708108332224
C 2.031170775937169 -0.2671099182845455 -0.6923906670964608
O -0.48262233898097406 2.729501543648262 0.2076945621250637
C -0.7706221074569628 1.6217063128307472 0.333622872277852
