15
## STRUCTURE-ID: 645bc76322a6562de60fad14 ; CHARGE = -1; SPIN = 1
C -2.3863199028840545 0.002079116360577838 0.6018486744680553
O -3.3044790020675814 0.6494726163901394 0.8485537334107126
I 1.2629645929697555 3.2139857976633683 2.986003648942868
O -0.3943961224117806 1.2208394004048182 -1.747420342232127
C 2.8452946353643727 0.43889454008255097 0.44915140288707606
H 3.422935504702748 -0.2662549727047184 1.013762016039164
H 3.2520230787728774 0.9437571449833154 -0.4044827048525663
H -0.5487727207128261 1.7009181807938965 -2.5857300299224972
Rh -0.9347190453103232 -0.9774631516139468 0.006256319304557471
I 0.988093346937312 0.8599437877856394 1.0276670543874886
I 0.7712209780857301 -2.3361844407932777 -1.4429630205523085
O -0.8585487111100606 -3.2594871633465847 1.9823003451353376
C -0.8116356159871644 -2.3129358017443264 1.337245905125748
O -2.0737358113793953 -0.03926027962777893 -2.469959380632634
C -1.2299252049695997 0.16169522536632197 -1.6022336215088526
