20
## STRUCTURE-ID: 645be7997b4f06552d732d3d ; CHARGE = -1; SPIN = 1
C -2.1900479128094865 -0.17609576265002064 -0.9916889520456432
O -2.979001975526066 -0.19231625838059285 -1.8369337939755508
I 1.8131986841515013 -4.26679403145177 -2.311802052819913
C 1.2694223278431795 0.8842046097050134 0.6062870266716409
H 1.0494579036620282 1.6845194617631487 1.3410806529243118
H 1.9286468250691369 1.3415613070088723 -0.15042060347018113
H 1.8909997825672011 0.14542615947466958 1.1339169097203485
O 0.04080870886749486 3.5857303533387497 -0.8646873479924313
C 0.30080353867446596 -2.9615900175894763 2.180842109313457
H 0.3208796515336739 -3.3757089860224596 3.182409451298366
H 1.2856633752940363 -2.6423075126711955 1.8580390271988523
H -0.12670658966925236 -3.658317547236135 1.4679563818462562
H -0.3098082595911732 4.3656229026524 -0.3910442488916116
Rh -0.5838271610417679 0.19317943053980222 -0.0836518697996284
I 0.6151265014796963 -1.7413358709830258 -1.3445906253742672
I -0.9897966885944017 -1.1946360940032341 2.236189215506172
O -2.0387568607975273 2.7752788391213175 -0.6097925264385665
C -0.8863540922693619 2.6349103384709975 -1.015168195028342
O -0.04058698970346249 1.2327393691880162 -2.787197114654076
C -0.37012076913992425 1.3659293097249479 -1.619743443989228
