20
## STRUCTURE-ID: 645bdf44a9e8040601732d40 ; CHARGE = -1; SPIN = 1
C -2.5166779667665695 -1.361532546970962 1.1397476754288725
O -3.544494252705952 -1.8233595286499213 1.3442133771976652
I -0.9622370791978785 -2.4965357520310993 -1.2458493260571373
C 1.6180487636136196 -1.5970001155368116 2.187059009305477
H 2.1437318186516703 -2.3531944115672956 1.602464165621724
H 0.5763176357538374 -1.9343598555790305 2.3142127796780936
H 2.0894060670271717 -1.474300817576308 3.1594137482498232
O -0.9825094355669872 3.4484933718948203 -2.0600154272862574
C -0.28302624478943994 0.9187201544720607 -2.6932708762175572
H -1.193423172623175 0.44477299092394573 -3.0396382730090927
H 0.5267173430545707 0.20478547105353867 -2.611837272646924
H -0.012867291147083073 1.760826804521987 -3.3141913507487093
H -1.3128788712075954 4.19778489087405 -1.5604458533894372
Rh -0.9059080258878033 -0.596035288753984 0.600707796350846
I -1.1736507529642328 1.1737710684431282 2.56384275590732
I -0.6633838227691414 1.7320953717056562 -0.7779173090505391
O 1.7037862562385218 -0.3787871633109986 -0.9323337778712188
C 1.007539870197839 -0.2821084831534764 0.061125283999542646
O 2.222749590433997 0.7094199662956557 1.8285905021452888
C 1.6627595706545888 -0.2934561270549181 1.4341223723922545
