13
## STRUCTURE-ID: 645bb9f2560741225039f29d ; CHARGE = -1; SPIN = 1
I 1.850054255552755 2.4846026936202583 1.044949973349193
C -0.49676319571743616 -1.3717991990774698 1.0575640450255237
H -0.19316039577856023 -1.3420145613759267 2.1148486523830186
H -0.24725278092741573 -2.3387232913981215 0.6253240095815278
H -1.5681498794956013 -1.1891970820978695 0.9702496811349285
O -1.2153334301533736 1.3241050009965252 0.6848198881083725
Rh 0.5589720905771184 0.2897446930823523 0.32211831277249925
I 2.723916238311821 -1.1751254371633686 0.4427313106746221
I -1.6648740202927612 2.960607566665844 -0.25203149151088067
O 1.4977252791734086 0.9085545872182852 -2.3942565420597086
C 0.6758360321428581 0.45828606614732265 -1.6645024551555536
O -1.4831973532843576 -0.73103104880315 -1.660736847998169
C -0.4377728401084543 -0.27800998781468833 -1.2910785363053912
