15
## STRUCTURE-ID: 645be6b9a38638585052ff58 ; CHARGE = -1; SPIN = 1
C -2.112256430764873 -0.08342637238082853 -1.9582646477632377
O -2.8822788859369637 -0.744946062189102 -2.4891067166905207
I 0.9858511166422446 0.02203782022762112 -2.684416489009062
C 0.216456903961462 -1.5177808538928652 0.6994032495973102
H -0.3617198237765163 -0.6878205236351443 0.21123594342856952
H -0.4461254731900938 -2.08545492120114 1.350887798411378
H 0.6124263642092086 -2.1409666624068953 -0.1023340947396691
O 3.943122807071528 0.5351593485503024 1.7231980667939308
Rh -0.9201857863344586 1.100511930144566 -1.2055232028143217
I 0.5408513157883896 3.150575450182822 -0.4152754805388864
I 2.8566370838063566 0.13444100142265766 0.3102452476180029
O -3.0071138657173284 2.3064515456824752 0.5546611106887326
C -2.224106557918923 1.8222948475969403 -0.12936028945038505
O 1.4980291634006417 -0.8900646486460938 2.651855149573935
C 1.3004120687593332 -0.9210118994553165 1.4827943548942122
