21
## STRUCTURE-ID: 645bede71c089b29953adfde ; CHARGE = 0; SPIN = 1
C -2.621445771273502 -1.4162822057850306 -0.03890810729079552
O -3.686389008368519 -1.067560512156082 0.18276775766275968
H 0.699417220632002 0.8987496548693997 3.8468188499461857
I 1.6017986418930616 1.901382749147778 3.0443997422187135
C 2.44925963480294 -1.084349206242852 0.4324958228212337
H 2.496182234762261 -1.0797401192711524 1.523880076252067
H 3.354703380248029 -1.5586938732403024 0.05561555570664049
H 2.37414415401161 -0.05255914669786107 0.09719345351090605
O -0.3111410341149205 3.3018923129445246 0.018407770927802637
C -1.5192780864793693 1.5232714427933816 -1.6154883963304105
H -2.380407185838349 0.8670546743548831 -1.601581619925902
H -0.8821326702717966 1.3184167618168865 -2.4667629091040935
H -1.8130426333974516 2.5650336598553003 -1.5936957909796599
H 0.20133332237331317 3.6911558655708028 0.7333644004142849
Rh -0.6967100330024978 -1.5137557495731977 -0.11900550604357488
I -0.7922421055021681 -1.6171878274238902 2.48903226913263
I -0.3961380583168976 1.2122037025242811 0.14489418566253914
O 1.2685209628605847 -3.0887631176708026 -0.14990891668450418
C 1.2574147219297553 -1.885289622067988 0.04114109076137368
O -0.20539579398225657 -1.4834804921889855 -3.0756469894123866
C -0.39845189296700134 -1.4314989515598695 -1.9490127392480199
