20
## STRUCTURE-ID: 645bda9c66312b69d9732d4b ; CHARGE = -1; SPIN = 1
C -2.0437352980885657 -0.4115327243854357 -1.8735606962024185
O -2.483442616360469 -0.840487446779856 -2.8780042650105404
I -1.6889284443781174 -1.3201334629713306 1.3639821542871875
C 0.628498107480913 -3.202338310072591 3.467887224746306
H 1.3337122096448895 -3.8307485453492176 4.027884620807425
H -0.3106016631750532 -3.742490603356339 3.2852618047654656
H 0.3563377479972518 -2.3174898123532874 4.0589035954209205
O -0.7494363779623787 2.1083775452006255 -2.833090165906914
C 2.068109402484634 1.9307571688584437 -1.1912692553239876
H 3.0715869093598283 1.9197125241827442 -1.5944357845041979
H 1.9875542895090506 2.594527452610907 -0.3384569690662709
H 1.3416186546246833 2.197982915460344 -1.9484708074745818
H -1.060409982785479 2.7286789165842915 -3.5187652731131283
Rh -1.4643335446092984 0.5754115820557373 -0.47378151662034573
I -0.9630117381743583 2.502071523333415 1.281535214315285
I 1.5983630834971925 -0.03152064503126447 -0.5194057331460482
O -2.785081212478621 2.5709844500645094 -2.0589846469451203
C -1.744663599371116 1.9231203607689844 -1.8720323332511104
O 1.7289534755780065 -2.5442268096114264 1.3362249288154913
C 1.178910597206791 -2.810656079209327 2.2785779034066627
