15
## STRUCTURE-ID: 645bd68df321ad556f36ef4a ; CHARGE = 0; SPIN = 1
C -1.3634442184772015 0.5353839166851606 -2.0414124598923333
O -2.0180251015226336 0.6158884669680892 -2.9670631178698526
I -2.0771142581103987 -1.3785966055892014 0.6105135062882874
C 0.6158224105684765 -1.283813624881794 -1.4402792265847206
H 1.0395902386564495 -1.9517484705790573 -0.6875549001710501
H 1.4161028948424719 -0.8320982899688548 -2.0333880285076753
H -0.04717911731443147 -1.8586762474898795 -2.085324362691944
H -2.8495460003153084 2.0846351751033434 1.460275639422597
Rh -0.3588678000882465 0.30004787532298344 -0.4784066463532806
I -1.614998044413056 2.6964489839618806 0.6773284596121507
I 0.9214432880302016 1.2109254155329134 3.5882857374248167
O 2.055994063815237 -1.285463185258006 2.3969234923658997
C 1.58385944456662 -0.24590100307671262 2.08345122766059
O 1.5934484337507395 1.0875863696492696 0.06061330065892087
C 1.1029137660110968 0.3053812236198654 0.8560373786376122
