20
## STRUCTURE-ID: 645be7a9be22b81a705c0133 ; CHARGE = -1; SPIN = 1
C -2.2609223063071555 0.7742771144720455 0.30767782702226737
O -3.0492300466165148 1.5965355600635769 0.5548634717574462
I 1.4630838948170768 -0.038014728862616476 4.476704731853443
C 1.2298877189257764 -0.4077935315281041 -1.1105386528504595
H 1.8575353107016808 -1.1320109492104782 -0.5662220396470963
H 1.8820415163938204 0.47055948796021957 -1.2827192944872021
H 1.0685415059879368 -0.8430792340712765 -2.115647982270819
O 0.17070694642690204 2.16494944458208 -3.012744439071827
C 0.3082268436898977 -3.0126340279228216 2.184207967306674
H 0.4491352976348761 -4.087150761101616 2.209590797343902
H -0.18529492110094162 -2.6564502174742692 3.0823390999701767
H 1.2464175994508133 -2.4924987362305604 2.0266105404973564
H -0.20786579545852202 2.237577758123263 -3.909061977106139
Rh -0.6478698893129026 0.00250092489288394 -0.22335324536035203
I 0.5950030726499019 1.0285815080137293 2.0357643761809356
I -0.9938789782316116 -2.5772562683105584 0.4684630695247797
O -1.9884433459608453 2.283283751648353 -2.3782334140231196
C -0.8017932069803535 2.1543381972290256 -2.075943150511355
O 0.18174144682681564 2.6886631011400177 0.0488292901124654
C -0.31702266353665487 1.8456216065871032 -0.7205869762410757
