15
## STRUCTURE-ID: 645bcc23b6d73629b1108f13 ; CHARGE = -1; SPIN = 1
C -1.7425728132958813 0.44605499582848795 -1.1858715102139845
O -2.7347937287894934 0.4992720073228424 -1.7568033857481564
I -0.7059082710850535 -0.25320216147661634 1.9211031310295072
C -0.8783142627840942 1.7436865231357879 2.285041972036504
H -0.06787857715937437 2.1966533080115744 2.826635217271705
H -1.8750454141150696 2.124206834431942 2.405800309567106
O -0.1849244182876666 -2.599068467411103 -0.22152038038997404
H -0.1756965621924593 -3.5166544482288318 -0.5703360201682163
Rh 0.0338499494652645 0.23886647669266045 -0.6185756152972857
I 2.8352946368905294 0.925086603661843 1.586825700055316
I 0.6375874496837202 2.589732434068892 -1.754639717325571
O 0.13126468667703559 -1.978005503719141 -2.3394134965723445
C -0.017643145769865944 -1.676656194939853 -1.1682550519701025
O 2.804964377743523 -0.6280938437215554 -1.009793799838211
C 1.9398160930189148 -0.11187856365689801 -0.40019735243638954
