15
## STRUCTURE-ID: 645bc97854a77e5a1839f29d ; CHARGE = -1; SPIN = 1
C -1.8618233237484545 0.27338007655025093 1.1275644965547325
O -2.765526593249578 -0.034751489608494765 1.7615947569793367
I -0.8041727756694993 -2.4796314452046166 -0.4248638218201533
C -0.8702705277643825 0.9194727690578374 -2.4381158871442614
H -1.5199688295613205 1.6320995640156384 -1.94804945475025
H -0.5924376394166608 1.2550707298852672 -3.4286032947186156
H -1.3253386868773902 -0.06180474847317357 -2.4861943065887737
O 1.7106549441078251 -0.4969212918994807 -2.347603962295058
Rh 0.08270397662362484 -0.4916661403561008 1.0607541574623283
I 3.5711327657696925 0.6687094640488187 0.33451793633730853
I 0.9386250185401368 0.7573231021511909 -1.2819564476160716
O 1.090572646581235 1.7167799723762176 2.8052618354147096
C 0.7514290964272171 0.8658026702417829 2.1304371989109816
O 0.9589464986959523 -2.7021416703238264 2.8957321676392174
C 0.6354734295415903 -1.8217215624613234 2.239524625634611
