20
## STRUCTURE-ID: 645bd94a8ad1636d592fb1fd ; CHARGE = -1; SPIN = 1
C -0.8145734268424637 1.7738924547326076 0.2766243075336605
O -1.897991745005499 1.5112747285149088 0.6823868067753267
I 0.15783954862094607 0.7072819711367156 -2.924341906019874
C -1.1179657804179888 -0.9607503803591365 -2.34721687905106
H -1.9112118486966219 -0.5594819905986623 -1.7267198591360295
H -0.4968158202241168 -1.6638294860965985 -1.7997258873152315
H -1.5081910287209277 -1.3978710426093788 -3.258242335585373
O 1.131361437953681 -2.5938861700275098 -0.43449234454929236
C -0.595311315796458 -1.5038298657446691 1.4215129302745604
H -0.7850384816842402 -2.463139533760231 0.9560699971757692
H -1.3263280419318053 -0.7551285294837213 1.1415136026599906
H -0.5164287355284565 -1.573709350837666 2.499109217168122
H 1.9740606188551078 -2.945955682365947 -0.7442985532767715
Rh 0.8342935428950304 1.710466264150213 -0.5532250841335657
I 3.4133628552927204 2.0419544132062635 -1.0147808447998719
I 1.316517062651307 -0.8884151774510276 0.7327257299125064
O 1.1261191664459629 0.7069082129157822 2.1463904119126425
C 0.937546035756121 1.8591479841870668 1.5266746865367347
O -0.10887021250509041 4.083645370168777 1.7848934107032315
C 0.18762616888281972 2.9114258103222013 1.6351425932144876
