15
## STRUCTURE-ID: 645be432e8671272343adfcd ; CHARGE = -1; SPIN = 1
C -3.0641954136623673 0.6280929596819921 -0.12386550158426278
O -4.046064939739192 0.9456928221843908 -0.6332146574915565
I 0.23357750192284707 -0.5709107841764172 -1.7493216973028605
C 3.1802987036333774 -0.18309879807046184 -0.6626722587693908
H 3.0950409425301975 -1.17732981645252 -0.21652472978088716
H 3.9562099795032797 0.3863312919962074 -0.15131714083706121
H 3.4091710239932618 -0.32978661259652453 -1.7175987001554012
O -4.33031725739074 -2.28773844616763 -0.38987829338978974
Rh -1.5704132063509342 -0.03677635876126059 0.7168122638668596
I 0.15610311370565919 -1.3352552922816967 2.1830078382623337
I -2.7315571955007996 -2.365476150823998 0.5885903370174269
O 1.5193362568448296 1.4188190098149818 0.09338962190057648
C 1.916863679578238 0.4948137679259164 -0.5045391720706396
O -0.7590275272779723 2.752030051925139 1.4270858335573133
C -0.9650256617899352 1.6605923558015538 1.1400462567776994
