13
## STRUCTURE-ID: 645bb4f5814915622f0fad14 ; CHARGE = 0; SPIN = 1
I 0.8490015556295178 1.9899430636332727 -2.324612522203246
C -1.0034758347781247 -1.0849899763547357 1.0720423003295831
H -0.7607997497332938 -0.6687246744038354 2.049462080429369
H -0.8163523130157393 -2.1580750087829164 1.06860691369594
H -2.043893009245894 -0.8632517669795955 0.7973016675478694
H 0.10899781333430716 -3.2353438276977187 -1.953250174800179
Rh -0.02148183867371261 -0.06224877984526918 -0.42213041752207187
I -0.7747123436087962 -1.9713881543545393 -2.3243446883799046
I 2.268685388188097 -0.8982573636007574 0.4758729358598716
O -1.048003270111898 2.096312597574107 0.9290824248780298
C -0.04140407803832487 1.690076298149002 0.4145451022470012
O 2.152180702871548 2.7949971636718227 0.30890139749355944
C 1.1312569771823207 2.3709504289911627 -0.09147701957582016
