13
## STRUCTURE-ID: 645bb581d3a13e4e483adfd3 ; CHARGE = 0; SPIN = 1
I -1.4482537878088433 -1.1699965558816643 2.158174394364485
C -1.2496458673764361 0.2570287700432121 -0.7207516856445036
H -0.8321714791982183 0.8641138606945576 -1.5277104573068234
H -2.0746308598253154 0.7721172693615191 -0.2317593971042582
H -1.6112832237686259 -0.6953342794735822 -1.107972172092281
H -1.1374267476546664 3.3787389614107464 0.38703840005320217
Rh 0.3769379701566257 -0.07433101322266245 0.6303100903806793
I 0.27415268020664996 2.8518393995311127 0.8960092091527203
I 2.707655721373405 0.08831599186253186 1.9643418719172039
O 1.2974252381345663 -2.9428681908707004 0.4850324301776442
C 1.0937388908362826 -1.8442867937556084 0.08839810908492308
O 1.4188541977584637 -0.5476511494579758 -2.0547751748638623
C 1.1846472671661084 -0.9376862702414877 -0.9663356181191151
