21
## STRUCTURE-ID: 645bec82f4ecf452ec554ef0 ; CHARGE = 0; SPIN = 1
C -3.1405824626871075 0.4985637281028368 0.27213402739476433
O -4.1904940997530895 0.5877729895638886 0.7044047569907785
H -1.918337959572255 3.4416741841193 -2.2602899904982663
I -1.287605133156252 3.097116963840956 -0.8265715111668485
C 0.17964041265750988 -0.25545863697878735 2.3117036254612144
H -0.2349787083125991 0.08934567703923045 3.2593584892895198
H -0.27224950470997283 -1.2093983674780735 2.0465476779730096
H 1.2543269710846394 -0.39226665925135434 2.439374315224751
O 3.25662523117538 0.2968170490981561 -1.7078422553764998
C 1.7732056387483874 -1.4646739562270963 -0.3987192935939035
H 1.5931271871633854 -1.9194605732483487 -1.3662355668862578
H 1.116931040887828 -1.8648897601417185 0.36221255842127464
H 2.8184069910499154 -1.5698410829508755 -0.13733780488163588
H 3.567251458706485 1.0714440082414358 -2.177597636553757
Rh -1.4040138682880765 0.39180922552161923 -0.47317038247202414
I -1.3108659459162797 -0.2012988032426668 -3.271498471272416
I 1.4078662857037123 0.6193196704385657 -0.6269283207789089
O -0.19606978273301975 1.991433260196872 1.5960346130538396
C -0.035982860947668914 0.8208670624970333 1.2795246063206618
O -1.5106587995311644 -2.5840958830456424 -0.537051406381948
C -1.4655420915698272 -1.444780096095318 -0.48805203026734834
