21
## STRUCTURE-ID: 645beb617275d240fa60246e ; CHARGE = 0; SPIN = 1
C -2.6928855094189452 -0.4174805985522242 -0.746148816011755
O -3.61677085538751 -1.033005311083869 -1.1201105430210994
H -0.6125831137382641 2.4697123887043984 2.389382983918311
I -1.2953942602432909 1.0302639289383086 2.185561536845634
C 2.7238669758588485 1.8307291507692116 2.8526244049504794
H 3.75966289586236 1.9837805406835332 3.190022686975326
H 2.0422156475101527 2.02109295595598 3.6949256267304724
H 2.5157801252013523 2.5512179617448507 2.043311328688134
O -1.775239061779946 1.3242990512439277 -3.085647928627164
C -0.5935516227214974 -3.177690748335701 -1.1414502743184525
H -0.6824371484353686 -2.650997471597891 -2.0836801251063144
H -1.568661446747133 -3.292153692805172 -0.6822706415684935
H -0.11202899372507842 -4.136444910426092 -1.2771352434429524
H -1.7414586095288291 1.2040361906733565 -4.053400303474626
Rh -1.1355888384795807 0.49391378200450364 -0.4811690685763761
I 0.6047797604321423 -2.009675356719429 0.12917740607287528
I 0.9689246471657978 2.021894088500407 -0.6858444317418422
O 2.432991442547397 -0.48966470789872013 2.0160585143198744
C 2.5590029981654934 0.5618694170005872 2.384850447877891
O -0.6503636490507496 -0.6018924818288025 -3.1001459412795
C -1.1302613834873418 0.316195823028818 -2.4289116192104436
