13
## STRUCTURE-ID: 645bb4b44c6c8b192b507c5d ; CHARGE = 0; SPIN = 1
I -0.34915309710137654 1.2645657066662312 2.6801814642898507
C -1.731996365819955 -0.32213601119858 0.1864312049410333
H -2.3583765308116305 0.5104736358933027 0.4966058970120065
H -1.9104081651624358 -1.1900998495813555 0.836625635687302
H -1.9448845337308052 -0.5647782809887918 -0.8535293645939824
H 1.880085153053454 -2.992227818388012 -0.976786922643202
Rh 0.34537363013931666 -0.07056327251074636 0.5192574052345189
I 0.723000117270775 -2.0492322638205414 -1.5201407962221525
I 2.4913278025247636 -1.0376907913466191 1.7594438967400186
O 2.021934925263571 2.3507746341105227 0.13867542139972483
C 1.2075065444157942 1.5896643660356504 -0.24248857879622635
O -0.46984663265422216 1.3152221309068535 -2.032083677772197
C 0.09543715261276274 1.1960278142220968 -0.9921915852766852
