15
## STRUCTURE-ID: 645bd41e7019bc11c7099e01 ; CHARGE = 0; SPIN = 1
C -3.213297405719163 1.6043868461332553 -0.12348627934574812
O -4.154828837768423 2.1524508973122423 0.26037260544549773
I -0.36405416470705687 2.0361767526140224 1.1109268400681442
C 2.8176339533105006 -0.7446457259373035 1.0653400825331838
H 3.6294582097243815 -1.1036680758183972 1.7134911975331157
H 2.7419974253546067 -1.388601208196758 0.17561600781102354
H 1.8700935020717429 -0.8048317704430976 1.6190634791510354
H -0.6928978864475485 -2.817199518125023 0.2175988226714477
Rh -1.7105034949264348 0.795420253519451 -0.7898849158993096
I -1.7039410911829675 -1.889086055436638 1.0161947949397772
I 0.4744151878601669 -0.10026055334870054 -1.9372748369280068
O 3.2847378310833113 1.5868732076120962 0.35476610518132073
C 3.052356264646713 0.5398821535235678 0.6716906668122204
O -3.343451268448879 -0.07563413741646448 -3.130826895397508
C -2.687718224850909 0.20873693400775817 -2.2235876745762524
