13
## STRUCTURE-ID: 645bb4b34c6c8b192b507c54 ; CHARGE = 0; SPIN = 1
I 0.09188265317239648 2.0418097107633915 2.0295671702415468
C -1.5180117096542942 -0.6673372426919412 0.22241823298004124
H -2.128047206212446 -0.03025209560793466 0.8624010744955368
H -1.5172489953299246 -1.69726079246143 0.5864515778300909
H -1.8595765078517987 -0.6111339999591261 -0.8100946913338902
H 1.5177331276776271 -3.0549498720119472 -0.9706942643084908
Rh 0.4911961077042448 -0.05164215753533467 0.37373931310281383
I 1.2809819581635078 -1.6189293819513577 -1.6236982979752796
I 1.4184654309942764 -1.6998047570916701 2.2290528645239167
O 2.234504739240936 2.139107302423975 -0.2910495841125364
C 1.0534106407851205 2.021886708096042 -0.23139927317989464
O -0.9753411762703864 1.7789746404966342 -1.5509406299430657
C -0.08994906241924143 1.4495319375307116 -0.8257534923207921
