20
## STRUCTURE-ID: 645be5e537cc5e0db56df3a8 ; CHARGE = -1; SPIN = 1
C -0.28918778669528905 -0.7521770684449781 1.6246189657861054
O -0.7016932232906756 -1.8550553837624328 1.3324564550373443
I -2.0069675885463125 1.339029714252947 0.00035935715816652066
C 1.1751680071747348 1.545134509405795 -2.3060383585033666
H 1.9764383076321979 0.8387540381518241 -2.52713915601014
H 1.4016623273396025 2.5162696272189162 -2.746566292053372
H 0.25407059766669393 1.142530590458016 -2.7248527129282833
O -0.5071997783817268 1.011393843965334 3.2420185852713934
C -1.4821340442976794 -2.2206665039057807 -1.7447876788163332
H -1.6424247202496116 -3.0852779658387366 -2.3747621975545328
H -1.9145109838696328 -1.3260301770136569 -2.174861679109596
H -1.860390862070308 -2.3831681503618456 -0.7433448950363843
H -0.4592546662328859 1.2906655652291883 4.1780433517248525
Rh 0.4730153792715612 0.7439334307538599 0.7207961563339591
I 2.8587470491290317 0.10375912747425127 1.7144576615863856
I 0.6390028286073489 -1.9215052991225157 -1.5700881768517707
O -0.008893001350045903 -1.034161224511318 4.002422395552034
C -0.25977722981099893 -0.291545098894669 3.0800137572169506
O 1.300167076614237 2.6386037744132427 -0.1352913065954069
C 1.0541623113597007 1.6995126505325286 -0.8474542322079855
