20
## STRUCTURE-ID: 645bde29b5058078356df39a ; CHARGE = -1; SPIN = 1
C -2.3152067476604317 -0.8461175639981546 -0.6882963085881133
O -3.3891393153418 -0.9887486598841243 -1.0884717598783573
I 0.012832874890032507 -3.167213587389974 -0.2670130252811708
C 1.591710585335669 -2.142874512413868 3.7379479531321103
H 0.8938640694154297 -2.9558761690488504 3.5224371357422672
H 1.2385327584280912 -1.6640852972365985 4.650582296419821
H 2.601889945074555 -2.5381212727867775 3.843912820928225
O -1.3321693333046272 4.118789063309562 -2.190178074106523
C -0.8098447332492212 1.5726022535070914 -3.145255421642149
H -1.569887973247662 0.8412650616704409 -3.400289631263049
H 0.18248536342056668 1.1714242330176996 -3.3242058999916555
H -0.9606476290596127 2.499333225938842 -3.6775710330896794
H -1.4724662357380736 4.810292914378367 -1.5446338469934124
Rh -0.5154288793497878 -0.5481666440326084 -0.37913283241330653
I -0.5381178745696108 -0.15046089068829765 2.5129697485744322
I -0.983613582017078 2.015382626107024 -1.0681990330248186
O 2.266446525836826 0.18127688960164007 -1.1866773961755062
C 1.2503055374608865 -0.1203154866685393 -0.7295673520552941
O 2.291624452683886 -0.8757993711161554 1.788179901214827
C 1.5568301909918913 -1.2125868122667405 2.633461758491384
