20
## STRUCTURE-ID: 645be58c76330a52bc0abd08 ; CHARGE = -1; SPIN = 1
C -1.81405118384459 0.3085728990871078 0.74496962391423
O -2.764099880617193 -0.3321335237502961 0.9478519517051576
I -0.8837543153987488 3.3219731710843305 -0.9075188210203559
C 1.268932386979111 1.36008720060516 -1.901295169472351
H 2.287630227191646 1.0636655564254922 -2.148087336728177
H 0.5716331961176404 1.0229791804869064 -2.6700142842875265
H 0.9162363771039606 0.8658113644054277 -0.9365592671214298
O -0.13953973237715905 -0.3132811386741727 3.142672902044147
C -1.1677862502671925 -3.060495689180734 -0.2558448135930434
H -1.2194025425257444 -4.06813859532635 -0.6447365292100883
H -2.081528693343444 -2.7847996425004755 0.25548059356616365
H -0.3125336971959396 -2.9282066797372166 0.39465748194490613
H 0.18383879825879898 -1.0833421348968668 3.65115398432167
Rh -0.21313866718992647 1.1926093819474302 0.7932888583671829
I 1.9577876282068754 2.3641019539163115 1.7340761211370581
I -0.9178692872540467 -1.7294590182899672 -1.8985213433375683
O 0.9139007477262563 -1.3333855157525272 1.4632748468278067
C 0.2781829503014493 -0.35853526009076153 1.85429057466675
O 1.940549502260218 3.692102292967622 -1.8876633253083488
C 1.1950124358680196 2.7998741972736063 -1.7314760484162182
