15
## STRUCTURE-ID: 645be2efa9a52c01a032ebb0 ; CHARGE = -1; SPIN = 1
C -2.753564625940374 -0.7449563029199772 -0.16610218171736194
O -3.8611329465313657 -0.7926137884181288 0.1080108453931115
I -1.5336882872557216 1.9620396396267743 0.5968130190692875
C 1.9913196639140933 1.1744109775624088 -0.38395261568344546
H 2.403192628423729 1.5454068836089405 0.5597279201900663
H 1.5749177709621691 1.9866650529327115 -0.9782222037107938
H 2.785827400282113 0.7032455843220573 -0.9681548887549992
O -0.7958134096509668 -0.7306155581067579 3.477167739668733
Rh -0.9162145911663401 -0.3799875854424363 -0.5076832498231644
I -0.6631865616648327 0.581991751753299 -3.044250519839259
I 0.8360745244699614 0.22444186302115554 3.4798916616816356
O -0.3820348173245488 -3.04982506681417 -1.7384924471442709
C -0.5771180254513318 -2.039265064379747 -1.2476952850902512
O 0.9013416246693541 -0.5872494497063926 0.8857626722545999
C 0.9900796522640961 0.14631106296031773 -0.0728204664939552
