15
## STRUCTURE-ID: 645be52e8f19ad58776006ab ; CHARGE = -1; SPIN = 1
C -1.7223801508236873 0.45091911872853324 -2.9618667106291436
O -1.945404038323889 0.1704212890872888 -4.058219786515325
I 1.1198990356042715 -2.8842072676981014 0.09009555529403938
C 2.0626505694573547 -0.30342667865978923 1.4449975536516642
H 1.4498361412587908 -0.5607321453825691 2.312777668132365
H 2.228295647538627 0.7737248830887599 1.4347304267006684
H 3.005754401079607 -0.8377639340553882 1.559722139832073
O -0.8911792597969403 2.5702773004581405 -1.1708053288224847
Rh -1.4288655707201943 0.7233918239323404 -1.1660334737034936
I -0.7710655103437235 1.5219934853979495 3.697790001500364
I -0.9015191694653582 2.1675647333186694 0.8284874858266882
O -2.5315754318486805 -2.0128836762352655 -0.6729848018067106
C -2.060327380490587 -0.9692884565019403 -0.8333715502226385
O 0.9914490335422974 -0.0841806748641996 -0.7158320305890341
C 1.3944316833321095 -0.7258098006144147 0.21051285135095643
