13
## STRUCTURE-ID: 645bb84640ebd171a72b1b70 ; CHARGE = -1; SPIN = 1
I -1.6326472283475528 -1.98378650150388 -1.9337647709072165
C -1.685554614893286 0.7963521694599919 0.3127923072095923
H -2.5996464168269733 0.20510178657943745 0.3998827427417078
H -1.7992839875512237 1.5706821118161272 -0.45047239277466683
H -1.426740146472699 1.234178434488856 1.2775920895296764
O 1.6895208579060155 -2.420860452045259 1.089571883533036
Rh -0.18467822718726795 -0.4804678476778236 -0.37663108116137417
I 3.1559917635110657 -0.4209437979158226 -1.36128482462968
I -0.09866541969141873 -2.173752089540447 1.5871668743137375
O 1.5142807863055088 1.103881046244 1.5763775556880637
C 1.1026421815685554 0.7302866774454507 0.5274893228603686
O 0.5790106815150173 1.037857914536037 -1.7801542816269569
C 1.3857697701642713 0.8014705481133257 -0.8685654247762828
