15
## STRUCTURE-ID: 645bdfaa0ce3fa671c51c326 ; CHARGE = 0; SPIN = 1
C -1.830127391768694 0.12591907970422994 0.6522638025020904
O -2.704815077622443 0.8369143701558999 0.8764076937361958
I 0.5023017764147134 -0.6179797994287287 2.702521452925843
C 0.7240281584731084 2.015565143425033 0.10570015789293256
H 1.6486252247940805 2.3144018115375844 -0.4111062300215748
H 0.9971733935349595 1.536432375673018 1.0567055810995236
H 0.143880388848651 2.916264564440651 0.35061427753937635
H 3.1830762268157566 -0.9621305866349138 0.23410451391222403
Rh -0.6681467458584464 -1.2953440934839904 0.4461731689047933
I 2.281911984827531 -1.0901970267517125 -1.0593265305586435
I -0.21593346790114298 -3.9277173219827484 0.770102244669306
O -0.5146126746390818 1.0348574915708881 -1.797719016936139
C -0.031105395006533598 1.2363576682300041 -0.7763161829303348
O -2.019235888667 -2.2696263779097 -2.039762567261161
C -1.4970205122454663 -1.853717298545509 -1.1103623654744363
