12
## STRUCTURE-ID: 645bd6bfb4a57c28416ee1ca ; CHARGE = -1; SPIN = 1
C -2.2245255518095757 0.12762143261778044 0.16916648527013592
O -3.270675464310895 -0.32527623706543846 0.091869344204839
I -0.591750400045333 0.8754153493255026 3.007983538165358
O -0.30933747578235393 -2.308263424725535 0.49580885608118674
H 0.417567703090163 -2.834646356052264 0.8292486024728792
Rh -0.3275909280949584 0.3042521650215808 0.45661987343333965
I 0.5271613792836717 -0.32529946931150466 -3.979523107402773
I 0.13195615862378426 -1.4893319149979034 -1.431541531143557
O 2.7537324488785537 0.5028148291172952 0.46074894104489256
C 1.5613455522059971 0.7071709530531536 0.4193399498818109
O 0.566739492933731 2.943703054881764 -0.41952875964202846
C 0.7653770850272228 1.8218396181355674 -0.10019219236608076
