15
## STRUCTURE-ID: 645be944412e99614036ef53 ; CHARGE = -1; SPIN = 1
C -1.5763438549903124 -0.6804211107561154 0.9914763490824551
O -2.3913894155903694 -0.6421739717902442 1.7955921762073423
I -1.5087893101327556 -1.25032025153468 -2.3520008384420703
C 0.08503237071164707 1.9098734879963282 -1.4463992528217486
H -0.9178163427507824 2.0207809549337856 -1.865960457307616
H 0.6876562519938848 1.3481515595658764 -2.1582317039478074
H 0.5116975313796961 2.9001120435622982 -1.2899081377541075
O 0.9340432355300511 -2.1686611246560914 2.0610810502356296
Rh -0.10598293549666685 -0.7881719887484717 -0.11670299526526354
I 2.3243158026573347 -1.0971469449862477 -1.0644413660303114
I 0.1264955235269364 -3.692093874044054 0.6624798293497591
O 1.2561647108055611 0.0017648984838689137 2.298811675760222
C 0.8402726003092925 -0.9479863885084516 1.6658421252939906
O -0.20569539784698615 1.838364058480289 0.9249108604906335
C -0.05966077010653795 1.2479286520018888 -0.10654931485110762
