12
## STRUCTURE-ID: 645bb7f19fbad35bfc5c0124 ; CHARGE = 0; SPIN = 1
I -0.6222128710670001 1.6040641828856308 2.109303282064728
C -1.3043837243853422 1.1443980991574254 0.10143624647759013
H -2.3947949766199237 1.1357232301036553 0.08560607133019406
H -0.8877871198081992 1.8672451541522814 -0.5915721943920623
O 1.394935166016402 1.1141103742652059 -0.7559564673968849
H 2.2755446632974503 1.3777962292936157 -1.1062545026559218
Rh -0.3839825617773007 -0.594256119010953 0.6233110333490455
I 0.037875608191614674 -2.521368777472881 2.3777710823123703
O -0.9510697743134611 -2.4443525649211484 -1.6375097005403931
C -0.7378495514545297 -1.7179912412240341 -0.7866833102279964
O 2.228874516612501 -0.884151922509739 -0.1685239919353638
C 1.3448506253077974 -0.08121664471907312 -0.2509275483852784
