15
## STRUCTURE-ID: 645bdfd2d3fa0f28340d4d5b ; CHARGE = 0; SPIN = 1
C -1.720579129473812 0.5879504299416853 1.5719671285671482
O -2.7213048944553866 0.3498285486887524 2.0488721765385667
I 0.31261998521868434 -1.2951118692859933 2.542502881075451
C 0.5207864832938272 1.7280876744281795 -0.069577698725252
H 1.3073351769920485 1.8293767336684195 -0.8227772479402751
H 0.973332873258816 1.473660808304855 0.8891933104835454
H 0.002718994961229637 2.6846355889524665 0.02090354758439513
H 3.3637405914114664 -0.6983094687599749 0.9637482942805441
Rh 0.008530279006372 -1.2238844934355244 -0.08233315789497468
I 2.7447373806790236 -1.0357181770739015 -0.4646461761539543
I -2.290753489707078 -2.594511160387845 0.03435135633360427
O -1.4400979751700909 0.8835461339845138 -1.2130441840125288
C -0.47006487835126715 0.7383016408629901 -0.550953383558484
O -0.37286115147103593 -1.8627844466559509 -2.9784061007342504
C -0.21814024619281694 -1.5650679432326513 -1.8898007458435608
