20
## STRUCTURE-ID: 645bc0c54bb9527eac099dfb ; CHARGE = -1; SPIN = 1
C -3.0741629127451517 -0.2716312187513875 0.5827903861844328
O -4.287937833497856 -0.0314940446800159 0.5394600616667161
I 0.09212027244583347 1.664173651517947 -2.157396375139453
C 3.1844584617742178 -0.578755340720457 -2.578531463189412
H 4.139052645868024 -1.0251446979905352 -2.8881619612159577
H 2.5396371292042885 -1.3588772286334385 -2.145554979857938
H 2.6594576781605017 -0.16615679974796796 -3.452901407804975
O -2.666329065031855 -1.1377122590647866 1.5926067741894676
C 0.28164725896362286 0.003510847916907622 2.5172761390591685
H 0.9685290372210864 -0.337812480754894 3.2798481423276495
H -0.7435212850853063 -0.24755266389345423 2.7613404236803567
H 0.3721630632062846 1.0699094663655822 2.345665458824724
H -3.4380583470909416 -1.4801196763186182 2.081065798848946
Rh -1.6612949881552126 0.4659463735180284 -0.5557102984900888
I -2.194054792966076 -1.4773479505144955 -2.281148289719917
I 0.7552025530616445 -0.9941834718180608 0.6978822526236491
O -2.1139011944088777 2.527196368270545 1.5396529362225764
C -1.8153003378047732 1.7784516546504356 0.6768448625549872
O 3.616921522005309 1.193866859617842 -0.8980744318379656
C 3.38537113487525 0.4037326110309344 -1.6569540289270268
