20
## STRUCTURE-ID: 645bc34bdfe5fd10c13adfc4 ; CHARGE = -1; SPIN = 1
C -2.539793313525298 -1.8805129324637055 -0.07275525185589693
O -3.681087250318745 -1.8475697045157184 -0.1520335132855784
I -0.21261837029821715 -2.656755363416754 -2.721854614982423
C -0.8214650778746554 -0.0769969332666441 2.5701870532981235
H -1.1910186749330909 0.7672213758143012 3.1522474523595485
H -1.3654294412336738 -0.9854156139135397 2.824122652795941
H 0.22895090191740453 -0.24632047381488303 2.8130149846560832
O 3.7164316578171395 0.94666035551399 -0.4808912910294881
C 1.2673637304539744 1.6509112924483438 -1.4053321282227997
H 2.117658742052426 2.3101478519179715 -1.3171988417221168
H 0.3799249277606632 2.0885757344091838 -0.9605052427689343
H 1.0940255045147238 1.384154111061407 -2.4420423906430546
H 4.412973148506827 0.41977403335087743 -0.08802384398351551
Rh -0.7392962046533988 -1.1988487053766268 -0.325401766426133
I 0.6324306307077692 -2.887681589876466 1.1911055790550888
I 1.7384658995752682 -0.10394651337297738 -0.32934957531633924
O -1.6414903929720892 0.6785595453889481 -2.473816667810344
C -1.2861708077578944 -0.014591141289770262 -1.633088062927238
O -1.171990918535645 1.3904542943624554 0.7375592576830595
C -0.9378646912104344 0.2621803770368033 1.1140562111293988
