20
## STRUCTURE-ID: 645bdcad98e1e53be5315fad ; CHARGE = -1; SPIN = 1
C -2.2437560052783776 0.4932951296959644 0.9836872141177118
O -3.375485956514723 0.4927658700598363 1.1992370175162634
I -0.06889386106638933 2.852172634717198 0.11574255844636876
C 0.060273521213274873 0.7761103176499745 3.4596485414827924
H 0.736478811997658 0.6976021353476908 4.3156369491272395
H -0.9735242468358354 0.7168010284507143 3.8021739684612332
H 0.2574722443577079 1.735957186415733 2.9852108139850424
O 2.402044542351211 -0.43485570360510256 -3.744639897682632
C -0.23498547737154984 -0.25191178042311485 -3.2181442229217008
H -1.148919667405884 0.18467943910428952 -2.8162816745856527
H -0.39189358305050714 -1.2887365353910591 -3.4935154116055944
H 0.1258480814518991 0.3010831652737014 -4.073530635738288
H 3.348521808115498 -0.44959011948768157 -3.609520676315856
Rh -0.5816771964121914 0.293695688817575 0.1574513353647896
I 2.4170686104483847 -0.09043076870577506 1.583916175093728
I 1.264479724654961 -0.18176921007764893 -1.7241262840426208
O -1.0335504208830935 -2.5252015937445775 -0.7614710469461635
C -0.8398422615764091 -1.4728044883544267 -0.3248808953143648
O -0.07261320126702986 -1.47801724508989 2.5710266301605618
C 0.3529545330714089 -0.3708451506533745 2.5923795413971225
