20
## STRUCTURE-ID: 645bcc3895d0c816827e8a9e ; CHARGE = -1; SPIN = 1
C -1.9136855225280478 2.576724179436247 0.16164949836622566
O -2.726376278380064 3.353040113022355 -0.12615180143480806
I 3.4244856702092674 -1.3107861238927743 0.8669912022617653
C -0.6771860419930775 -3.2153095490236034 -0.3437255608717439
H -0.30651638479835897 -2.918774326616072 0.634282181692173
H -1.4054621329933694 -4.009936432456677 -0.20004139649308142
H 0.14546339949054704 -3.5851275978774786 -0.9473738809250367
O 1.2100864526191666 2.721019438201066 -1.221166087432373
C -1.3775577149201874 -2.0688507415668806 -1.0281534499671974
H 3.742375442273434 -2.6559899168479304 0.10175348460555032
H -1.7412082713418353 -2.3371269674359967 -2.0158104917648596
H -2.179892333361547 -1.6674978401922362 -0.4146115537814316
H 1.7154659164825534 3.4542880006694743 -1.6266738246563135
Rh -0.450606523886272 1.624492457020599 0.7744035219185691
I -1.8717098164523305 -0.07501032512101616 2.26046929049662
I -0.022662648171891595 -0.32939962527139227 -1.3827528526764825
O 0.7515604183275829 4.266120426002578 0.2991538098402144
C 0.5943465710325853 3.104974163464043 -0.07012888522547772
O 2.0136130821286873 1.5999337148219799 2.474310592060974
C 1.0754667162631493 1.4732169536635344 1.8035762039868428
