20
## STRUCTURE-ID: 645bd15fd07e48080932ebad ; CHARGE = -1; SPIN = 1
C -1.638395344781245 0.14648803354113632 -1.3647520437925371
O -2.1677701226290065 -3.964015479232985e-06 -2.3900319400184253
I -0.6262218799664986 1.935986186102456 2.5491698117563324
C 2.295697310512207 -0.007880958490134888 1.413227866071146
H 1.7101680235626586 -0.8928161795715682 1.6519929754353904
H 2.298000838669475 0.680944031170659 2.257816572638312
H 3.3183423365036915 -0.3330049640395615 1.206773581375382
O -0.21067824386187728 2.652571494026314 -1.6402067305193915
C -1.1503554939101632 -3.323734421178101 0.004127978679233892
H -0.19104042528163603 -3.30461770683049 -0.5024459028718189
H -1.9581590262907633 -3.133550641506996 -0.6928952154617419
H -1.299589489825929 -4.252179444977489 0.5421536933763167
H -0.3698725426594855 3.5125545108445673 -2.0742621767363074
Rh -0.973482171582178 0.6763601541244637 0.25252103139479054
I 1.651532677033433 -0.7477430428375752 -1.4925883511671338
I -1.160824156840337 -1.7163161295874776 1.4704082178869424
O -2.1008844061215326 3.1758285701793985 -0.5910175444831323
C -1.1653932912301148 2.384979482066699 -0.7042154220058342
O 1.906916775599859 1.8490129186342543 -0.09388466228377558
C 1.8320086330994119 0.6971220723449462 0.19810826072629226
