15
## STRUCTURE-ID: 645bd61d45b1b97f8b0203ce ; CHARGE = 0; SPIN = 1
C -3.4166090662475024 0.6094340005619794 0.6392295257007513
O -4.559535797565653 0.45237489862519326 0.5895301073944451
I -1.2451039093379161 -1.6557054263379216 0.23283772268093464
C 2.823394444507214 -1.8330422104042765 -0.0403756617691511
H 3.721267406012735 -2.3203933636833822 -0.4447267566337778
H 2.128753834081317 -2.6013488348917018 0.33248097747302346
H 3.1044430677228916 -1.1929388005499797 0.8098513151685086
H -0.7430659442389067 0.2382862500984475 -2.8994943242717928
Rh -1.6152309858748053 0.8754357901651025 0.8373269650468201
I -0.8684349141690637 1.6620223891183163 -2.211297562192403
I 0.8950850395886925 1.1942952188431166 1.5486830747941875
O 1.7139708064200496 -0.49233139167749557 -1.808503611916124
C 2.2046184355827045 -1.0872672620460664 -0.9972095042964154
O -2.193881127497784 3.59460568187456 1.9278585441826637
C -1.9496712889839674 2.5565730603040797 1.4838091886383606
