21
## STRUCTURE-ID: 645beb617275d240fa60246b ; CHARGE = 0; SPIN = 1
C -2.1636138530266695 -0.3083818879930235 -0.2620422205210248
O -2.928097808053012 -1.1498761640298452 -0.49255247246488726
H -0.7094342830213693 3.3357953006502545 2.476091197102897
I -1.3815665222529676 1.8934607434271145 2.3416697021283817
C 2.441496865642111 1.1091444834787714 2.391593739421292
H 3.376328178406924 0.5766138534400627 2.605679038335001
H 1.796319383581528 1.0704229461273354 3.2814595984264083
H 2.6733644608193767 2.163031636664893 2.1792143337900503
O -1.7435622313200512 1.0400892141468832 -2.931991129020833
C -0.2855726344378736 -3.2093221988665035 -0.9548435831417176
H 0.017701940789514693 -2.3335291133316978 -1.516203461253447
H -1.333647656270227 -3.424029444264729 -1.1226160290928557
H 0.3301264185458873 -4.062826324009939 -1.2043735014573635
H -1.6200161287967962 0.7504876265401589 -3.8560619670904592
Rh -0.997300450138378 1.1102117586673925 -0.2569057071942753
I -0.033174988646150455 -2.7928269344959817 1.1117799708623395
I 0.4041361261910579 3.2341723775192364 -0.8750766688070799
O 1.1423079150111106 0.18026983201705596 0.4423002210721547
C 1.7821206693067524 0.5593505993163503 1.3077326395168636
O 0.03237957427603519 -0.2606849161815564 -2.5546688413524303
C -0.8002949766068108 0.5184266111777451 -2.110184859259055
