23
## STRUCTURE-ID: 645bd044f495cc71906df3a0 ; CHARGE = -1; SPIN = 1
C -3.0802534487758524 -0.2529846044771178 0.7341288626582666
O -3.7184919908730314 -0.3734574155652898 -0.23491202175907294
H 2.098906738400577 -0.5857675645264405 2.6074919726909935
I 1.946394978550011 -0.6139537049939904 1.0111765794843683
O 0.48684045107497254 -1.435136589178578 -1.4335868511349044
C 4.235746522268244 -0.7985199083126177 1.2266649514386732
H 4.636742169858138 -0.8948077512629694 0.22410692281013814
H 4.429414995728512 -1.6843795412097065 1.8235453841779152
H 4.571411512418451 0.11576942534294386 1.7046914072115016
H 0.5790434096576859 -1.6882311399018866 -2.3727478562917153
O -0.39999392586769367 3.888000179367558 -1.0223657741561594
C -2.0143413921162776 1.8443405467090834 -1.5906814189827696
H -2.889704020642436 2.3690890743492306 -1.224724071317924
H -2.2811739116540304 0.8461884037317521 -1.9180273319835246
H -1.5529147500981277 2.408966591965429 -2.387097362459729
H 0.20098785980607914 4.446927966262008 -0.5290965757617526
Rh -0.9818728173354819 -0.7448625657018146 0.8718610143942576
I -0.6287087445052479 0.29700397071176476 3.2945637822051475
I -0.6340009555317145 1.7161053504224066 -0.029458612759849626
O -1.6850816352373146 -1.3614180360088786 -1.8990999554198307
C -0.8030154467880196 -1.2387651609212629 -1.0501844499505637
O -1.3732292098495726 -3.6949668960958992 1.0479480058684785
C -1.1427063884878432 -2.5651406307057 1.1458033990380772
