12
## STRUCTURE-ID: 645bbaf8f49d5971766df3a0 ; CHARGE = 0; SPIN = 1
C -1.5237105870489989 0.5579319482693054 0.643475376190692
H -1.291314414451231 1.1610761446216233 1.519310435876241
H -2.134069671195564 -0.314201138039074 0.9104978495921298
H -2.042538933657061 1.1794151131541222 -0.08431216728454224
O 0.4975152999181376 1.6565610974554108 -0.383636622001758
Rh 0.1860473817076263 -0.3616314519720826 -0.19484131125325163
I -1.0645280771725973 -0.7017226738451324 -2.4678947973359295
I 2.0792756806890402 1.8570483541416194 -1.4611468371469636
O 1.412917787274836 -0.09152392214243782 2.5163680095082728
C 0.9679202055309089 -0.25413755036168295 1.485767572904416
O 1.6838623038236276 -2.7551043552995362 -1.5551733891921093
C 1.2286230245814072 -1.9337115659823452 -0.9284141198571672
