16
## STRUCTURE-ID: 645bd1fa4769154cb76df3a0 ; CHARGE = 0; SPIN = 1
C -1.1905460893918607 -2.617507523984996 -2.1858875041609034
O -1.9385198632057357 -3.1815319450336363 -2.850728996542243
H -0.6265958549660079 0.6137431234998926 1.4381560037314038
I 0.11815590209123009 1.9304302151106183 0.910189006927154
O 1.9043843953089614 -0.2173026251506388 0.6758466638446522
C -1.548409676380015 3.2248730836349955 1.4344503136073474
H -2.4187601173178 2.8543870039871946 0.9009609521471696
H -1.2892445751099106 4.2309472129422465 1.118890877366044
H -1.6726062054579993 3.1674884503164003 2.5119591435707385
H 2.676267933407064 -0.2651984231893247 1.2774407119231446
Rh 0.12814114476415603 -1.8642195010245548 -1.0940066150343606
I -1.438390390716813 -1.8101313185421437 0.978040384137384
O 2.3377792694667905 -2.3785129666021447 0.409360062150111
C 1.6245989752806185 -1.423476098505213 0.10670435508302244
O 2.0410749399497763 -0.9443692929043364 -3.210655847719813
C 1.2926702122775142 -1.3196193945543382 -2.4207195110308115
