20
## STRUCTURE-ID: 645be8227615d03b5b0d4d53 ; CHARGE = -1; SPIN = 1
C -0.9638576033695092 2.502327618028139 0.9247992176052856
O -1.6754464759963317 3.3863262153158113 1.0510959932545854
I -3.1716714269351347 -1.5982197577637893 3.8634941193315027
C 2.2161233849828577 0.18689898424047036 0.14473953362719566
H 2.0413670778429664 -0.7437786492646312 -0.4039523703475993
H 2.6729782761279135 -0.07294127534009462 1.113541867435049
H 2.968285376358153 0.74516163011456 -0.42097970738197243
O -1.3859752130544325 -0.6611931366752154 -1.9254317204667215
C 0.1749644512586607 -2.6257225222181835 0.4620715738431193
H 0.15309747427080073 -2.4712127339823367 -0.6117284723437473
H -0.4266585359574856 -3.481273092631905 0.7529067970619335
H 1.186368883423885 -2.7106320792779934 0.8435181657747676
H -2.2759563859447653 -1.0488777552151631 -2.0677925886389876
Rh 0.5040517814134379 1.3041393494795617 0.5347602248716022
I 2.0140747839193063 3.4668733790999644 0.8366608092215567
I -0.7393389556599229 -0.88208161567246 1.375708956750497
O -2.4352906981795477 1.2344282978153767 -1.3467670855637945
C -1.4277016877489945 0.5946967106437733 -1.5402912390403949
O 0.6098421208180909 1.6738336039790098 -2.237401419685279
C -0.03925662756991284 1.201246829325082 -1.3489526553086284
