20
## STRUCTURE-ID: 645bc3d643e9fa6bd6732d3d ; CHARGE = -1; SPIN = 1
C -2.2871081636169652 -1.7817557155134534 -0.5547258527813628
O -3.3015090684777983 -2.255996963603382 -0.8089737890541618
I 0.22663377364431492 -2.7240925168132644 -2.363900787828814
C -1.658686970614229 -0.5552961656750293 2.7707388740293415
H -2.2753967911538027 0.3437159862651084 2.747220756956334
H -2.171757445000054 -1.3950927595536289 2.3071485593770453
H -1.4543683648362327 -0.8240680256091134 3.811695400974064
O 3.7215132736897387 1.4603318007865003 -1.0247427766614707
C 1.3656445183573542 1.3763105774785866 -2.3945522300318607
H 2.3114517738364495 1.5093770679452854 -2.898669751430666
H 0.9450213403285451 2.3393706071582567 -2.127807943692814
H 0.6688623341394818 0.8025093989230797 -2.9988579847809724
H 4.379035228273972 1.2649931914126111 -0.35831644538757246
Rh -0.6180474112924033 -0.9402289141113036 -0.4767544321019822
I 0.7738713451016663 -2.218587947548109 1.7467293903460683
I 1.7511869035545962 0.2897218626114996 -0.6236190698386039
O -1.2535503776732926 1.9957120289147505 -0.5860740824492372
C -1.0794321203955601 0.8578745167305358 -0.457745767289165
O 0.3136434993869473 0.7169990617112482 2.1423892975149994
C -0.3570072772528554 -0.2617970915099281 2.1488186341308544
