20
## STRUCTURE-ID: 645bcc2eefcdf42e046df3a6 ; CHARGE = -1; SPIN = 1
C -1.6037775242595438 2.673147293092753 0.4018847608984194
O -1.6483124318197087 3.747496157165834 0.9010919905564461
I 2.4015599639852128 -0.83761606156483 0.7208067580583831
C -0.14213782055198085 -3.089357940099467 -0.42764938180227935
H -0.24570139625087745 -2.999922744655977 0.6862812271966804
H -0.51967105844328 -4.133697019074861 -0.4292023360160098
H 0.6984591806371929 -3.294480943748042 -1.1297287432182832
O 0.8638424357721931 2.553338923318765 -1.6345078865610754
C -1.2136821317590596 -2.23779522744663 -1.1122849955567813
H 0.8145940691860228 -2.3988539475830004 0.0028343885576177373
H -1.4566215957042445 -2.6079314136658733 -2.1064054123558122
H -2.1091744954560996 -2.147229615390694 -0.500197075640529
H 1.3775332604154582 3.237126920040018 -2.1058788814372558
Rh -0.03969160626786323 1.346509752461555 0.7773149966723502
I -1.4635433972455054 -0.3905295925999714 2.1911299406039646
I -0.620775437012893 -0.06704288266984262 -1.5375407857820889
O 1.748661622830702 3.55952229371568 0.13518938818473383
C 1.0222090791256433 2.646276904844288 -0.26861096031789955
O 1.3328801384447975 2.4556302931640017 3.1804436149224617
C 0.8033491443737754 1.9854088506964775 2.2550293930369056
