20
## STRUCTURE-ID: 645bc843654aed325839f2a6 ; CHARGE = -1; SPIN = 3
C -2.514035171118589 -0.414568941438496 -0.017218790771441787
O -3.6262411315023337 -0.23921556119618248 -0.2619157888150662
I 1.299104258496173 -1.3595018400973287 -1.3083247004331438
C -0.9354039639079914 -2.909939139162584 1.5318925820342446
H -1.1900382362566415 -3.2561408998963333 0.5316583397113769
H -0.30646536409645786 -3.6412473569284542 2.0408284909071295
H -1.858047901597704 -2.7698475846539012 2.095794850239677
O -1.6913556170097757 0.3883771575511229 -2.567711097816407
C 2.7130912492341386 2.2159655411600068 -0.04161597611623393
H 2.9635439522419347 1.2036142704686998 0.2513371566259933
H 1.8700807903557288 2.2250551324088272 -0.7226891210147764
H 2.5041800883706418 2.8262326807611537 0.8273578280467179
H -1.6754017264582985 0.8902483279459557 -3.4112635882221753
Rh -0.6570361176496429 -0.14508751621663266 0.09249843266043123
I -0.6226348668409551 1.9890660063002306 1.7784423436730552
I 4.388801110338081 3.044053832124578 -1.0556379471210988
O -0.25126154869514494 1.925146603465065 -1.8312211575599862
C -0.8924388382763345 0.9085725316279674 -1.6401995806134837
O 0.6969952627847902 -1.2884961407292814 2.214818523469926
C -0.2154362284116652 -1.5922871034942807 1.493169201115171
