20
## STRUCTURE-ID: 645be58e454d03291e52ff58 ; CHARGE = -1; SPIN = 1
C -2.252044031355343 0.07736163455616554 1.3175982100874697
O -3.2860972555313914 -0.41755747028946255 1.5988673744435358
I -0.9392362582838196 2.4076311958603798 -0.8192984091579449
C 1.710246241515149 1.6477193354537192 -3.321542609521702
H 2.499283927902368 1.4955953473260841 -4.069616557944033
H 0.8139809597139078 2.0758829361823743 -3.7920066473608247
H 1.420272544235077 0.6694834227748421 -2.9035707857637387
O -0.6870545797405581 0.12925207606903402 3.9211559402622442
C -1.0032755091268217 -2.7777201466408807 -0.09394763679075074
H -0.8827906426962902 -3.7347954794827687 -0.5821676353275871
H -2.0171657735108064 -2.4063578780701604 -0.18976647316864512
H -0.7224823667545398 -2.825391362791879 0.9510449971935394
H -0.5955997000181555 -0.49162628547167764 4.669453316194274
Rh -0.5494616500247488 0.6618433946196708 1.154681583531805
I 1.9441128133858763 1.4205104189013793 1.5715201714323017
I 0.28892953953722206 -1.3877230136846685 -1.0247531098837237
O -0.10724595155792623 -1.7054976283795376 2.7992163217131605
C -0.3873503810145568 -0.49895247716791935 2.725523223782183
O 2.5966370326534403 3.1802375730740535 -1.578882078035302
C 2.1563410406719594 2.4801044071612623 -2.3335091956862564
