13
## STRUCTURE-ID: 645bb6db9e41ef61960203bd ; CHARGE = -1; SPIN = 1
I -3.09933387978618 0.3631833030866226 -1.200708740231583
O -0.6149001239878678 1.7364283429916978 0.4553826873688221
C 1.4585419149467242 0.49037894603859306 -0.6850633209781224
H 1.4162188507232132 1.0839149991389334 -1.6087952025517587
H 2.1297653761657145 -0.35770812336340024 -0.80533985982944
H -1.467167699279908 2.0681358735697626 0.7610651092956133
Rh -0.5668379219366944 -0.03257429779314351 -0.4581582353731706
I -0.2096099113404386 -1.8803721614388338 -2.3222038787978665
I 2.3166611232413503 1.7285584259992692 0.8100983018526242
O 1.2429748747056597 -1.993176576849903 0.9838023254427692
C 0.26498302410704416 -1.3290691532279244 0.7890044771777355
O -1.876738197241959 -0.9064313760098001 2.0380259608113116
C -0.9945574303166599 -0.9712682021418668 1.242890375813058
