15
## STRUCTURE-ID: 645bea0cc6c9f9712551c328 ; CHARGE = -1; SPIN = 1
C -1.4058373950352487 1.2230400110523816 -0.7234353393271195
O -2.534623057016659 1.1997829303527667 -0.9101881231496659
I 0.6416104496058381 0.8269625147771541 -3.078711601343047
C 0.5679181464806825 -0.2903161786834816 2.0974461484306315
H -0.3910176140759634 0.035108264276086466 2.502756582024784
H 1.3300058823944911 0.40163079051261075 2.4579548553046098
H 0.7923220490866214 -1.3008346783602065 2.4389569939525333
O -0.3102710754477387 -2.966945806741762 -2.5628478930361993
Rh 0.4024717915490633 1.3986188407724571 -0.44934741052299043
I -0.27769649134298374 3.1039355434496336 1.4809510305649356
I 2.9780153170674772 1.7973729040774225 -0.14784052779779921
O -1.8199640546039315 -1.5671982836373193 -1.564943697318413
C -1.0532654043913028 -2.260761624360379 -2.0618850631091554
O 0.571607724883312 -1.289198018488295 -0.08273332431693439
C 0.5087237308462542 -0.31119720899904885 0.6038673696438518
