18
## STRUCTURE-ID: 645bb811b78ddd7dc12b1b76 ; CHARGE = -1; SPIN = 1
I -1.117866291897014 -0.6726996889522074 3.4388816099541297
C -2.402980408093409 0.20085475449418014 0.24349500986167316
H -2.490869984308138 0.4131292872714836 -0.8256444557792924
H -3.05663833486844 0.8925257942802811 0.7878419117623351
H -2.769301496003163 -0.8197984720195505 0.414907320244268
O -0.0931344241831876 1.6443129518171946 -0.5305305430202234
C 1.2652962269616037 -0.3786381149947611 -2.5968679050415804
H 2.3132482544071187 -0.6521567215919373 -2.5896601809101596
H 1.112777714573539 0.5972963030659466 -2.1471660433785997
H 0.8400519661789796 -0.4306113756258016 -3.590515159895981
H -0.8462584699857657 1.9648167785887651 -1.0291015666122585
Rh -0.4839880152232697 0.2819570138893813 0.9897120065704612
I 3.2161694790020627 0.17142630235662612 0.7312635817312036
I 0.20764346764164296 -1.7921985778387528 -1.3527530083561736
O 0.9451757550298971 1.3762127481375503 2.204132778242164
C 1.4536992898053147 0.28076963605570937 1.9591281806547824
O 1.1303495772183072 -2.11244442760129 1.8824787748179217
C 0.7766256937440109 -0.9647541913327986 2.0103976891553437
