20
## STRUCTURE-ID: 645bc109f8361e6fc26006a0 ; CHARGE = -1; SPIN = 1
C -2.513122543460794 -0.3213623560308257 0.47723904242236403
O -3.0462004904257105 -1.0332317919386207 1.2084390865874914
I -1.2130141687856622 2.791041386966561 -2.4214740627844713
C 2.029070377791656 -0.11121529132281449 -2.1558227097378366
H 2.9354663653096993 -0.6673449431268431 -1.9216264032619927
H 1.3607293467073758 -0.8004473356465491 -2.673501278961947
H 2.2536466657352565 0.75100233723469 -2.7808635991615653
O -0.33293254191726646 -2.602841472261335 1.9062921216956275
C 0.6181323740703992 -0.09315979180203132 2.0343633942824098
H 1.2984993868115409 -0.5416413297114476 2.745123698671327
H -0.3800778119020822 -0.048647114181198506 2.4510638665075155
H 0.9562910900082283 0.8797022308120105 1.7002867892960776
H -0.39112095426672383 -3.5288721572745816 1.6692260519616524
Rh -1.773802628470138 0.8739733513352296 -0.7030790716504446
I -2.0674966722341015 -0.9485873422344163 -2.5625616760654504
I 0.5567948254165477 -1.3665897969889296 0.3395815969298626
O -1.3854819403476009 2.933365607733196 1.4195244252586066
C -1.5478314770457093 2.136477703537815 0.6030385730857674
O 1.243760740845324 1.4072376808443285 -0.45030295619025984
C 1.3986900561596842 0.29114042405574697 -0.8849468888847858
