18
## STRUCTURE-ID: 645bb6bd40a587307b108f0a ; CHARGE = -1; SPIN = 1
I 0.7416464126119433 1.8953114220878045 0.9621767724081949
C -2.0109516498155315 0.5435187904283069 -0.6170799439725271
H -2.2727654594815583 1.067372364489018 0.3066444019743227
H -2.6801633375001037 -0.31256662765509124 -0.7461349546659932
H -2.132128887976336 1.22656257540828 -1.4641900625049242
O 2.466808862616288 -0.3934189229266507 -1.0483843752238147
C -0.6186860416122728 -0.7960924112916375 3.5152839573972896
H -1.6700898603758472 -0.7209630963485135 3.764792024204547
H -0.17899426906633767 0.18493359396670012 3.3675596821786424
H -0.07370708746634169 -1.3641067916272285 4.259063310779272
H 3.3546372591692206 -0.7997299135080428 -1.113148548965145
Rh -0.0459431504474181 -0.10670760719835022 -0.5657243575987715
I -0.46457587083997326 -2.0660628668281005 -2.3204727599172594
I -0.46988564652320003 -1.8728611133877493 1.6310130029753398
O 2.8756095238475003 0.4871432731899063 -3.0661711919421517
C 2.1405796989679984 0.34224047002987085 -2.118236385288574
O 0.3186707331020582 1.7782553700941857 -2.7440892021102474
C 0.7199387707899408 0.9071714910773828 -2.0029013697282525
