15
## STRUCTURE-ID: 645bc4deb9eda90888732d4b ; CHARGE = -1; SPIN = 3
C -1.4663250101334204 -1.0686850626095261 -0.25701743845835834
O -2.5678603927029973 -1.34765357209337 -0.08471109397609679
I -0.2753415778351502 0.5108950735653708 -2.907645578555638
O 0.38779131311143167 -0.5483792289700298 2.2956408858750814
C -0.6834639361013938 3.5939300796588056 -0.55056971424092
H -0.5640024124337176 4.616841671279551 -0.2596184263060567
H -0.6355488796505984 3.2671456170923667 -1.5707772653768939
H 0.6044144410372043 -0.9072086076258888 3.182141200422693
Rh 0.30766591824176576 -0.656170240238304 -0.5151510878282092
I 2.824817099047437 0.22531096712470242 -0.3936866836930714
I -0.4790348417689765 2.1667628457755486 0.925203474996481
O 1.02480348853416 -2.543343693406579 1.5393792189824083
C 0.6426591933703344 -1.413947250092106 1.3063566194678549
O 0.16583709510226738 -3.4572908545116867 -1.3779076748491172
C 0.7135885021816383 -2.4382077449488437 -1.3316364364601565
