15
## STRUCTURE-ID: 645bd425960bf374cd108f10 ; CHARGE = 0; SPIN = 1
C -2.697963471430097 0.43790857008478923 -0.730207042250851
O -3.8301599459748545 0.38541034212081027 -0.7804681184967187
I -0.2572163230800265 2.089294316170127 3.069487467304804
C 2.267987067360635 -0.3528021013309443 0.5157540590628994
H 3.171842794203865 0.23155853912951435 0.3251399322573686
H 2.321751113902698 -1.3143831178633802 0.009375949322441436
H 2.201554334507762 -0.5139690375791168 1.5986118967233989
H -1.7578984270784432 -2.299486160100035 1.3630010623584585
Rh -0.7923017617062051 0.23598988274191657 -0.547584532526086
I -1.340184520359661 -0.8386423370493935 1.9069899371177443
I -0.33178612594161283 -2.208683615903541 -1.652610494412215
O 0.7158517025967982 1.5422253045660028 0.37476937038074515
C 1.1122099722413727 0.44150017914434636 0.11677897817735979
O -0.3020199299624625 1.2575928676673311 -3.3152809852355163
C -0.4816664792797632 0.9064863682015826 -2.2537574797838733
