14
## STRUCTURE-ID: 645bbbda8cd40329053adfd0 ; CHARGE = -1; SPIN = 1
C -2.9263766237775157 0.26669579817240474 -0.8167099820112754
O -4.0125840661252195 0.5589598450497567 -1.042825806485749
Rh -1.0722654218443433 0.06925342656378437 -0.5068239514346953
I -0.5442080198717466 -1.4578086423064485 1.8971445768302255
I -1.4866356870167243 2.2674677100329395 0.9503363665860862
O 1.6058144086858002 -1.4393045521210708 -0.24935165256982716
C 1.1916621572346469 -0.5969658948112894 0.48729494530299505
O -0.8018919703011052 -2.259583055526163 -2.3431821981560232
C -0.9230595584498235 -1.3784894842929183 -1.61773316048141
I 0.7670230230662867 1.333349434984228 -2.1802523053623033
C 1.9016175892889848 0.47285132910900113 1.2151996196684227
H 2.626758769905565 0.9296809211210318 0.5401444406799797
H 1.2436970595950156 1.2380970662579986 1.622915171379377
H 2.430448339610182 -0.0042039022332438685 2.0438439360541953
