15
## STRUCTURE-ID: 645bd41e7019bc11c7099df9 ; CHARGE = 0; SPIN = 1
C -3.6027734644436538 -0.25495641643605615 -0.4704132117387517
O -4.564415201502768 -0.2595564502963581 -1.1212595722046539
I -2.114314194139428 3.327201576080147 0.7508639050686405
C 2.947174277633491 -1.2917830793110483 0.9078970738645858
H 3.84739247775232 -1.8780807473568426 1.146096500616221
H 2.3674092475492667 -1.826305832519865 0.13843476494334814
H 2.331444147337054 -1.1971330526364687 1.8162394400426187
H -0.570035070459869 -1.7422642972665967 1.6205866550198935
Rh -1.91708725273035 0.8177027119343042 -0.42180993461993616
I -0.877656043658735 -0.18249827987242653 1.8695047284999358
I 0.2776078298261427 -0.10093432876323338 -1.7480793950882054
O 3.595451883392099 0.9444049611493089 0.05100911203043366
C 3.288980548049285 -0.06273639187643366 0.4312633365997121
O -2.6343903427307698 2.113356546508737 -2.985065163700164
C -2.3747888418741203 1.5935830806628335 -1.9852682393337104
