20
## STRUCTURE-ID: 645bcc67a697585fd5732d4e ; CHARGE = -1; SPIN = 1
C -1.5789700038970327 2.6672085755416917 0.3749863093642559
O -1.6122784999253756 3.748382822374205 0.8670890769797283
I 2.427681687911998 -0.7729143282505793 0.8049193415802155
C -0.1710579238484841 -3.104316917533914 -0.43844111709847733
H -0.31715090204477586 -3.0436711037015507 0.6801515093988653
H -0.5603737410768004 -4.147526558975954 -0.4344862391293446
H 0.6440236427127287 -3.357711702402075 -1.1633439774521188
O 0.9082688312171001 2.5562331868262103 -1.6188238856140038
C -1.2233546399319968 -2.2245680587330607 -1.1271236065005525
H 0.7485975975460082 -2.477954841621598 -0.018291968488689542
H -1.4662042778002544 -2.5804078320857067 -2.1271074818738356
H -2.1223157670026236 -2.1179221555816863 -0.521714391455163
H 1.4200513279318734 3.243503138727592 -2.0873023164619657
Rh -0.005616422718864636 1.3415307494034603 0.7859216500196174
I -1.4545737959486724 -0.3954708149598892 2.1701752962035252
I -0.5656789591389152 -0.064004508598091 -1.5266385839627767
O 1.7734440773519535 3.5698494759930783 0.15770046314178082
C 1.0548972577351694 2.6508074386532128 -0.24953848737284776
O 1.3093288243733168 2.495559689413608 3.19924664494262
C 0.791281686553648 2.0133937455110242 2.272621763779179
