15
## STRUCTURE-ID: 645bdfb333bdc5738f6df394 ; CHARGE = 0; SPIN = 1
C -1.6439322875416387 -1.5608763508076815 0.9674490418866301
O -1.6357369703191569 -2.7140175263627273 1.254557945674964
I 0.3984458277328751 0.028025306620309977 2.734780038068068
C 0.5750133816486637 1.9481155208091034 -0.6413478938986648
H 1.2739015669294738 1.6027751617281307 -1.4061655203847685
H 1.1289406330413856 2.1081623146521298 0.2863112075757895
H 0.13380170751578815 2.8924647057386874 -0.9637843215875893
H 3.538178056621418 -0.26611863037706573 1.0839561109147158
Rh 0.0708266493321197 -0.8258697484616371 0.3147692388990474
I 2.8966352344357715 -0.9362949506167627 -0.20385115641978013
I -3.4955285940392846 -0.44589756242068723 1.2732491211075352
O -1.6803754556074162 1.1021149139498114 -0.7235910650087796
C -0.5321887853391842 0.9714072570033643 -0.46623337946646715
O -0.682079780548405 -2.2532272899563424 -2.2087043301429548
C -0.34590118386241 -1.6507631214986014 -1.3013950372177714
