20
## STRUCTURE-ID: 645bde269645420b7f3adfd0 ; CHARGE = -1; SPIN = 1
C -2.3425050795443725 -0.6060390537031799 -0.11463134853235334
O -3.3169243472011907 -0.7642851297458693 -0.7042901778223366
I -0.6947630163180307 -2.96194575507744 -0.1838056446935011
C 1.963080436883011 -1.5198036861237145 1.5764040970540791
H 1.3201223631975407 -2.0894386816880894 2.2463780634327226
H 2.7476465960625553 -1.0282470666829144 2.1544555527701013
H 2.4399454503066482 -2.1928511014847745 0.8629321405855725
O -0.5365460388974764 3.263920049360059 -2.4955641134399973
C -0.21348021248873586 0.5206484191862384 -2.421383124151697
H -0.9161873597608368 -0.2940751135413957 -2.558215376673945
H 0.7711282349687857 0.15278809847544533 -2.1577949560071623
H -0.17261899779869694 1.163062294153402 -3.2891715657343106
H -0.701725571055043 4.156094150815223 -2.191550329251763
Rh -0.8281310433235644 -0.3340381299674108 1.0024501284820806
I -2.57011497117285 -0.8322910742456211 3.0627763351019572
I -0.8985254601201097 1.74345795033717 -0.8193173856986723
O 0.74652391133336 1.240497863316945 2.9943723379749803
C 0.20040306353556972 0.5735262065425746 2.2247767854818847
O 1.767836158210083 0.2614820938131456 -0.0007549328491625419
C 1.2348358831833341 -0.4524623337397962 0.8119335139713231
