15
## STRUCTURE-ID: 645bea79d620a441a45c012a ; CHARGE = -1; SPIN = 1
C -1.468805954546539 -0.18298802510547704 1.8161960345158863
O -2.512340324674443 -0.0325441133240231 2.2483555743875647
I 2.634513121996031 -0.9699759287166524 0.21795841557243958
C 0.27027584177516506 0.8472369842507707 -2.4020445809665274
H 0.09671463297069237 0.6427592576171532 -3.4510267403684796
H 1.33052845681555 0.8196924278686901 -2.18390120639371
H -0.16636787006376172 1.7943628530206215 -2.1129399514675646
O 0.14019532908454335 -2.0544720986125755 -2.208044628448624
Rh 0.2547741591145596 -0.31302795198005323 1.1261564828055226
I -2.1695890489692378 -2.9857465273547046 0.14039084515240352
I -0.6966405311022053 -0.7278576379933095 -1.3049802363748735
O -0.5979926862574025 2.484402084836746 0.8403430011840797
C 0.3274303984428642 1.8259598907597638 0.6452043464753503
O 1.5391780139971925 -0.6546054205955142 3.814047780029327
C 1.01812646141698 -0.49319579467143676 2.8142848638972264
