23
## STRUCTURE-ID: 645bd45a7ebf945a3c315fb8 ; CHARGE = -1; SPIN = 1
C -2.836518785730941 -0.9421106593793365 1.5373838049599844
O -3.830797864849217 -1.5135919921350902 1.3410002390557063
H -1.109442535366681 2.384630619867112 1.006174227218749
I -0.6927682322863193 1.3220902888966768 -0.11617526527049943
O 1.336817797110824 -1.8299997428346184 2.7102316127833843
C -0.627585173805852 3.2761934918301394 -1.3321414196763153
H -1.2827568517875998 3.155410243315213 -2.1860743574058725
H 0.39158136529929655 3.444889605946084 -1.65567357001632
H -0.9691267623719062 4.064383975953296 -0.6744195514711704
H 2.308244138079493 -1.9351652306951597 2.701585495514894
O -0.804128321243599 -3.1982476831901416 0.5850149402972917
C 2.0109362165654274 -0.11987894085629723 -2.215129098577157
H 2.810475456172008 0.5841784612747094 -2.4008473975384366
H 2.2710958043138896 -1.1145084025582876 -2.5526998213338783
H 1.7432798659247581 -0.13676403102969673 -1.1660627934940075
H -0.6281302965749932 -3.7607556748094813 -0.19627350159801488
Rh -1.0175288998233163 -0.624083716097992 1.7499608608054251
I -1.0035887961001642 1.0467324916649503 3.8068457315118196
I 0.30851341207791605 0.5118959235751755 -3.314631831324606
O -0.43013425603992556 -1.5814188084502132 -0.8916949511124177
C -0.7167161574936546 -1.8749199160648193 0.26858800523714355
O 1.8296159135497139 -0.3090127557748952 1.1650574057066636
C 0.9386629643808457 -0.84994754844734 1.8299812357276242
