20
## STRUCTURE-ID: 645bbedd8daf1047ef0203ba ; CHARGE = -1; SPIN = 1
C -3.031377846171188 -1.106621022766389 -0.04251849868274344
O -3.6450950941669507 -2.0792985468610667 -0.06280950212489296
I -1.1586727999253792 2.955849201104448 -0.2075902761845504
C 2.5151814347463435 1.9279984185777865 1.011219624529223
H 3.3744675324088624 1.4490803414177567 1.480346043324376
H 2.8208054411993055 2.8703651730941666 0.562956849118407
H 1.7606979135148 2.0805847890018647 1.779881653493703
O -0.9246467947312969 -2.163757023268196 1.09031599030559
C 0.7765305238236934 -1.6112698811639137 -0.9897188186601458
H 1.394680423266457 -2.4686372699607393 -0.758911940915742
H 1.2504825142984137 -0.9522650113404865 -1.7076942904552723
H -0.20528050255751076 -1.9299185777013323 -1.314737667874013
H -1.0718513693938627 -2.36942832468854 2.0136384165896914
Rh -2.179134128905894 0.5236020505184932 -0.06537562212934057
I -3.0536489640180893 0.8188009437937569 2.404606103833106
I 0.5285231813368322 -0.5068674491403652 0.8096399669615426
O -1.5662526829756438 0.23660283344047228 -2.96934917259135
C -1.803617145584889 0.3605377677062032 -1.8463495824879455
O 2.2207628737240346 0.964648586227425 -1.1818083904431278
C 1.9974454901119518 0.9999930020086427 -0.005740885606507449
