17
## STRUCTURE-ID: 645bbc5bd806e834db0203c3 ; CHARGE = -1; SPIN = 1
C -3.2919477525519265 0.30145681619836556 -0.4056798992115562
O -4.4305204396864015 0.04199140473871375 -0.2713532326833758
Rh -1.6320831882508002 -0.7351313122638131 -0.6798480065633169
I -0.36933316655049914 0.9753544103199346 -2.246000150324658
I 0.022968859894219422 -0.04237450352948467 1.4318392529543857
O -2.6166471540901783 -3.28699207794838 0.4950474472532975
C -2.292429807130056 -2.238625712317461 0.08840559447240143
O -2.0070107410321603 -2.5693079793966285 -2.9345606885551754
C -1.2378567332026422 -2.1243820960895548 -2.0826455301491085
H 3.5034562679479055 3.579796329183463 0.22574145347907296
I 2.3380876133744217 2.4395696619247422 0.3839437103288061
O 0.03526958924986946 -2.6189600594617812 -2.0642294992013266
C 2.897363156775043 2.3974879163630747 2.4868174507723593
H 2.2496539375729685 1.6492104840307291 2.934283712545475
H 2.705016189841157 3.387071861257556 2.889639511244255
H 3.941950042044346 2.1059079597974564 2.5364278337390944
H 0.18406332579473705 -3.2620731028069043 -2.7878289601006396
