13
## STRUCTURE-ID: 645bb8984f9da3479c600694 ; CHARGE = -1; SPIN = 1
I -1.9012760367432064 -2.2716690201857186 -1.1312812685572935
C -1.6451966708596806 0.8500716189085009 0.11460454937353444
H -2.403759621338916 0.4387283811777048 0.7858314706509218
H -2.094938152491305 1.0566463327493802 -0.8571651296563966
H -1.2615753254456898 1.7835536314562965 0.5316654583130537
O 1.3513647159931115 -2.3151638751371943 0.3204151503364775
Rh -0.14344121184222036 -0.6031862178404421 -0.11221719771623426
I 3.3936599318646907 -0.1260293930279891 -1.1102501223327206
I 0.3204389944242812 -2.2099611536399824 1.936749019067766
O 1.396521548723952 1.3939498759302233 1.5343216850779589
C 1.0589245430387089 0.8274287450533566 0.5461498438247712
O 0.5451435401421051 0.5287959469640107 -1.7397517508282099
C 1.3841337445341644 0.6468351275918308 -0.8190717075536285
