23
## STRUCTURE-ID: 645bce39c258297ca936ef53 ; CHARGE = -1; SPIN = 1
C -3.3996418527759373 0.22216749872252137 0.3703189130905043
O -4.191925637462817 0.4730757768810423 1.1926782231890465
H 0.8925808564747881 -2.435597938279622 -0.13508907736247402
I 1.1141611246128689 -0.8504965945407578 -0.09826705993946303
O 0.5703190960002025 -0.3661831840941563 2.775665149561699
C 3.1404849102174657 -1.5554955446046221 -0.9538094474949592
H 3.6188538334967855 -2.1637774382558668 -0.198179992183278
H 3.716567924132942 -0.6632545812304866 -1.160135610614021
H 2.9367232039267956 -2.115139878208124 -1.8574942318352352
H 0.7655994238598802 -0.29625279046733505 3.7306925030271327
O -1.6913248284715237 2.4510432758059912 1.2447313970455134
C 0.21433494368922174 0.9781904316557809 -2.9709064147751123
H 1.043380699101113 0.3776517202610633 -3.3252206367910415
H 0.4583489932196668 1.4517926431705424 -2.0256858848705916
H -0.09405143628723389 1.7100599012642566 -3.70677756171564
H -1.2658943014499573 3.3314587854894064 1.216953735813408
Rh -1.4826565081920493 -0.34306288068710844 0.7129544651818479
I -1.9832939860658727 -2.958764478533991 0.8117215222549361
I -1.4566233901707533 -0.3522411410107745 -2.627612910059532
O 0.23608075799958156 1.900350063697153 0.29471786234701697
C -0.8609441877920349 1.5064382390061855 0.7117544484915888
O -1.5191691386160309 -0.056316615009494295 3.474669055194216
C -0.761910499447087 -0.24564527103161943 2.5223215524444385
