15
## STRUCTURE-ID: 645bd37775ba812e97099dfe ; CHARGE = 0; SPIN = 1
C -3.231651266376441 1.4410494221540988 -0.29060344579306274
O -4.164264271497714 2.0673815342814406 -0.02150836181330153
I -0.4565937512459068 1.3368993894100953 1.2706883634045372
C 3.129156961246972 -0.39889924593709947 1.085216815439958
H 4.168759543131946 -0.6234750198296803 1.362417903102438
H 2.740336365552046 -1.2118436607720577 0.4520358248420674
H 2.513968744673216 -0.34000956156772366 1.9955125483740621
H -1.1535697611889588 -2.4532043578651805 1.6548861985232421
Rh -1.7694414606293958 0.48070082736415604 -0.8327065692709942
I -2.4424048634136972 -2.2892109502340747 0.740260116995041
I 0.387622080919622 -0.6114445633503472 -1.857865563621167
O 3.047051059574916 1.749342784013521 -0.15327008020731772
C 3.0612483039322034 0.7787724864126049 0.4039749929889713
O -3.1936916856946707 -0.0468100374599006 -3.4036133120353997
C -2.6365259989841494 0.1207509533802556 -2.405425430928963
