15
## STRUCTURE-ID: 645be1a9b2abca0208108f10 ; CHARGE = 0; SPIN = 1
C -2.021647989812975 -0.7228445176655349 -0.4204458328688433
O -2.995621676858749 -1.2443899462686776 -0.14955305176143716
I -1.5437063305958758 2.2567805342947396 0.33086527740891536
C 0.099779090471399 -0.42147583065728605 1.965708218358664
H 0.6549428617455411 -1.0974600019648877 2.6186884697252237
H -0.9655693860449241 -0.4677539614833613 2.19345133535449
H 0.4149004702854302 0.6055090265072711 2.1610062352702943
H 2.2575939474039566 2.9892014033987047 0.12649677800912487
Rh -0.5558923064554637 0.23324455767007476 -1.0282689901302169
I 2.6797950314340317 1.479122305606532 -0.04563370305855946
I 0.06730536649659995 1.72542939470059 -3.1828844925282684
O 1.1014890989051467 -1.6717511426043472 0.18076504703158705
C 0.37694371274189664 -0.8178592712929016 0.5708147968621609
O 0.38880453372495455 -1.797887031334568 -3.0491693872251777
C 0.04088357655907459 -1.0478655189062507 -2.2718407004477483
