20
## STRUCTURE-ID: 645bdab2e5c15f1c00600694 ; CHARGE = -1; SPIN = 1
C -2.8017452493309585 -0.3187141215567807 0.1442172055040607
O -3.906084537845587 -0.5540259065586912 -0.035298405810436646
I -1.7067878046674763 0.16692852410299114 3.153516067413543
C 0.7986976284404941 -2.2079182625441214 1.1868280695880715
H 0.8113711122161941 -3.2896029577334844 1.3189984218766055
H 0.9902578432161385 -1.7199698494117623 2.1429077631335
H 1.5814403095364673 -1.9177484279905501 0.4859815172241409
O 0.6911366602367081 -0.09095000834930425 -1.7423534994196292
C 2.002757578438212 2.6348673332689536 -0.45060941908076263
H 2.744215646258082 3.2730529758789033 0.017663149129796333
H 1.1208835635097631 3.2009845235147205 -0.735413890877071
H 2.413953250973917 2.085850505898407 -1.2894132267132667
H 0.866663351315226 -0.2588491977415337 -2.691691483703174
Rh -1.0618124993061921 0.14322486608391205 0.467365576245806
I -1.9805608204881753 2.7268063343809774 -0.15943259492452827
I 1.3870260945549262 1.1849934352080922 1.0432248935949608
O -1.4260137673406923 -0.4243632460669815 -2.327363508660746
C -0.6218365698368729 -0.16417055932139776 -1.4501189881776295
O -1.3498299839421173 -2.661144380563722 0.2892618187824519
C -0.5537318059381882 -1.8092515804986873 0.6317305348743202
