23
## STRUCTURE-ID: 645bd0241e8624356639f29d ; CHARGE = -1; SPIN = 1
C -3.330836116229113 -0.16658880619701164 0.8077628247825184
O -3.954799873434955 -0.015259713296490719 -0.1740927133183712
H 2.5542203331062456 -0.4021769271523572 2.8990535477306993
I 2.2374437850708153 -0.13470992651000854 1.3437222020266792
O 0.10392703634804372 -1.313907937917828 -1.5056140857755878
C 4.454682746934145 -0.5031044614917272 1.1424155259129356
H 4.709766972122124 -0.40076266968066876 0.09207788157425055
H 4.647028757590396 -1.5128037845086264 1.4979766822473175
H 4.952227073402274 0.2556014578680409 1.7424590482971856
H 0.19867675259618664 -1.5826406005858094 -2.440849845138941
O -0.24899363134222244 3.648124756877808 -0.7368754651486279
C -1.7394146344707215 1.6950921134204706 -1.6698935288823298
H -2.2922719387477963 2.625941874212169 -1.684574452194075
H -2.4091951883751848 0.8554869307465044 -1.8265942363802363
H -0.9719948419607864 1.719355351739543 -2.4350744085161606
H 0.28720426611426564 4.179131367645203 -0.14564226907142916
Rh -1.3636697791676755 -0.9494781126640905 0.8536045899474113
I -0.5495321310848027 0.12089559860215345 3.139289724558212
I -0.8536264552280094 1.5182628348548135 0.19488228136912153
O -2.0672685572165235 -1.590820341195523 -1.9196031433369907
C -1.1997501935209804 -1.3472065410819927 -1.0820876827599453
O -1.6608244066984905 -3.919261494442232 0.8851527028556413
C -1.5029999758071806 -2.7791709692423323 1.022504819220664
