20
## STRUCTURE-ID: 645bde91ff884233ce099dea ; CHARGE = -1; SPIN = 1
C -1.4090294172587292 -2.0632269111825474 1.6677239944174984
O -2.0728668701941393 -2.831395537809384 2.226245964446129
I -1.4582476770471673 -1.129765831377642 -1.7878516268635765
C 1.488460000911738 -1.6233094809900632 3.265600277376452
H 0.6211008579882159 -1.773809043598752 3.9098999695428125
H 1.7338323572927241 -0.5613289926642441 3.277577401877326
H 2.327763334801656 -2.2070920420048847 3.646084518542856
O -0.39654869704666557 3.7610518604779886 -1.9480694000969476
C -0.9497341844297708 1.715760752087799 -3.8828494754784235
H -1.9434022263573396 1.3753300163989488 -4.149495197114846
H -0.19776879402925973 1.0179242942446651 -4.230587281020905
H -0.7510936092829915 2.7233341496681804 -4.2268851321595005
H -1.025146773246235 4.314392750653244 -1.473627836305426
Rh -0.21583412622349793 -0.9376877365066956 0.812367221865429
I -1.2461719759692493 1.5029670920215605 1.7259823955296496
I -0.8389912734330158 1.8173800079486082 -1.74430779475476
O 2.241435884679919 0.26682979217694164 -0.42875522576731273
C 1.2919239101109725 -0.1840930648773192 0.06788357611389281
O 1.6690608060755623 -3.098471377859572 1.4211138827118688
C 1.131258472657278 -2.084790696806835 1.8519497671377954
