15
## STRUCTURE-ID: 645be121639171407b0abcfd ; CHARGE = -1; SPIN = 1
C -1.1832669722229847 -1.2427305017904873 1.2483193905756738
O -2.080741673776979 -1.9736590403922902 1.295205952168079
I -2.4534472613720992 4.081511961286956 2.135761373158645
O -0.2021128691519473 -2.55635400326303 -1.376617402154395
C 1.7739040901355523 1.150502379294283 0.6164568513132671
H 2.760638820800053 0.7867801343535378 0.3163590095866084
H 1.7396515622012072 2.2322629320533736 0.4604880241037315
H 0.3108906478294152 -3.2365282656805197 -1.8532313262044435
Rh 0.17291073708905377 -0.04650541219349565 0.8616068413866967
I -1.8494013550052764 2.122020817259567 0.2655830427089112
I 1.6647285107057301 0.8732629260219414 2.821410344634245
O -1.3531933894232104 0.4945545077945014 -1.446167491297357
C -0.46573200664099285 -0.24524301270102408 -0.9626935628994545
O 1.0039584654072335 -1.1212582535441173 -2.623112257102807
C 0.16121269342523512 -1.3186171684991506 -1.7593687899774169
