20
## STRUCTURE-ID: 645bd9d6bc3a7560b432ebad ; CHARGE = -1; SPIN = 5
C 0.23664617874075092 2.3450941444058886 0.8921001351396676
O 0.4063904077209328 3.5541648129493932 1.1207409449461543
I -1.537284437404718 -0.3877816289527009 -1.9056535746349477
C -0.6564126676449912 -1.1403857747260975 -3.7786817145627856
H -1.3562442579411342 -1.8529863316520043 -4.1981027296646305
H 0.2937600452592084 -1.6015924688187666 -3.5309030988853145
H -0.5095247263877243 -0.2865665737023948 -4.430899418064863
O -1.0441191049418004 0.727254313453604 3.966190549262903
C 0.9367349213401293 -2.5735978967704627 0.24124699287171575
H 0.4393684074501053 -3.0625580923093154 -0.5886183415265678
H 0.22843324371476928 -2.0655630896422297 0.8867785237968542
H 1.5632249916671042 -3.2594446633585528 0.7976485129504068
H -1.2723517335133994 1.041899650692942 4.8595058728453004
Rh 0.506929446364367 1.0589084264213746 -0.8965571097225528
I 1.3677973663477572 2.368767460920643 -3.006816834131658
I 2.230409817951322 -1.0329663044150983 -0.5741683564157326
O -0.5645528084701764 2.899009591571165 3.6530682872998006
C -0.6230787540687764 1.7579066690187972 3.199638751402678
O -0.38044276845750363 0.14797773151009647 1.4488872646517064
C -0.2656835677261844 1.3624600234039201 1.844595342441584
