17
## STRUCTURE-ID: 645bc2612a53536f0232ebad ; CHARGE = -1; SPIN = 1
C -1.8687367873126655 1.8011291315390892 -1.3311968917827666
O -2.283087213581915 2.5868758036095647 -2.077227842943354
Rh -0.4943447147250246 0.7967726552086524 -0.5453547964116695
I -0.9005620265571511 -1.3906831567420985 -1.995627456400057
I 0.024056526124255986 2.627807894340024 1.3240939876673037
O 2.022490688728467 -0.38465678837115863 0.6145874587037846
C 1.3292086588454952 0.19717480470377813 -0.21502020406465622
O 1.7302877568454158 1.8931613916182906 -1.9170902365741964
C 1.9138934825616516 0.7512911873958126 -1.4979115449610352
H -3.0767400568087995 -1.2402670996275822 2.5400729152891466
I -2.166287614058297 -0.4310213489171405 1.3687978830305063
O 2.5609144908711525 -0.16582588932668244 -2.220812128152336
C -0.5884871628394835 -1.6662503143929692 2.1733846990558874
H -0.812710214763398 -2.6925278591396897 1.903015430196746
H -0.5704874865002569 -1.506083520551308 3.245743879651799
H 0.34748373133255006 -1.3477038540140327 1.726557930461329
H 2.8331079418381244 0.1708069626674758 -3.0960130827665964
