20
## STRUCTURE-ID: 645be06365c1c30b5e3adfc4 ; CHARGE = -1; SPIN = 1
C -2.777506495699971 -1.2235873368180867 0.1707501010285027
O -3.7101204765115683 -1.836911465462411 0.42252851824156623
I -2.3290597215233917 2.2531100517971456 -0.3697983578218283
C -1.4161580074635578 0.028254986242524264 2.641846972932879
H -2.4211692939743656 0.42852736703143496 2.51487899851594
H -0.912854047837216 0.5391438497143571 3.462533839202396
H -1.4978713499962064 -1.035548388451272 2.8678165271689577
O 2.5741308127040097 1.652926733460891 -2.7958806270799537
C 2.701196658221653 0.2036265616052722 -0.5407303849130144
H 3.586043913759884 0.2632616115267593 -1.158105816500946
H 2.6323060828866587 -0.7437899722592791 -0.01998701241461581
H 2.6593637421114917 1.0330942556753449 0.1515101882186375
H 2.2655409644718096 2.0774771582865825 -3.5973983443345228
Rh -1.3257848963070924 -0.25169744576090614 -0.4389866440912456
I -1.9305565404051623 -0.7000081152960236 -3.1201613364176537
I 1.0617841892325532 0.3455194875933953 -1.8714416683331077
O 0.5175167546795375 0.6332370032842725 1.3789053650851684
C -0.6086193886712827 0.19314142099177076 1.3861620718029224
O 0.7806580622890857 -2.4103846658401533 -0.4145965691181168
C 0.15115903803311045 -1.4493930973216047 -0.6698458211719627
