18
## STRUCTURE-ID: 645bcf0a8ca484769c39f294 ; CHARGE = -1; SPIN = 1
C -1.1995345837846163 -0.11950602279759134 1.3912767445115495
O -2.2228716650172196 0.27472606863323484 1.9420530013416015
H 1.8998223733953017 -1.2479427741578801 1.245556205469318
I 1.9650314944740548 -0.11400974594945275 0.1226790004284293
O -0.4546706015061379 -1.0817496797436579 1.9743107438991947
C 2.224961499355115 -1.7231924951129092 -1.3220798982970619
H 3.1419546792595847 -2.249813242741362 -1.085173259904534
H 2.2881241182458876 -1.2788158043274624 -2.307888061968577
H 1.3623167827723308 -2.377788805150272 -1.2758891061821929
H -0.849521458611155 -1.3997946118850064 2.8107928535604714
O -1.3039082949507155 2.644500004622245 0.6414915962176447
Rh -0.6382815117103178 0.6884585454828954 -0.3168805870950516
I -1.6181334127515898 -1.530851348294521 -1.4314990244445507
I 2.0704583131424883 1.5260815833678922 2.6634758029792023
O -3.2876589704717465 2.000933776729685 -0.3265928067631378
C -2.1865704406005233 2.0742444241887745 0.08074675683235587
O -0.7164838337870713 2.300631927950704 -2.8496590129163817
C -0.4750344874536455 1.6138881991847085 -1.9567209476682967
