13
## STRUCTURE-ID: 645bb77e1583f304a5507c54 ; CHARGE = -1; SPIN = 1
C -1.5609602084786016 -0.026892474263251434 0.46154021138717816
H -2.0535327376264916 -0.4923569448447322 -0.3932429751898497
H -1.8254845620178148 1.029381160508616 0.5058610342169493
H -1.8500157566902276 -0.5260360319597213 1.3902584991131512
O 0.2538515501976897 -1.7115152427943923 -1.1067761978464987
H -0.10438374967582172 -2.5358034746306224 -0.7619765486393189
Rh 0.4984278181083714 -0.29481435541337897 0.26627188235004384
I 1.2168554567283643 1.8358407359580105 1.788341422984539
I 0.9402962788560484 -2.1242175119641034 2.1238503254815377
O -0.39213992810877196 1.985605594453808 -1.5510541043067625
C 0.3598260617789737 1.2163376359307783 -1.0152433784503185
O 2.8118650001845777 0.6133620935328167 -0.9311512157778868
C 1.7053947767436954 1.0311088154861825 -0.7766789553227593
