18
## STRUCTURE-ID: 645bd3389837ca64915a483a ; CHARGE = -1; SPIN = 1
C -2.040233881797273 -0.33820451912888344 -1.0004734262177657
O -3.0228254273936894 -0.9087710596241212 -1.169496882498719
H 1.939923742134907 -0.9392379795094478 1.2565543118640399
I 1.5805920784355516 -0.7958291999842092 -0.33516101760981504
O 1.5373979261426445 1.9023580357439585 0.9893588338782324
C 0.795093525753017 -2.7972816912780387 -0.1277061615594046
H 1.610971799821354 -3.417897779379168 0.2309117344168341
H 0.4369988491380999 -3.143512315601919 -1.092117174025036
H -0.00704686574401691 -2.7384315654105476 0.6022132826148139
H 1.974338854994104 2.5672900291906995 1.5584821508694373
O -2.6808152200371693 0.46566995263514194 2.8777012510005258
Rh -0.7291323758687597 0.8506625061305357 -0.3511083148097049
I 1.113197243486394 -1.2221633508886154 -3.245960083130053
I -1.132181373167712 -0.22103115361528589 2.07744279692729
O -0.18000809901684178 3.2988646565689335 1.1463117126205997
C 0.251260881334977 2.24921997077034 0.6829027339668947
O -0.7035289565096096 3.035481905361488 -2.416892025392621
C -0.7440027017059899 2.152813558019152 -1.6829637229155252
