15
## STRUCTURE-ID: 645be43d8c3aef3f0f2fb200 ; CHARGE = -1; SPIN = 1
C -2.8644892962856328 0.4188514837094021 0.041889583647107154
O -3.964242182106686 0.1665452013580127 -0.15785517125890772
I 0.2315967304252299 0.7147985835584449 -2.2570179394709133
C 2.239197785799196 -0.8161551826773352 -0.21260966879276294
H 1.5757937614014574 -1.6529906443103066 -0.4289817234829154
H 2.768925923163301 -0.9978021867509494 0.7251095996804077
H 2.9625064525948646 -0.7234127345157972 -1.0274019794123732
O -2.5954958669870813 -2.296534423175752 -1.6080682705662996
Rh -0.9717204225940894 0.4151848008634208 0.32590742967127373
I 0.15461550594550186 -0.5628454692358407 2.6114279659177098
I -1.4166576108552433 -2.1347468068944004 -0.17611712957222067
O 1.884113521546852 1.5360853938448493 0.28970610323795953
C 1.553952028060807 0.4746133818465916 -0.10599926017696376
O -0.7426743525516818 3.2762797459067494 1.1518991022543816
C -0.815421977556807 2.182128856472942 0.828111358324803
