20
## STRUCTURE-ID: 645bde8da4776f30cc0fad1a ; CHARGE = -1; SPIN = 1
C -1.111180288758046 -1.6945509992622132 -1.7746825647043472
O -1.3973581511495736 -1.7557892821225045 -2.8851278930827577
I 0.26283013705991287 -4.259271283263514 0.11825312972576035
C 1.557587876654432 0.4544057132591591 1.6374370409741479
H 0.7954690108335298 1.0642810991383398 2.1223632207941514
H 1.9699668558682224 0.963989395484593 0.7704991492300983
H 2.361952800931891 0.27781837292880057 2.35337778172743
O -1.692876807064997 3.077735375963668 0.0495708611211071
C -0.04463628535191909 1.5511534940428922 -1.3893552648971839
H -0.5877919227343237 1.7947091181500145 -2.294001597515056
H 0.6646094801591503 0.7494607743295577 -1.5649275859165825
H 0.4256631886948691 2.4389224922644996 -0.9878892417637064
H -2.4979591309163793 3.352845965156014 0.492878749082081
Rh -0.698066335395846 -1.662697233487798 0.0019028515932528666
I -3.213093269355881 -1.9984309894583387 0.8953069843087988
I -1.488103744519497 0.9051857559179439 0.048375391626040445
O 2.205356759762493 -1.4315331845978856 -0.8301849621250038
C 1.294757318329974 -1.4114262221608305 -0.04282980284162459
O 0.174745050059016 -1.5088643761757479 2.0023278647728464
C 1.0181274568929677 -0.9079439861066189 1.2767058878905206
