20
## STRUCTURE-ID: 645bc8a6abc5a62a3c5a4846 ; CHARGE = -1; SPIN = 3
C -2.506286227381648 -0.5056672714130334 -0.017999020017253724
O -3.621834525076289 -0.34101522968835823 -0.25545819222623506
I 1.2941831777681227 -1.2722630735913951 -1.4009771631393857
C -0.8488155134839567 -2.997707666009406 1.4363037471375364
H -1.1058122008635618 -3.319508562185419 0.4284908075585263
H -0.20485092209793077 -3.733183615912298 1.9198013298485888
H -1.7695814826231946 -2.8872900891671827 2.0097068282819865
O -1.7355064523222459 0.47886756671906483 -2.5154465211995944
C 2.691027087732737 2.2546686141896766 -0.01615468076904142
H 3.09730456891722 1.2516455656678032 0.02294929415379939
H 1.7904560089700996 2.2843772351873253 -0.6184091760570075
H 2.4944542492730335 2.631578467996389 0.979225241710559
H -1.74051420148122 1.0276503519803943 -3.329359535782538
Rh -0.6578906486494891 -0.17334026778653652 0.10300592413184512
I -0.6755859158304779 1.8578616374706651 1.904528972982592
I 4.135844230465032 3.5161186424420383 -0.9344035525034704
O -0.3305639882735661 2.0100473820432234 -1.7034715880415459
C -0.9423513732307831 0.9668858751370408 -1.5661905725356846
O 0.784239652838422 -1.3802186097544595 2.1278382108139064
C -0.14791552465066965 -1.6695069533258562 1.4260196456526004
