18
## STRUCTURE-ID: 645bb7d74b693366b13adfc4 ; CHARGE = -1; SPIN = 1
I -3.5620096493649305 2.236240892840599 2.6176823613929674
C -1.8962650086679316 -0.28049393032720177 -2.5936069357290066
H -1.516508329929432 -0.836893702908224 -3.46157250643579
H -2.887084586602598 -0.6723646170475616 -2.3227429928359142
H -2.0139321223899302 0.76630112079603 -2.88649765046406
O 1.0844567077103038 -2.188318612969454 2.5042500661541416
C 1.3013761545544464 0.5075006302943846 2.275804613926919
H 0.3960901644248084 0.3442638051727585 2.8483054351553347
H 1.30773836520562 1.4718866366050924 1.7777707335952306
H 2.178997278572533 0.35775039483626675 2.8915433121150707
H 1.2773538329433576 -3.1191045656407104 2.3801272306025893
Rh -0.5977935570392428 -0.6684480790155892 -1.0578700045396985
I -1.83675626364981 0.9473952819203069 0.4621970077928655
I 1.3601849190892479 -0.9538016372831779 0.7320079470861172
O 1.456421166751557 1.8776355435490715 -0.4618828480295704
C 1.416141099532225 0.7017566507083413 -0.8006141812347507
O 1.5144078017166616 -0.4873000361909568 -2.9479451472464366
C 1.0171820271431118 -0.004005775339982187 -1.9569564413060079
