20
## STRUCTURE-ID: 645bc1d7f194b4183436ef50 ; CHARGE = -1; SPIN = 1
C -2.709428861830046 0.3706457832411008 -0.46417546094863954
O -3.822568278064748 0.34724748765222657 -0.17462684822970223
I -1.270368819995804 2.4758313843156325 -2.5762918031394317
C 1.8462511629771199 0.3255741905208431 -2.6845895993763373
H 2.536477610103569 1.1017368192653283 -2.3480831626145062
H 2.397369494649481 -0.41259149875961193 -3.272149615713143
H 1.075526732100362 0.7643044012314767 -3.313332574649191
O -0.34413098602754605 -2.5066314815788124 3.1300408757084988
C -0.70733038286929 0.16990349201179347 2.835041357618113
H -1.0004029227954796 -0.3670345850623718 3.7249576533745468
H -1.432558589424085 0.9308720513427924 2.563979269286509
H 0.27657416708808874 0.6066460244372008 2.9638371865087683
H -0.17615521267139206 -3.418806232274189 2.8963311408069803
Rh -0.8583681988384154 0.5844531191117219 -0.7107239151647955
I -0.5417486921489795 -1.7664475855853456 -2.298245740100251
I -0.6085329113938248 -1.2385393067110797 1.2495595463265905
O 1.483411932504871 1.9345526280945697 0.5871341822557816
C 0.6454560832583071 1.3983282176096137 -0.0066646622499721055
O 1.8897581061176507 -0.9242291912173027 -0.6048887798477459
C 1.3207685672601657 -0.3758157176455652 -1.4971090498520505
