15
## STRUCTURE-ID: 645be938d309c655b679962b ; CHARGE = -1; SPIN = 1
C -2.0039069296668512 -0.6782929787740754 0.5756803543541884
O -2.9884755686515745 -0.5468438668746309 1.1472436398236798
I -1.692356314408597 -0.8855651827782222 -2.602562451564743
C 0.026114188910782304 1.9720359103263434 -1.4682378040270911
H -1.0088774472531064 2.165402176303375 -1.7532420107267948
H 0.523547014079264 1.534971782473354 -2.3333794753970367
H 0.5141190589861508 2.902607319818655 -1.1787306074105437
O 2.8073437369981056 -1.0502962205610291 3.2064327484831026
Rh -0.40572146993529273 -0.9185733899870144 -0.28418075888505046
I 2.024057116279415 -1.2918898732719506 -1.2430853313677828
I -0.773788109778706 -3.549099957320482 0.5517637289210392
O 0.7620225898479034 -0.9928874196104375 2.1845998767391253
C 1.7896153495786764 -1.021733260978184 2.6931249782638074
O 0.3790751488571481 1.320228823313607 0.8134497092308796
C 0.04723163615668194 1.0399361379206964 -0.30887659643678483
