15
## STRUCTURE-ID: 645bd5b31f7cd02e353adfde ; CHARGE = 0; SPIN = 1
C -3.679335263983953 0.6121401833538295 0.6050136034457465
O -4.831950968478562 0.5909471791972117 0.5382870022370706
I -1.7291070065514917 -1.882589773109864 0.31802732824051755
C 3.2991401382372123 -1.3528821715774966 -0.06253947030333959
H 3.577646511690726 -0.3797651688202657 0.36936345354446426
H 4.14460515560265 -1.7611918754571145 -0.6341834970825141
H 3.066734628183983 -2.0226224256213796 0.7777813748225859
H -0.919621052250552 -0.22057409093689054 -2.7692251757857234
Rh -1.8619851294453076 0.7018775306556075 0.8239839161664158
I -0.9722492233122776 1.2714685415404372 -2.2373771765995625
I 0.6568010744958624 0.8277354110644715 1.5400828279270724
O 1.333852022284655 -1.1159645815603674 -1.5596581185610747
C 2.2051273705740866 -1.2101578113599103 -0.8628038015421021
O -2.23258795911758 3.5072582127973706 1.7716598023646768
C -2.057070297929436 2.434320839834345 1.3815879311258112
