18
## STRUCTURE-ID: 645bb7f9edf5192f5136ef50 ; CHARGE = -1; SPIN = 1
I -1.5642854944785973 -0.6137652188236742 3.008834174084897
C -2.241185599746259 1.0220721063087328 0.04516130343353413
H -2.21629907235927 1.225657882446619 -1.029812163055244
H -2.474813932105191 1.9567233890946227 0.5698962061207725
H -3.0572139931977462 0.31782051942449197 0.2326592944605884
O 0.4964433373368097 1.0083925189337355 -0.9280213065477146
C 0.8060072240734261 -1.9182954881661929 -2.175108240022075
H 1.6583658060006625 -2.5061101797958663 -1.8539178945592576
H 1.0590213096991388 -0.8664309373304505 -2.2680767027822637
H 0.36203700871587985 -2.310869215603038 -3.0821654903445768
H 0.23779365549040524 1.9102470318483873 -1.1342381795374896
Rh -0.4009668897586708 0.27561363592873256 0.7469631311013374
I 3.1798265262611616 1.4725225643733852 0.7147398023871911
I -0.693206430921225 -2.0198386700457456 -0.6096371576867026
O 0.4246668303982271 1.8387391711021768 1.8322601393874212
C 1.3597977133948573 0.9863461621730559 1.8379230914393052
O 1.8022584967643827 -1.3908943847358757 2.2311399325967822
C 1.2617535044319286 -0.38793088713309337 1.8614000595233744
