21
## STRUCTURE-ID: 645bedeccfc0fa3369799623 ; CHARGE = 0; SPIN = 1
C -2.7245755365018867 -0.562630161422977 0.5349328904986869
O -3.840936117360122 -0.3418979578205248 0.35345358439317953
H 0.9406310709702823 -0.2678250525855854 3.9571582872699995
I 0.4015409882471291 0.6134984371107828 2.659700459624071
C 2.5664268338463865 -1.741139812861702 1.0343142049933485
H 3.247321863873764 -1.336735604581069 1.7992040864069545
H 1.7794571722759558 -2.32648104789284 1.5301080686452082
H 3.11907555842674 -2.444912447170894 0.397819704707992
O -0.7065388158539458 3.728704898214535 -1.1549675069594003
C -1.7508196563295304 1.4857885466357241 -2.099812809000142
H -1.9674681691453078 0.43840320468137556 -2.2879039918246504
H -1.1211232038668357 1.904168548880477 -2.8732245423145195
H -2.6622681055010857 2.0664545949738513 -2.029715086540674
H -0.24160280735881667 4.363026711110875 -0.6120655260671425
Rh -0.9052049824591251 -0.9025425360008493 0.4417401720902618
I -0.8858267406344013 -3.318453758058387 1.4735035127668636
I -0.7334704783504963 1.6721610683620138 -0.2796296198043594
O 2.3025321948667434 0.3638045843004393 -0.2317438959897848
C 2.120400044049339 -0.665946789622139 0.2522328341169342
O 0.6631756336223165 -1.4665313814977614 -1.9890631968845904
C 0.3992732531829376 -1.2609140447553848 -0.8760416301282484
