18
## STRUCTURE-ID: 645bb6b6c99a007a8b3adfcd ; CHARGE = -1; SPIN = 1
I -0.47392898671408507 1.9586923105472251 1.2115492024230088
C -1.7041173107931677 0.1990025594500037 -1.612031809706611
H -2.39484101707235 0.8414704258475604 -1.061026360779196
H -2.0825034360561836 -0.8286913536924663 -1.5847584424685377
H -1.6995404485566632 0.5198190648901662 -2.654000494649182
O 1.7501467474554642 -0.5719174273896271 0.6254176076618695
C -0.17357489007064184 -1.4484618951812829 2.99539104423156
H -0.09543625182935693 -2.3196827223321614 3.6326407132294873
H -0.8028804150703821 -0.6809494632048048 3.4303316029804245
H 0.8013548122411357 -1.05201274834475 2.73257397777223
H 2.526031888068784 -0.9744590905333848 0.2282359704889396
Rh 0.19393832718541612 0.11713546306258812 -0.6613668929104902
I 1.0468922690060312 -1.4922518522421053 -2.5674229284941137
I -1.081831750274739 -2.0671176748854396 1.1456425702803021
O 2.5528635145956593 1.9747793266255071 -0.5973919606415761
C 1.454404693347701 1.6361326732942663 -0.9113131978827637
O -0.14699959068887947 2.4300029381152495 -2.611821428541895
C 0.3300218452262802 1.7585094659734253 -1.7406491729934754
