15
## STRUCTURE-ID: 645be8fc0d99f35ce9099dfb ; CHARGE = -1; SPIN = 1
C -1.9979157040958515 -0.656490105405388 0.5664302208051367
O -2.9869227144196246 -0.5093139383551711 1.1266538986366668
I -1.6275575816639183 -0.9791068882521988 -2.60190884326653
C 0.006482900810904183 1.9521432421571197 -1.5290915011053414
H -1.0286706847769858 2.1181640430669115 -1.8305689475287947
H 0.5204689041782703 1.4949095026165249 -2.373922956744735
H 0.4758376731759935 2.899748619947739 -1.2654731510378663
O 2.761840147948116 -1.1686141544363533 3.2884136772975703
Rh -0.38428968449475875 -0.9054690659944256 -0.26050760971424686
I 2.0714584474741597 -1.2507344554339994 -1.16441413060027
I -0.7127878253844514 -3.5176844484461243 0.6512292782270483
O 0.7650978653932795 -0.8891318062374942 2.2085382150260395
C 1.7685429560403947 -1.0299356812885823 2.7459137379039853
O 0.3384031806088385 1.3817346895285347 0.7779464293210403
C 0.03001211920562917 1.0597804465329026 -0.3392383172196996
