15
## STRUCTURE-ID: 645be9ca1d7f8355be5d492b ; CHARGE = -1; SPIN = 1
C -2.2908383556104184 -2.213871350892399 -1.063478752769394
O -3.3397798550492777 -2.561584460286644 -1.3709980581320464
I 0.0831003369518273 -1.0915450781898437 -3.0749945290007283
C -0.03949198033786016 3.6570534946151088 0.8963727280725023
H -0.46962417528790873 3.9329677079977015 1.8392396827687776
H -1.0911238893250192 -0.26322545943081793 -0.4626996902717191
H -0.008956454930779808 4.399942184463986 0.12360556780152274
O 1.5324458601681479 -1.1610586937332652 0.024679894268404227
Rh -0.631164035506294 -1.7084903326171754 -0.5837091808047263
I 0.30621517323701836 -4.243695720736413 -0.770160217627483
I -1.1487449161263434 -1.9189980624053264 2.021447405190693
O 3.4001466792474297 -0.09158787671176637 0.7971243719326899
C 2.4581967742643194 -0.604330547782568 0.4155192939679531
O 0.8285100399729775 1.3935539304568143 0.5123962775981841
C 0.41110879833217795 2.4748702652525996 0.6956552070053424
