13
## STRUCTURE-ID: 645bb95a2c03ce4354507c54 ; CHARGE = -1; SPIN = 1
I -0.9050634547601027 2.205469209126112 -1.742386828989654
C -1.765571957337292 -0.48476537671584863 1.1969014625034071
H -2.068159261652762 0.46286403127752335 1.6561814173780451
H -1.5593260491167926 -1.1937923143922162 2.000844050141334
H -2.6230347356473804 -0.8635999378018253 0.6358761146022865
O 2.568717361247713 2.14641115093364 -0.7692494902963121
Rh -0.12146869303620873 -0.10563175316225769 -0.07112181824223572
I 4.051995360501043 -0.7412542346033186 -1.9836298534541303
I 1.7190670225137432 0.825139668751393 -1.6687335546527788
O -0.8824692656999383 -2.5572608597539443 -1.6230493033226319
C -0.6764250472901289 -1.5617289572720783 -1.0850203141777608
O 1.504335191071061 1.1271940201849187 2.1211390063900537
C 0.7574035292070346 0.7409553534279172 1.3322491121203672
