15
## STRUCTURE-ID: 645be995f168951c3f74b453 ; CHARGE = -1; SPIN = 1
C -1.58040744371727 -0.6313152931214218 1.018338606244025
O -2.384533932017983 -0.5646084381522521 1.8315249424519462
I -1.5699922884716853 -1.2360217739618191 -2.3190814919301523
C 0.11491030491231277 1.8915757129590267 -1.4679592491004771
H -0.8900607195154742 2.027867727672721 -1.874778517886065
H 0.6908860148858395 1.3055680221657453 -2.182243917832397
H 0.5724439489061375 2.8703457811118227 -1.3272854173132695
O 0.9065311021883871 -2.1687426997108727 2.073155636698271
Rh -0.12722366017456702 -0.7867152925598561 -0.10672094419822048
I 2.2821875148537685 -1.1656856163951885 -1.0817381396759778
I 0.04407381307564808 -3.6869336237068677 0.701751461655258
O 1.2851430343507424 -0.004483832024969899 2.282238843936433
C 0.8377718585094327 -0.9505446834784489 1.6653863052545865
O -0.15082296391863292 1.8522439408628444 0.9069642443174478
C -0.03090658386665121 1.2474500683395295 -0.11955236262140669
