13
## STRUCTURE-ID: 645bb9bd031f373a87554eed ; CHARGE = -1; SPIN = 1
I -1.051087546414836 -1.9202640851015806 1.4554064812275804
C -1.8350434756681815 -0.10807714716583448 0.5813896036420305
H -0.4538138364524515 1.1005385813992161 -1.3271106083608122
H -1.9810288329664343 0.6266322810807091 1.3688468568240881
H -2.756337033593323 -0.34447262703641596 0.05098193228158183
O -0.9386706433447771 -1.4639994085769736 -2.050342987833964
Rh -0.1636351278373395 -0.13822757240268488 -0.5174337129570498
I 2.9664070137220753 1.6052915727986934 -0.92759898750608
I 0.9254407738760518 -1.7426104672298912 -2.506665210958194
O 2.3679077451117294 -0.7664692299655795 0.8212074028308614
C 1.9067443181130554 0.3211638116091681 0.5716100462582014
O 0.34398801942496404 1.846592523844119 1.6277766467443624
C 0.6691286260294673 0.983901766747046 0.8519325378074056
