13
## STRUCTURE-ID: 645bb6f2953ecf3bc1507c5a ; CHARGE = -1; SPIN = 1
I -3.070069299616841 0.9963954791003375 0.09296218461394992
O 0.28566348582035583 2.287299083613926 0.18119869769516828
C 1.20942321168829 -0.22505903901361818 -0.38219709198758683
H 1.495373608759056 -1.0793883748710464 -0.9937891312231111
H 2.0359702916422733 0.11808971821830894 0.23985990507554097
H -0.21685906787825834 3.099036551589665 0.09846832622804937
Rh -0.6940600037565096 -0.0047664494305630686 0.3195804501393782
I 1.660947548728685 0.176554502175864 -3.9913561152431547
I 0.7210511506655722 1.4296804166378558 -1.6645678396885748
O -0.43213576055286707 -0.9158457592460033 3.0820782318310123
C -0.6493440807331124 -1.1223353875709166 1.9084607502711703
O -1.3368950721254251 -2.9114693423205105 0.3107435940337386
C -1.0090660126412219 -1.8481913988833027 0.7985580382544206
