13
## STRUCTURE-ID: 645bb892fcc4bb04400fad1d ; CHARGE = -1; SPIN = 3
I -1.1125227008192318 -1.2823404885901233 -2.4719081235650653
C -1.4566536960160348 0.35593554179841974 0.588319966183956
H -2.1490605815834427 -0.4767777902025032 0.7303268215823523
H -1.9162387693942158 1.092173286080047 -0.07379483664054126
H -1.237776486391662 0.8154452674156525 1.5552365139319202
O -0.30725440721006875 -2.2957048608537973 0.5485296383899004
Rh 0.32714351038762124 -0.4518496203740378 -0.2680707112527756
I 2.752303766741973 -1.5478845676106454 -0.7836163628780239
I 0.4063393186651272 -2.195107445032236 2.3246403446317268
O 1.462747675967031 1.9785910688925556 1.0812197631840708
C 1.106232081837381 1.228781419510272 0.2194998375489503
O 1.1578763286949343 1.661603380694544 -2.2464071132123524
C 0.966863959120568 1.1171348082718229 -1.203975737904111
