15
## STRUCTURE-ID: 645bd78ccf4eb64084507c66 ; CHARGE = 0; SPIN = 1
C -2.620419363321801 0.35532361586933414 -0.21295843882166735
O -3.7413786765698687 0.20170464249732015 -0.3350535182058822
I -1.0064600004778264 -2.0233200550846333 -1.0129362141065381
C 2.2490456877795832 -0.7684095051657767 -0.9375053605202192
H 2.5481736895318443 -1.69323312895061 -0.4344669658255687
H 3.12149961087874 -0.10990899557605897 -0.9963980830515511
H 1.903535145452225 -0.9896185341793348 -1.9447512975564416
H -1.3888755594836593 -2.281192750823695 2.90093299302918
Rh -0.7456165161403276 0.5015468499780478 -0.22499361986522493
I -1.383955745619126 -0.7320646234447785 3.1858211153151377
I 0.5574912094933595 1.9533212468695893 -2.1999644686187128
O 1.2313271819615115 0.191794132687436 1.0455435808394482
C 1.2563976971463153 -0.10294898016627613 -0.10495327433678131
O -1.0420854580746688 3.2766656027410366 0.8392345798796386
C -0.9386789025574335 2.2203404827495845 0.4324489718454982
