20
## STRUCTURE-ID: 645bbf8ace3c1d2268099df3 ; CHARGE = -1; SPIN = 1
C -3.1305660635275485 0.9617050896481449 -0.1460436047223509
O -4.275117407410299 1.0079492962726089 -0.0862002378982009
I -0.2552053437029971 3.7508882893270314 -0.5153785912495036
C 1.8638837891260776 1.2509574284405756 1.3970855712905301
H 2.9259930128843177 1.0171855644543575 1.3210959774237878
H 1.7690057930542173 2.336271456016632 1.4138078683350699
H 1.4524774191200256 0.8403574551221772 2.316792039202557
O -0.20274108697341758 -3.450660249502977 0.884984189399773
C 0.4842996646039429 -1.9944549553918927 -1.2386239636593404
H 1.0783318775130402 -2.8899870659759572 -1.123372754962741
H 1.0218150389646208 -1.2083126701802507 -1.7560459157400483
H -0.457602047825295 -2.2230727011728897 -1.7209383663406004
H -0.4374970269752231 -3.726355941775342 1.7728725415804238
Rh -1.254417504773176 1.1576201895764513 -0.09625240464760194
I -1.5873353526856477 1.4010493303838545 2.5178310154084342
I 0.06191681905666644 -1.277970011424059 0.7105196906647548
O -0.8662277427281171 0.7877181981999986 -3.0229990104941216
C -1.0440466801149486 0.9138928814017928 -1.8954623443967205
O 1.6720012574818461 0.6764406638303543 -0.92718327942066
C 1.1810315849119268 0.6687777527494017 0.19351158022656434
