15
## STRUCTURE-ID: 645be8fb55b61b09340fad23 ; CHARGE = -1; SPIN = 1
C -1.5150134746285975 -0.36851798606246966 0.9867543692897847
O -2.3957486059509554 -0.18558212715914232 1.698063158617277
I -1.2891301553127124 -1.7569249311236934 -2.4099449141745066
C -0.127397950854085 1.8718922070509554 -1.4923388546013199
H -1.1652510222272816 1.641554738046864 -1.74160370509848
H 0.502032315860578 1.40779138615118 -2.2542305759868086
H 0.025533264902263684 2.950365523678279 -1.4958940054497056
O 0.7618251230967167 -2.4537232884126365 2.0321985612786357
Rh 0.045807666760801974 -0.6680486006975512 0.0372307523620118
I 2.5010911866250014 -0.8726498519809843 -0.8733076338524302
I -0.1200306075698907 -3.3677001232220825 0.31697112420303925
O 1.233637848255395 -0.4025569998376526 2.6783380657131093
C 0.8018952270065537 -1.1426651883803707 1.830497243548983
O 0.5357892732983509 2.0056746771338467 0.8141876688950707
C 0.2049599107378503 1.34109056481546 -0.12692125474465638
