20
## STRUCTURE-ID: 645be79a7b4f06552d732d43 ; CHARGE = -1; SPIN = 1
C -2.270056058994998 -0.06775117870325756 -0.8164048725756508
O -3.0636786071986566 -0.024944098499295877 -1.6689850702686706
I 1.5364627658539673 -4.160591271928005 -1.5857863235332708
C 1.2114393519483175 0.9165640544685772 0.7659427814159612
H 1.0378961949860113 1.7115561574962432 1.5168327663460388
H 1.8528646168253022 1.3884763621298704 -0.003736339711575987
H 1.854044111836706 0.17020003176264667 1.2605051408453039
O 0.07462089911392664 3.5880513735922728 -0.9351168547133145
C 0.4134798635323762 -3.1007654112245 2.022303749983841
H 0.5804998522682883 -3.50293283098289 3.014973159546008
H 1.3341843423929238 -2.7350499834783903 1.5815984917625554
H -0.06239256338267544 -3.82945531228624 1.3744632072852838
H -0.3219929466760918 4.439192480558136 -0.6703326571632843
Rh -0.6561104079843443 0.1909158322489902 0.0827027218825119
I 0.6139810546599299 -1.5178740843940683 -1.6980290652727281
I -0.9468857774094739 -1.3895509019981473 2.243230357839077
O -2.0754991952963917 2.9872923391472765 -1.24363089209601
C -0.8810826065849434 2.6873474853501063 -1.2507648840643897
O 0.13382587472231466 0.92435774580272 -2.5290314107440524
C -0.3656007646125 1.3249612109379307 -1.4607340067636494
