20
## STRUCTURE-ID: 645bdb0599ac4369c87e8a90 ; CHARGE = -1; SPIN = 1
C -2.037156357994174 -1.03820075729888 0.2102799793257695
O -3.0873243996215165 -0.6278132706493843 -0.056449492248175435
I -0.7011525380896142 0.5734130845075748 2.7870943037874607
C 2.696121021761662 -1.2182282701509468 1.6946594874070424
H 2.955028377636462 -2.1145515827589336 1.1315774677453196
H 2.252970532970802 -1.525272595406502 2.640754779523029
H 3.590589509135637 -0.6202929282452725 1.8704802912669536
O -0.7192294566292404 3.604994145865009 -1.0945675268656956
C -1.7627076652795333 1.4413024633265423 -2.3943235435275643
H -2.203434467266135 2.4288965035396637 -2.429708584926202
H -2.4785918275188377 0.7087353382679219 -2.039208260256603
H -1.3540732632003833 1.1475231048369914 -3.355222375648888
H -0.19826442313740678 4.1277483771197305 -0.4813044160247833
Rh -0.17904517476788295 -0.9846880494712305 0.5663574799343151
I 0.505235110975915 -1.1657485917606467 -2.127714477479429
I -0.15709572764085067 1.5977611854102172 -0.9997893121196084
O 2.060892858669978 0.6542552378929603 0.39385383919818207
C 1.7013156777163545 -0.4170186218243992 0.8822704062518069
O -0.8237493671464596 -3.6945224294849104 1.5487988788184366
C -0.06032842057471123 -2.8782923437155494 1.2521610758386281
