21
## STRUCTURE-ID: 645beaaa2b043a723839f294 ; CHARGE = 0; SPIN = 1
C -2.203512027852795 0.09351483910855597 -0.19018780097021007
O -3.3162284922183733 0.29165463500716277 -0.05282411684148733
H -1.942815162942814 1.4043334665365346 3.4028533381918535
I -1.1606646356102783 0.051474171815280044 3.139637309123095
C 2.239719233195418 1.9333125113586278 1.3706596181432098
H 3.22090198928107 1.7462962878957686 1.8064506351741476
H 1.6399316318253097 2.538547627516512 2.048129044819288
H 2.349025557173112 2.4843122088549183 0.4376223584140145
O -0.43550305134521755 0.2179595112737752 -2.4454117826647366
C -1.138648737650597 -3.3000735310197666 -1.2979297405564798
H -1.5420002239990103 -2.521344395042775 -1.9357062928190543
H -1.906440490708384 -3.7284645831388916 -0.6643980527660255
H -0.6462992455884153 -4.066557593781783 -1.8847948769629062
H -0.10148456263898906 0.3179501262435164 -3.361797985454376
Rh -0.28264330342480803 0.33304662571814914 0.3043545400473916
I 0.36309508959843456 -2.378032591477161 -0.02145158352635584
I -0.8449769064767899 2.936097476104761 0.15643932842364375
O 2.1167429886391296 -0.4293039576910179 1.359403661565186
C 1.5664773100461873 0.6210615760238429 1.087971200521016
O 1.5787198835168157 0.9007029842704664 -1.7326671911690117
C 0.4466031571810132 0.553512604423496 -1.5263516106922281
