21
## STRUCTURE-ID: 645bec2ea5782d47b9099ded ; CHARGE = 0; SPIN = 1
C -0.4771042020573784 0.11035900826465123 1.362833049666082
O -0.33903201200555233 -0.09058731902166935 2.5315533074074152
H 0.0381493118765484 4.518730461355125 1.6492647845291455
I 1.1362287899444348 3.5099527906735064 2.1907216883862106
C -2.9787552814033007 -0.05833155799692951 1.0261265023266974
H -3.079777039878368 1.0257834226683995 0.9606703526599795
H -3.755066156042007 -0.5395890541789016 0.43721674617502554
H -3.0664807943003027 -0.3277405385866468 2.0791001610067967
O 1.3004873914879693 -1.2553810908385936 -3.697500484748519
C 1.712364412557273 -1.8474844701420836 -1.0983768363043005
H 1.497621140166032 -2.6481758132976463 -1.7914645176277144
H 1.2579009482122698 -2.030453202587042 -0.13218237479110914
H 2.780937218793931 -1.6899402875489133 -1.020032060605354
H 0.9556298280407993 -0.8299930163727545 -4.482851120066592
Rh 0.7825243643736629 1.2603580095598423 0.34200650469677424
I -0.9921883979767794 2.5274315689496705 -1.0297092303316349
I 0.8286380520637854 -0.1333113600322456 -1.9519517677533555
O -1.404201687869765 -1.2418379804150632 -0.36271920263967256
C -1.6418498539068764 -0.4715818984661299 0.5394123972518244
O 3.1953192389885676 -0.1486457515701749 1.4181256006265253
C 2.2486547289350316 0.3604380795835967 1.0297565001357907
