15
## STRUCTURE-ID: 645be70a2d35a45b2b0d4d4d ; CHARGE = -1; SPIN = 1
C -1.7461809406762787 0.507033000015552 -1.2762994185924639
O -2.713405582736994 0.2485338463456064 -1.819598811130078
I 1.613527699119121 -0.6396084600076944 -2.068047955292571
C -0.24341780843752592 -2.059269805067949 0.035623539607796816
H 0.3085240062135087 -2.9997792775048535 -0.04143327333058893
H -0.9098031291253397 -1.9769884490890564 -0.8198548135262571
H -0.8112131529071226 -2.067295768373981 0.9680102284688572
O 2.191482303724422 1.9671789355655562 2.337241680065478
Rh -0.19461073073618315 1.1120831627128593 -0.4407877625806904
I -0.008993105186334154 3.028493773695217 -2.3371746112299636
I 1.7994412509344022 2.481970409853746 0.5914024775461204
O -0.9361213480461955 1.1287543657107215 2.4628694166850313
C -0.7243951420662338 1.0351635059482964 1.3414894601110252
O 1.5984154639921972 -0.7950461213588343 0.9608606176866938
C 0.7767502159345824 -0.9712231184453696 0.10569922551162607
