13
## STRUCTURE-ID: 645bb30d89d02b2337507c54 ; CHARGE = 0; SPIN = 1
Rh -0.4488585622276902 -0.04698368427267604 0.15661353922541824
I -2.0385334059360622 1.9539542303257877 -0.716013301972654
I 0.08030927822709981 1.2830814005999804 2.4391607877197803
O -2.977062390474559 -0.5881691035826546 1.8712526627206592
C -2.0312517323957917 -0.6156657271469897 1.2490767569905208
O -0.9360407189123194 -1.208701093581876 -2.5536116018519657
C -0.7635492812057398 -0.821823672829539 -1.501084269702485
H 2.1099569538217313 -1.5135729196240786 2.1576018487771416
I 1.2583654150276138 -2.1553500629192572 0.9792031891563917
C 1.2001508075565461 0.808189426870645 -0.8881411548566139
H 0.914464205496568 1.6031331544555547 -1.5793280507779333
H 1.881535318208405 1.2440345498614716 -0.15210691758636932
H 1.750514112814377 0.057873501843857846 -1.4626234878419506
