20
## STRUCTURE-ID: 645bc103bed341391a6ee1db ; CHARGE = -1; SPIN = 1
C -3.041804731296792 -0.38569006805968975 0.7155544023832628
O -4.264722620257008 -0.19300838163056946 0.725131461551347
I -0.040619104580348085 1.8033072243461636 -2.017866922230251
C 3.068253836773149 -0.3549482312610975 -2.7987601232328814
H 4.007667205382614 -0.7015743473027082 -3.2500842753757526
H 2.5045122038658496 -1.2181650948447107 -2.413612864481848
H 2.442375826202097 0.13194405471144216 -3.5621095840786845
O -2.5639180768742906 -1.2789906558583164 1.6695044282219649
C 0.4153691318333578 -0.10832520546935148 2.503348586097525
H 1.169550928831536 -0.44239583611768957 3.2029676728250145
H -0.5773619214241408 -0.4185770010502026 2.806387190026838
H 0.4433454218161091 0.9668118982619391 2.3677207199734958
H -3.3033617963609365 -1.6731788881291096 2.1687221802694534
Rh -1.6985105974155286 0.46102579536381577 -0.43052446535029093
I -2.251472586110321 -1.384212662238016 -2.254440980075373
I 0.804964435289773 -1.0159865895534956 0.6174691892969908
O -2.142130441159554 2.381484647615529 1.796628144104173
C -1.8470292121932432 1.6930205049031375 0.8835908208949764
O 3.566076489641702 1.2203830989646924 -0.9487164301844264
C 3.308815608035915 0.5170757373480915 -1.7809091506356673
