15
## STRUCTURE-ID: 645bc48e84b80b4890315fa4 ; CHARGE = -1; SPIN = 3
C -1.8294399504474503 -1.0108301518528133 0.014429336740534126
O -2.319381844621995 -2.0719802630069686 0.008653021571374275
I -0.47768060004673263 0.47348179360369197 -2.898291416402337
O 0.3911258915266035 -0.43949135850150417 2.3811463013599825
C -0.5333850717865493 3.5329739984174857 -0.5836668005789547
H -0.37401122458395886 4.533143121818415 -0.23333536545655428
H -0.6882974050473547 3.283559552051179 -1.6158652875315318
H 0.6005470617118864 -0.8380032032295894 3.252229750696812
Rh 0.10233624474097061 -0.49180009323798013 -0.4243150163982934
I 2.934774877671537 -0.028721351095288537 -0.5027621039709996
I -0.13120791095543644 2.001525178052535 0.7496376862823024
O 0.7427563901178956 -2.480729558274568 1.566687703512227
C 0.4753220609073326 -1.310564775675328 1.3651969992650888
O 0.6680053726532564 -3.062152056043105 -1.8197830617122983
C 0.43853610815998084 -2.0904108330261417 -1.2599617473773717
