20
## STRUCTURE-ID: 645bbedd8daf1047ef0203c0 ; CHARGE = -1; SPIN = 1
C -2.5078555149709523 -0.5876799328226624 0.008947540552233438
O -3.0337269687978763 -1.593556689037703 0.20249706262175796
I -1.2388859373816972 3.5479717010393275 -1.0217150384606433
C 2.0316033521032755 1.7609757404120172 1.2461101524411629
H 2.931961587601511 1.2575298031684337 1.5944465263508414
H 2.2651243753501364 2.7481291853265803 0.8518766923542744
H 1.3613286701690008 1.83672370882447 2.1034140582510084
O -0.3147170898162757 -3.010424014934396 1.1719732757083532
C 0.6176959405384688 -1.762969213706662 -1.0183383897612597
H 1.3018322430631724 -2.6002988723007783 -1.027224567512166
H 0.948204091968741 -0.9560906981228883 -1.6602959515438678
H -0.38051859459003934 -2.094860343611855 -1.274177813766678
H -0.3659517637515607 -3.307884012613194 2.0808581028205793
Rh -1.7804200386713285 1.0586951969744518 -0.34889034117333095
I -2.071313305750876 1.6230955595779346 2.193606483220503
I 0.5653093523988826 -1.021069644475244 0.9676916823738755
O -1.3951789739453793 0.3987220850599304 -3.232167531228026
C -1.5559140801783788 0.6510011159539942 -2.119293224127307
O 1.2268297570793476 1.1448170131960347 -0.9458058715309461
C 1.394592897581818 0.9071723120921973 0.2264871524096525
