18
## STRUCTURE-ID: 645bb5cbaaf74808f06ee1cd ; CHARGE = -1; SPIN = 1
I -1.3979748236747458 -2.649443658730697 -1.973492125991925
C -2.1593956047521483 -0.840151701173442 0.7135252838807754
H -2.67035667994595 -1.7350189247475338 1.090112197118099
H -2.746217962843062 -0.43746145264451225 -0.1156102078138856
H -2.155618379067557 -0.09264303555449795 1.5136243794425133
O -0.08649947355529504 2.71309851152513 -2.4277456407047455
C 1.715833155465948 1.804174582180213 -0.4761344212443215
H 1.6200626832788532 2.866436198648608 -0.6679452128985748
H 2.5771892637575453 1.3701496718534538 -0.9731769958141914
H 1.7180009547199002 1.5922668953232113 0.58694067400606
H -0.003410986875084188 2.5474854517893237 -3.3734350887711333
Rh -0.22059748216608882 -1.3910250769983505 0.0669004910837853
I 2.2615452160517773 -1.8764755296181683 -0.8724989028637502
I -0.039743130146858034 0.9336580848654642 -1.3071090470840747
O 0.7445352405688055 0.5307783394611963 2.212316680579792
C 0.4261864218858587 -0.5201687638482367 1.6800742690078851
O 0.17454410560909187 -2.962257148220376 2.3884447004302425
C 0.24191748168902222 -1.85340244411079 1.9352089676374613
