23
## STRUCTURE-ID: 645bd3f61873b333712fb200 ; CHARGE = -1; SPIN = 1
C -2.3703889119283845 -2.1595414738940737 1.6134753820686052
O -3.285632445919058 -2.8822893414783533 1.4229897680939607
H -0.6868440830357105 3.7768751764776476 -0.18471042964744624
I -0.18903605384114244 3.1770907474959245 -1.5584656444517142
O 1.6525468711707214 -2.2374391408320293 3.4610175371772325
C -0.29608334229256833 5.3010993140232765 -2.384152363960194
H -1.32737267902248 5.634100168116137 -2.2975262618887426
H 0.008873712959640866 5.227744840247758 -3.4259499556642066
H 0.3970650796354951 5.913086247468377 -1.8122183682174677
H 2.625331964028174 -2.3219900041702255 3.5101974875662294
O -0.09188689777278705 -4.371219245777581 1.5696832191365526
C 0.378571459702781 0.0312938532460537 -2.317732581154242
H -0.44095117829808994 0.37338226420761406 -2.9437107586755635
H 0.5453694977398359 -1.0312666659921683 -2.460534573509974
H 1.2936238834979001 0.5824597594588051 -2.5151937261875155
H 0.1852778943902171 -5.085712772642718 0.9604871568623424
Rh -0.6641672861908001 -1.5382600700217721 1.88518362468665
I -1.0682648177748262 0.6899072687198168 3.2802263316757494
I -0.17183646579333106 0.2504400597223037 -0.17846103447448972
O 0.14142225468627248 -3.2097058495540556 -0.3087438135868703
C -0.15273049058671284 -3.164436880828103 0.8975754508499223
O 2.2350740876007347 -1.329346735912634 1.5208333892485515
C 1.282037947044122 -1.626271518080006 2.2657301640526253
