20
## STRUCTURE-ID: 645bc15b13d8553cda2b1b70 ; CHARGE = -1; SPIN = 1
C -2.096584063929072 1.5630844333840042 -0.31416999706242427
O -3.083505637731325 2.1243352276445284 -0.12000700911317269
I -1.1869410726985137 1.5718564785772622 -3.4382547613183116
C 2.1156511125586035 0.4332872910011 -2.5527633845664996
H 2.109477782361858 1.5188425688333465 -2.6394825661619055
H 3.135289328930362 0.056752549585674654 -2.4667749462697324
H 1.6666401730149702 0.023716699183141763 -3.458651426826263
O 0.6444984507765172 -1.6050752821126455 3.414899921700459
C -1.8562388105301932 -1.1506604056508323 2.376388215937777
H -1.6521183093110003 -1.0402074108615684 3.433323090115992
H -2.4251201126926754 -2.050090725296534 2.1679336471065818
H -2.354706546507958 -0.2748852456462494 1.973206538812796
H 1.5321349084721798 -1.9705454444402395 3.446673237381812
Rh -0.45925710367464134 0.7739326404816289 -0.8015176244282702
I -1.6421581143187778 -1.780920765116065 -1.0456201653795585
I 0.05367278675087634 -1.3242367662578054 1.4387780042081246
O 1.6765335601604539 2.378907957960736 0.5873989078429186
C 0.7973809135120029 1.802288632687658 0.10346983029534254
O 1.729602269441515 -1.014228862490946 -0.7396215613014597
C 1.2957484854148122 -0.03615357146616532 -1.3652079509741888
