15
## STRUCTURE-ID: 645be214e2f5b24b2f0abd08 ; CHARGE = 0; SPIN = 1
C -2.587787310750948 -1.1312504049672516 -0.45405722338128574
O -3.4883832490436517 -1.735161702490716 -0.11890213195753578
I -3.2116180480565304 1.6030697896129382 -1.4876803800174176
C 0.7770288416691793 -0.6106279916151052 1.2828141920520628
H 1.6265275559413408 -0.5081596090961896 0.6032407716765752
H 0.5087118644406553 -1.667608764228853 1.3271860516726361
H 1.0744552389340334 -0.26169223349390497 2.2747571650857883
H 3.2028494554139986 2.9101415493709473 -0.10211798846868006
Rh -1.177624222994226 -0.05924273862186517 -1.068483453399876
I 3.4182284506145666 2.3061651740092937 1.326696163870687
I 0.6273611004070994 1.5477500500196888 -2.0721286344283887
O -0.9606055896464707 1.0769380649895026 1.3500637979108832
C -0.35996275181434534 0.20487843718159243 0.8353495964839466
O 0.589942178789246 -2.2369473791833765 -2.1002472922461926
C -0.03912351390395057 -1.4382522414866996 -1.5964906348531789
