20
## STRUCTURE-ID: 645bc19eab2a4d0e6f507c6b ; CHARGE = -1; SPIN = 1
C -3.0526327267688833 -0.36578038224811277 0.6245965994976147
O -4.2759721646896836 -0.17875623736352117 0.5929513948720706
I 0.0479501367865238 1.7097185328810764 -2.0905628491418424
C 3.158914202222112 -0.4583192459953183 -2.6839748433641413
H 4.116914275854051 -0.8753653036273991 -3.022353964253478
H 2.505246895314204 -1.2741870615334165 -2.3411808159629452
H 2.6474712816569355 0.04135975341663895 -3.5202553494985955
O -2.598518743329615 -1.2175567920151358 1.6270883818163568
C 0.31680356759181166 0.005346449452799917 2.5269065632196726
H 1.068473881296866 -0.2624657378644931 3.2569362085066476
H -0.6713032501165137 -0.3177089898235446 2.8314327674605244
H 0.3129357459969473 1.0713246489954087 2.32962910345352
H -3.349891071884063 -1.5938235633215574 2.1222685787484883
Rh -1.6758160009588154 0.43722765628546784 -0.5141483959552254
I -2.168265524435757 -1.4760407105781852 -2.2852561656775143
I 0.7689133395232781 -0.9975302432475359 0.7038425699377159
O -2.196817462789806 2.4578977133706106 1.604938891263847
C -1.8722698826345814 1.727759348762816 0.7354943465103176
O 3.5696446479833077 1.1395339097631743 -0.8316114995603727
C 3.3482188533816846 0.4273662546901968 -1.6667415218727717
