15
## STRUCTURE-ID: 645bdfd09904d22f0b1fda9d ; CHARGE = 0; SPIN = 1
C -1.561594187665303 -2.1310407614697007 -0.7490590824548206
O -2.4418785555239766 -2.8001323182711584 -1.052594524174633
I -1.3963485815855483 -0.5826042885374068 2.231077898394323
C 1.133797398192328 1.956222382364834 0.2211302140083814
H 1.734396420723331 1.6972681498627968 -0.6505177496374118
H 1.5785821472974593 1.4815841171541 1.0967659790141555
H 1.1352669865961533 3.0372239816114033 0.36340481162241245
H 2.0381345489397384 -2.979650135753431 0.4242010429538182
Rh -0.6833281250206861 -0.47160796673396227 -0.3322335336575182
I 2.1019307924330213 -1.498487595337758 -0.13493824396719142
I 0.006050365897666134 -2.651562237693176 3.3299519362905867
O -1.2212715496353534 2.2568978544198752 0.19663223559111134
C -0.2945078997650057 1.4788043668628559 0.04164551328853826
O -1.1589076408671644 0.885113753318879 -2.98334010748959
C -0.9703221200165626 0.32197069820177515 -2.0021263897820676
