21
## STRUCTURE-ID: 645bede75d90cd7caa47e4fb ; CHARGE = 0; SPIN = 1
C -2.957341224186908 0.9185589819404171 0.8851358095313917
O -3.9645267661662804 0.9249648667975617 1.5968298545308952
H 0.4649415115295264 -0.7298329610892846 3.6454377143644283
I -0.8970023996876166 0.08708074732946931 3.377107775654991
C 3.8914381300591074 -1.135453586639247 0.5911395853299058
H 3.6172408968907943 -0.21536062051230137 1.1287996337178083
H 3.4634968020281547 -1.9921868575113577 1.1365838052560222
H 4.986427647070329 -1.2253176679176705 0.5630163336933641
O -2.7890516549319684 1.9746753903360925 0.018245402872969094
C -0.3833708063846483 1.1591436026381223 -2.23631838598052
H -1.4399938951414268 1.3546736186432031 -2.094887414487199
H -0.22422810958402883 0.1320280845102185 -2.5424068814473406
H 0.05552648166466054 1.8559250366321605 -2.9379742230471173
H -3.506199660125344 2.6287049019959676 0.10952303135000177
Rh -1.5466605893151049 -0.45007601852414775 0.8141906809668826
I 0.2609533120177575 -2.364359488139268 0.6673682532281782
I 0.5676678546141345 1.4424275166226213 -0.35201415190663377
O 2.983863243271325 -1.0651993751317514 -1.715253355269029
C 3.374440468511393 -1.101322153736561 -0.6659393699053324
O -3.371758318897729 -1.2242619391146516 -1.408704519124844
C -2.585862923236924 -0.9748120791290839 -0.5798795793284485
