17
## STRUCTURE-ID: 645bbcb87ecc8918f5108f18 ; CHARGE = -1; SPIN = 1
C -3.09324228824968 -1.115281993989946 -1.3210994352244985
O -3.3944137289276575 -1.957331734819815 -2.0783435041251863
Rh -2.6585806617653236 0.4134750017499474 -0.3950517947077735
I -0.10952594758490962 -0.07288249907774105 0.3180645704417479
I -3.632677278345956 -0.43262180136642336 1.9894557503317645
O -2.936709387254684 3.3737607046565805 0.00038838425034711356
C -2.8099786699070592 2.2093511638290524 -0.02589247034475507
O -3.3034696246215107 1.5187451143646615 -3.034761968160843
C -2.4401881874151337 1.107923350351903 -2.256385216704508
H 2.358496477039486 -1.1839469130236333 2.529951922359456
I 3.148612772780795 -0.7827104991004067 1.227597001886484
O -1.1511884106466181 1.1156137986316834 -2.7078610369235427
C 5.0691883540498806 -1.355114920151042 2.243064177384631
H 5.0051838744755806 -2.4121976568298877 2.4884291848426727
H 5.172831248992904 -0.7213911495220267 3.1202472140723145
H 5.862834181528625 -1.1648942918808785 1.5238657438723284
H -1.0871727241487423 1.4595043261779677 -3.621668523250695
