20
## STRUCTURE-ID: 645be60768c1c000532fb1fd ; CHARGE = -1; SPIN = 1
C -2.4774031746224723 0.8112091262293791 0.8589795366919909
O -3.563096758664868 0.5785344757556116 1.1821669231133343
I -1.7470318233030573 1.3884520899101491 -2.1424067387196017
C 1.6973149404208339 0.47593487475345586 -1.6652597897932968
H 2.7841379941981774 0.46149136523888284 -1.7392924240550536
H 1.2845346590969582 1.0811297415819228 -2.4664931729653574
H 1.3385891651193853 -0.5473238887306549 -1.7432321689935009
O 2.972278173579574 0.2581520010647852 2.6250346732342016
C -2.398930535315184 -2.330209793837125 -0.6237694496682858
H -2.4480490105974195 -3.385503431556505 -0.8574393540903875
H -2.447443822109808 -1.7206896042776592 -1.5192154419646002
H -3.1739016495715626 -2.042800961488386 0.07693569912402831
H 2.899617655795918 -0.696708565109955 2.407166416535404
Rh -0.7925072457807787 1.2060382804824878 0.34880089078408777
I -0.19211569840823173 1.6095699421205816 2.947028136725335
I -0.498974637871522 -1.9589111995732742 0.3223726783199791
O 1.994119209588737 0.39017040550254234 0.6745780437227079
C 2.4305207064026035 1.0862146289244576 1.8057085815919665
O 0.9640480819062451 2.2442870238564403 -0.16793676992535814
C 1.3742937701365003 1.0909634891528563 -0.3237262696675748
