12
## STRUCTURE-ID: 645bb3eb180a065301732d40 ; CHARGE = -1; SPIN = 1
Rh -0.36370982941850194 0.61715582248442 0.3876724507052193
I -1.646769675106433 1.9968788530030157 -1.394046848161094
I 0.29584797183274675 1.6828977276079353 2.6605123535033375
O -2.5067908054992536 -0.9575603215351388 1.0454141957695973
C -1.4643003525983411 -1.2524922761881125 0.4982455035351977
O -0.5164353438185534 -1.4636481268660286 -1.7537714544685292
C -0.8037689343823352 -0.9250988013596216 -0.7276398863056812
I -0.005790293308928742 -2.568190860239715 1.5903912980845563
C 1.510351340134587 0.7065833690292721 -0.4787464013617627
H 1.4771317649260975 0.38029166639328693 -1.5196834048120584
H 2.1542462085272898 0.045915231176110335 0.11266318700891706
H 1.8699879487116362 1.7372677164945687 -0.42101099349770676
