23
## STRUCTURE-ID: 645bd2ce9a9f0641e22b1b6a ; CHARGE = -1; SPIN = 1
C -2.3094586845313194 0.13117178710144867 0.4553375803365896
O -3.2738197384136316 0.6660986564531037 0.8121573839803308
H 2.405546486632315 -0.8100530800893653 0.5174630927957876
I 1.3048897768269243 -0.03075682500270603 1.4549803151687386
O -1.964403742679404 1.516990824195253 -2.299844160773703
C 2.0713339323782045 1.839794307023332 0.788676341869229
H 2.8814558475369383 1.608199064292978 0.1100216641534355
H 2.40181592461348 2.4080171656391554 1.6507852635962295
H 1.2803873950402886 2.3591919405784756 0.2597565051295026
H -2.04025070622793 2.4136633323012266 -2.6856078008117654
O 0.3000934853002344 -0.6759273180650915 -3.1380993245581466
C -0.8493452306440978 -3.1933624407154397 2.042394263586943
H -0.6367390501717612 -4.226597505404561 2.2899314451398167
H -1.8524827215536985 -2.908796078811165 2.338066316872367
H -0.11165304136581362 -2.5137170013961256 2.466819974158495
H 1.0618943858022527 -0.6193642781955861 -3.748393422471027
Rh -0.7837997435880499 -0.3238877253389032 -0.5090544531588953
I -0.2545710489556135 1.6697930708268083 3.3149189984501914
I -0.7230326703975435 -2.9885893251082454 -0.12960079214923276
O 1.8440728092982428 -0.0021216572918496567 -1.69614085242863
C 0.6585445488758559 -0.32715411609057826 -1.8648174802322028
O -0.40584775893000835 2.5314219039082073 -1.098383026915435
C -1.004630454845946 1.475985299189617 -1.331367831738703
