17
## STRUCTURE-ID: 645bbaa09eb3af75dd315fad ; CHARGE = 0; SPIN = 1
C -2.2866516108596096 -0.9786480237545502 0.46864690862379815
H -2.8478509577334834 -0.18993181780189106 0.9760232946625345
H -2.7657702650558336 -1.9362206094567893 0.7140543239791204
H -2.4094659558856377 -0.8171700072678377 -0.6056622849082441
O 0.08660085961215981 2.919084744788599 -1.4850174724059353
C 2.061602189228055 0.8586676697269445 -1.4252998693977343
H 2.407834302543121 1.886371456833577 -1.3997244976295282
H 2.154030494922437 0.41227591352277704 -2.4107791497030306
H 2.5430002927089754 0.2563267472957946 -0.6628898499871368
H -0.21383108233145806 3.05584538821051 -2.3921458491460745
Rh -0.28421385414508354 -1.1581891648838758 1.014134472379434
I 0.29964143658395265 -2.2136380667752347 -1.3013708356056546
I -0.013727724576324892 0.9619419848656802 -0.9425587638550887
O -1.2322987613129444 0.08376112180911666 3.566619780955293
C -0.8527842607229358 -0.3991327864533736 2.5974956332041743
O 1.6043494089529216 -1.8773197822062948 1.9117188810065164
C 1.7495354880716933 -0.8640247684531667 1.3767552778275702
