20
## STRUCTURE-ID: 645be0a128099f097a108f0d ; CHARGE = -1; SPIN = 1
C -2.749533695968395 -1.3332867291216044 0.17675761743038312
O -3.651911988833817 -2.027959952800953 0.26821501469260123
I -2.4213150663475926 2.0261369385578516 -0.3213789908329055
C -1.3622932128144154 -0.09644291977304671 2.680929998623562
H -2.3286125378443736 0.39573824549066694 2.5702758618633124
H -0.8463860208456112 0.306184710182351 3.5526102909709554
H -1.5352976778342944 -1.1647754479682755 2.8112611478071217
O 2.510033946877046 2.2129730141700867 -2.492369784511205
C 2.6298394928466715 0.17614607457987616 -0.6975686142958254
H 2.916414424030702 -0.7357204945394966 -1.208354088831922
H 2.4178287324956145 0.0011780067800477123 0.34969705125533296
H 3.378017905327851 0.9436391634580106 -0.8309961969697165
H 2.1664071115753916 2.8254650139704864 -3.1430473809968142
Rh -1.2116297924034825 -0.37422947884877833 -0.38335577309337326
I -2.009513619347102 -0.9801886432502525 -3.0109897160020345
I 0.879861821269388 0.9403183226446276 -1.614013253929616
O 0.5698065874766346 0.6649380334517199 1.5190758126383548
C -0.5160361224064365 0.14193728328157004 1.4609436567870888
O 0.9753249985635527 -2.3617008049076453 -0.9820069363489763
C 0.1889947141826581 -1.5603503353572394 -0.7056857162563257
