18
## STRUCTURE-ID: 645be4d5916b2a1f710fad14 ; CHARGE = -1; SPIN = 3
C -1.2616460116542962 -0.09349240471962889 -0.06745282057795572
O -2.242485228188704 -0.7401862081785643 -0.09016824555642772
I 3.27856968082823 -0.6041953139083731 -0.6440950954945769
C 0.27087113266415774 -2.041889733540178 -1.8224324072799745
H -0.7814511997865431 -2.1201377994805832 -2.1071978089074586
H 0.5446339251999638 -2.9096414883338984 -1.2216966500989153
H 0.8876620930973237 -2.0144633193239105 -2.724923124008862
O 0.7319741002646805 -0.45826960680417167 2.0337995379343616
C -0.9753825942926889 3.0004673606739662 1.0971688482467905
H -1.5556408596316205 2.1136123468241617 0.8494387244025887
H -1.2467366575224093 3.834353242298259 0.4611641550536661
H -1.067162645365166 3.251184131616391 2.1465393743222445
H 0.7834563167212671 -0.9340008743826701 2.8884825101151756
Rh 0.5904855901578809 -0.22708097175262668 -0.7137809369193355
I 1.0906286737487967 2.5180337666457326 0.7125110035600619
I 0.04996703370369931 1.1658402190545154 -2.932144921540592
O 0.36687940017787657 -2.4652136278606895 1.1448611661090233
C 0.5353772498777011 -1.2749197188276553 0.9899266906402086
