15
## STRUCTURE-ID: 645bdf68dc592962570fad20 ; CHARGE = -1; SPIN = 1
C -2.5782097745296153 1.4606698918315506 0.14417872169124293
O -3.502427954075857 1.9822828025812478 -0.28652827535952724
I -2.3944936830570924 -1.230185193474985 -2.8498518689075634
O 1.9062277214257823 -1.6116400948332268 -0.033858776499196816
C -0.5659584111451844 -0.46103074968940605 1.6321549601838574
H 0.45477465227891745 -0.6740442594383326 1.9283387043159919
H -1.2652013312446881 -0.3044874997345941 2.4458708437735934
H 2.7131884537349213 -2.0827792695157146 0.2591972698616499
Rh -0.7749954882478975 0.7970716913436753 -0.01756042948493059
I 0.3015001414999348 3.1394237943138292 0.5893534739592543
I -1.3079435844641707 -1.7416106853675237 0.12717354347317933
O 0.7325623117083795 0.65199806128578 -2.090349675557588
C 0.8887167331199051 0.32059471672101036 -0.9256787689464295
O 3.2405441871425484 0.13784105949671308 -0.4556865282229777
C 2.1517160258541104 -0.3841042655200079 -0.4667531942805754
