20
## STRUCTURE-ID: 645be1fc7643ce52cd014efa ; CHARGE = -1; SPIN = 1
C -2.2305338026288166 0.8389261925512648 0.5870456178771277
O -3.208204961210223 0.7754508404348581 1.1837616406622025
I -1.0085788970964646 -2.489242025086987 -2.902209135232488
C 1.591766396252906 -0.304965918357178 0.4677202234465546
H 1.6847199922784055 -0.8021405205483196 1.4484359663745465
H 1.8344367073469738 -1.0504473738940154 -0.2988183119112805
H 2.3804243245130814 0.4528994454012146 0.4284398317926648
O 1.492521688421848 2.4218733746868915 -2.0410720400658686
C -1.307552040298651 -1.7937894530344243 2.3019909265432177
H -2.348101732606062 -1.822354877226606 2.6044640122834806
H -0.8771818656449408 -0.8192323976021473 2.5696005704202594
H -0.7497787772343056 -2.5773116183479483 2.7996155148235657
H 2.3744288822273343 2.6245778159191353 -2.4191069661891977
Rh -0.36237569426777844 0.4235827479847456 0.3101587130378304
I 0.38679091230475215 2.7011517731308405 1.3784173557858002
I -1.1781032046189244 -2.084640883532566 0.1282591270923685
O 1.8448213244574603 0.28341603849900254 -2.6039519848705
C 1.1681263087114848 1.1513604423704835 -2.1241212165142205
O -1.2316063041393444 1.1271574395983475 -2.2403718983390286
C -0.2560192567687386 0.94372895705342 -1.5782579470170284
