18
## STRUCTURE-ID: 645bd2fdcb223e01462fb1fa ; CHARGE = -1; SPIN = 1
C -2.8158393052515738 0.8346252105908607 -0.18324227244959665
O -3.8175406588903265 1.0934698926018853 0.4159265011990518
H 2.577451939213365 -3.350190072323082 1.7997452767296773
I 1.40050138509627 -2.155226307046473 1.0311676344528051
O 0.4577851320998062 2.689942731871343 0.6691107033475212
C 2.0319327813995303 -4.021057494801928 -0.32731335700045805
H 1.6655164584161593 -4.891907941607583 0.24675513202826121
H 3.1242811345775894 -3.9079186660181113 -0.44893466652851205
H 1.4993039341726517 -3.886724810346962 -1.2796519844688603
H 0.5304124124298659 3.6422561793160964 0.5749581920285086
O -1.2371101625942182 1.5651835659947524 1.7711605159575812
Rh -1.1553743138600103 1.1039926797838686 -0.958475212602256
I -0.16307383277374599 -1.0620775710776322 -2.0544631868922907
I -0.04689615099803527 0.15371163212114564 1.285640911715382
O -1.79803546318704 3.4293528436886196 0.7172032008058774
C -1.1161421526712036 2.337709062115154 0.7233893388631008
O -0.5049920225471397 3.7833669862369668 -2.1466870768736626
C -0.6321811146319206 2.6414920789011442 -1.8362896503121056
