20
## STRUCTURE-ID: 645bcc48880f8357f90203c6 ; CHARGE = -1; SPIN = 1
C -1.5854745575990628 2.664062993761846 0.3713089951970109
O -1.746887702897065 3.7607925225795347 0.7882834576960747
I 2.4315997186815723 -0.7583378306543087 0.7154161374249715
C -0.1565651967406435 -3.094989878749322 -0.42448446591182326
H -0.2850939878274332 -2.9989236601352376 0.691758338589089
H -0.531562526762836 -4.141727018258042 -0.3931482177842559
H 0.664505273951312 -3.3435496917753484 -1.141917086383776
O 0.9012646545070534 2.5587925654717507 -1.5834036930333681
C -1.2258149885463798 -2.249147421022367 -1.12581883184394
H 0.7668622869577311 -2.4339860124386092 -0.025605718400222924
H -1.4707383064272268 -2.6334014658572853 -2.1137031334886123
H -2.1211102924227907 -2.1428787529330218 -0.5162165533730476
H 1.4123139009717478 3.2419911969606208 -2.058112793220104
Rh -0.057794243264176856 1.3960876809527276 0.813619475664327
I -1.4575529225638035 -0.3844639556158879 2.17974912412974
I -0.6048863427124073 -0.09408793450169897 -1.5679869795449164
O 1.6490776873401325 3.6744185488530188 0.18457219832177765
C 0.9859438198631176 2.7138986755548897 -0.21707101877316667
O 1.5168395385398525 2.3514783934567816 3.1605999996397527
C 0.9150741869513307 1.9139710443498155 2.2621607650944666
