12
## STRUCTURE-ID: 645be614a3a9d539fe1fdaa0 ; CHARGE = -1; SPIN = 1
C -2.1055956620943492 0.2323266549552227 0.17568585734692435
O -2.8226789619543102 0.2885343997292298 -0.7185371110152111
H -0.1894652451120696 -1.0812965523071825 3.7681527216744306
I 0.054842933343353634 -1.881492030472443 2.401907335576619
O 0.6404616076124909 1.171797323969076 -2.482888803947881
Rh -0.12217461474838842 0.02373525816624047 0.4659517212602533
I 0.20913886942354232 2.270256363220024 2.1976446554761706
I 0.4735597485149043 2.131436361800954 -0.8739230332367887
O 2.623722106423244 -0.49890362381903475 -0.7951967656564486
C 1.4238884690010474 -0.46935152912109684 -0.6636956389189181
O -0.40005774832862867 -1.415745919135491 -2.1433421012877094
C 0.21435849791923264 -0.7712967069855258 -1.3317588372713391
