20
## STRUCTURE-ID: 645bde479b189e0be17e8a84 ; CHARGE = -1; SPIN = 1
C -1.8231210056464198 0.04128569742598705 -0.23847620974727202
O -2.8472744704965645 -0.34234679459776246 -0.7076507950464628
I -1.551798737324224 -3.3123976415617453 1.1110873086759074
C 1.9309202471047464 -1.4496150440753903 2.680650447014221
H 2.592110012677857 -2.1525213125398373 3.1802840238034413
H 0.9325652653975512 -1.485989403969417 3.138990901656215
H 2.3002882492183896 -0.4299231749470924 2.7982429457358613
O -0.10181835419082302 3.564296860939309 -2.1203233593171245
C -1.4086475707150197 1.2734667877977703 -2.907547603611614
H -2.4251279903080687 0.9075704232320365 -2.8317999864617356
H -0.7334259194493625 0.4877819039366265 -3.2235836639408566
H -1.3335295471297035 2.1408551321663074 -3.5462597004081764
H 0.41573601777722424 4.169716189293819 -1.5859099061175026
Rh -0.851446156214983 -0.823947365204574 1.2212654286691076
I -0.5648280737293486 1.460789088021285 2.4458785657649527
I -0.8064905863977535 1.8807181534786361 -0.9736120807322451
O 1.1012390361968838 -0.5278343721629797 -0.7260814487775819
C 0.8750365848051755 -0.9530617170182127 0.38198071468919575
O 2.457958202668797 -2.668517090099851 0.6767347470301103
C 1.841654795755605 -1.7803263201149313 1.2261296711215777
