23
## STRUCTURE-ID: 645bd33a876d8e0ed53adfd8 ; CHARGE = -1; SPIN = 1
C -2.7807050500842077 -0.7259148619254877 1.97983451140388
O -3.821300242327033 -1.245199000286984 2.0241406990703745
H -0.8239688166981272 2.488703378468629 0.7711800048213218
I -0.7353528056677631 1.2008780196697095 -0.18152469166033905
O 1.3440999636329118 -2.0241821460406295 2.570354409055107
C -0.7770870472170948 2.910844091015421 -1.7208743190931775
H -1.7051993808885457 3.4459061198956458 -1.5640986652750961
H -0.7572310087965901 2.4582358595505363 -2.704012986479824
H 0.09024921138687456 3.5402570041940904 -1.5596430693253474
H 2.2743475548180134 -2.2924648689112854 2.4391324968619172
O -1.1614868429811618 -3.2038853097565574 0.8006600572852973
C 1.9995813481265645 0.217701925163272 -2.2217241730258595
H 1.2176584210061685 0.5702076712955959 -2.8803542157569937
H 1.595249755323726 -0.4541942785372665 -1.475909814643302
H 2.80013609180147 -0.25843935106473653 -2.7720638476810033
H -1.1548165188875508 -3.8091772278772633 0.03200912107461294
Rh -0.9285544581426415 -0.5762262424282294 1.8555750527255874
I -0.40122144422966466 1.2398497037725427 3.701378504666071
I 2.8083703759677032 1.8952280339330885 -1.1992281408975418
O -0.8692137006092028 -1.681176936647575 -0.7942389698016794
C -0.998753278867495 -1.9082878718496012 0.4110325527946889
O 1.8151830045008999 -0.72867239652283 0.8267804629925467
C 0.9700148688327567 -1.0599913151100897 1.661595020888768
