14
## STRUCTURE-ID: 645bbb50ada44c3d317e8a90 ; CHARGE = -1; SPIN = 1
C -3.031424230548822 -0.1220530801599415 -0.29734209948864854
O -4.17148163922572 0.006953836035843361 -0.2956861132489312
Rh -1.1433709931035312 -0.040802911240455556 -0.31838020282542584
I 0.023199180042265986 -1.7959676714185837 1.668598973920987
I -1.6036832710655358 1.8104069720890534 1.5491625429766953
O 1.7283222161197094 -1.0843646263137905 -0.744393902577102
C 1.3351250813266708 -0.446353540279896 0.18391666061307296
O -0.8832911678034788 -1.9968384874246 -2.548881630540029
C -0.9925619364440476 -1.262774371262917 -1.6733488084789776
I 0.1642512772138179 1.7560302948282613 -2.0053159218410643
C 2.000661052582323 0.6080100484783226 0.9735223541932236
H 2.733225822963028 0.11029039127541744 1.6134744538659234
H 2.518871522188447 1.2803509418822774 0.2883193061347266
H 1.3221570857548886 1.1771122035110078 1.606354387295548
