20
## STRUCTURE-ID: 645be705fec22508365a4840 ; CHARGE = -1; SPIN = 1
C -1.8432367183541791 2.3962436638475766 -0.3310344139630467
O -2.7812227656549844 3.0227932959800885 -0.148433783491557
I 1.024711312475033 3.6176564240675755 0.7697959554249555
C -1.1385302697104702 -0.026822544173656624 -1.553307861493831
H -0.4908210911300608 -0.9034858069711625 -1.6105226924713711
H -1.2882674508963712 0.3753376512559081 -2.5599974516818884
H -2.1044732237467283 -0.32735775495010166 -1.147517698386415
O 2.4342779907498437 -1.0780545347235875 0.14834844426602842
C -0.6004984040109438 -2.0090088855519346 1.2379666470319328
H 0.1715870925875838 -2.2299584236362637 0.5107221444103275
H -1.5993188507894507 -2.1322521204795164 0.8355151298916074
H -0.48345389530108823 -2.599543411491973 2.140544139396312
H 3.1763519960366784 -1.5440508287774388 0.5870988136589573
Rh -0.19191316567426417 1.4915514760704287 -0.43977664891965
I -3.638614897138162 -1.030147544938976 3.1274681484906286
I -0.37274082664521163 0.060197216219974016 1.8189198830148678
O 3.854762096347225 0.6239452724319002 -0.2115676751528606
C 2.766874757066006 0.11384191221751642 -0.2957490700551516
O 1.5237627519057704 1.3336615515594938 -1.9943409295063819
C 1.5807635618838838 0.8454533920440989 -0.884131080463519
