21
## STRUCTURE-ID: 645beacddd5998590536ef53 ; CHARGE = 0; SPIN = 1
C -2.2483695585223322 -0.4332706751488797 -0.4407781322454478
O -3.0552563546741 -1.2336150585147938 -0.7107772476698481
H -0.7360560096053969 3.034133981691375 2.455258487836249
I -1.3201547820475263 1.5594751689199609 2.2193157796969194
C 2.58138518320056 1.3215247199675675 2.836829403987295
H 3.481781299253415 0.7429802089619346 3.091073302838344
H 1.8326338757643719 1.1712048158755928 3.6320594053415687
H 2.8457392826829566 2.3898632760571306 2.798094464390197
O -1.8071378037131631 0.9952615019951921 -3.0393349036972754
C -0.4677662602788489 -3.231935619889243 -1.1353812716345852
H -0.3038107834176164 -2.566352591546704 -1.9734833927568438
H -1.5275278082951411 -3.3799500491695147 -0.9671056241220884
H 0.042883844436257826 -4.174548402362041 -1.2766078615450378
H -1.7223023959984118 0.7273758892224073 -3.9736333913592823
Rh -0.9941791639046722 0.8954320945052178 -0.37628946835611776
I 0.34209196257365626 -2.3001402608005193 0.5741834213059068
I 0.3809557128148228 3.049626397209123 -0.9850300427623008
O 1.6151488488157892 0.5960774640308449 0.6567525768482319
C 2.071489364467424 0.9143810170591699 1.6369387693626043
O -0.12920489451854153 -0.45058750293663485 -2.7704972690487497
C -0.8823435590334524 0.37306362487276984 -2.2515870064097254
