19
## STRUCTURE-ID: 645bc4cbc79a83133b507c57 ; CHARGE = 0; SPIN = 1
C -2.588906764268789 -1.0482801260605477 1.4723570794615868
O -3.346841325533015 -1.443807429345538 2.2312124608814603
I 1.3975619288976666 -0.2903856262432074 1.673690233190484
C 1.1937380963706101 1.3260512518400123 3.091212235075596
H 2.0241561814418083 1.2544759941014403 3.781853066955213
H 0.24449626602818444 1.2014881057828337 3.597058977302764
H 1.2157484451688196 2.2559345015853913 2.536000079880869
O -0.28978229852224646 0.7608595609286997 -1.437449070268956
C 1.1574529607596857 -0.8409262923448324 -2.4636294742213947
H 1.4367414267253753 -1.1872408803385437 -1.4688252110881772
H 0.3792590821457955 -1.4963407135300555 -2.853840449833076
H 2.0173333581376056 -0.8778566349713061 -3.125968544386438
H -0.5741270727020813 1.7021956707293069 -1.4549645682994001
Rh -1.3680029418650022 -0.34316044103635995 0.3066245528189864
I -2.0103442673140415 2.025111559889548 1.1826375109438312
O 0.9648383618087676 1.4672182862075596 -3.1186632330561075
C 0.6393872365565159 0.5562390045019346 -2.404973143050358
O -1.2512837497831102 -3.025786679502647 -1.019178714905775
C -1.2414249240525572 -1.9957891121936984 -0.5251537874011232
