15
## STRUCTURE-ID: 645bd58011003b30476df3a3 ; CHARGE = 0; SPIN = 1
C -2.4250200246827345 -0.0054485830564839 0.8231771102919376
O -3.479682645731331 0.24069344084166122 1.1793834045892004
I 1.3771907044930434 -1.6053960710240893 -1.0130291568377232
C -0.445354724557205 -1.3603686015013299 2.001577165973549
H 0.6217124280336048 -1.2872652715101702 2.219117068145461
H -0.7140978499521725 -2.4089251596591836 1.8543912351564187
H -1.0125794245487885 -0.9582093548397391 2.8385916211343973
H 0.27803905788466116 2.083487752300861 2.532415578314163
Rh -0.7517756779975525 -0.39992853931770617 0.1640628930145162
I 0.7148839210844402 2.080966768368446 1.0117707183430509
I -1.2092788590899963 0.4283982548611909 -2.495782347512743
O 1.1262441248325776 1.8794054086557277 -3.5444604977631005
C 0.8881814521779134 0.9249012485871029 -2.845244699839774
O 3.1033732027507885 0.29445741015207477 -2.454602463175412
C 1.9281643153027685 0.09323129714161549 -2.2713676298338874
