23
## STRUCTURE-ID: 645bce1f0daa4345f632ebb0 ; CHARGE = -1; SPIN = 1
C -3.090077637984946 -0.7396883704690875 -0.08124399888253747
O -3.7210638619037866 0.10707849924052631 0.4147084358411458
H 2.076963643269702 -2.6693904263085853 -0.464535619736121
I 1.9304489820563666 -1.197353912413013 0.15810570742956426
O 0.4845670054856518 0.7277154551261469 1.8918802160144146
C 4.2178584729561726 -1.479805426323606 0.25676091740256296
H 4.555028586633945 -1.5938582216836608 -0.7681237137851717
H 4.406590752775232 -2.3582945366346144 0.8659655911861618
H 4.622121786207293 -0.5826492581412525 0.7116455432372821
H 0.583716071924757 1.485646027400946 2.5003098735109006
O -0.35106760065212356 2.4973196500491146 -3.1524621083691904
C -1.9819569135610582 2.2191943843367725 -1.0628942646527522
H -2.8528420374954715 2.1088316343532294 -1.6992041727695133
H -1.5049940997636397 3.169133308313938 -1.253246360168749
H -2.26016840227504 2.1195724361542214 -0.020118655243068405
H 0.24990511735265347 2.2621130156181937 -3.8599115427578337
Rh -0.9983131465359241 -1.088776481776734 0.32804526970592957
I -0.6541269375853689 -2.893934730689883 -1.5955782729652532
I -0.6182582003669583 0.7197888343640393 -1.562415753377557
O -1.6820556364929822 1.211793177682574 1.999588954297863
C -0.8069873860269544 0.4718663574363251 1.5517742231139937
O -1.423924686427342 -2.4288791687414215 2.956614488309426
C -1.1813638715896169 -2.067422246893455 1.8843352426560336
