20
## STRUCTURE-ID: 645bc1bb2ca0446b45108f1b ; CHARGE = -1; SPIN = 1
C -2.8853278987184505 -0.2483726182523857 0.6120467269687265
O -4.041607061896549 -0.24397626151649654 1.0286956640196048
I -1.5692707840914126 2.8374620663826637 -2.626086448807246
C 3.295791206976223 -1.109013202937823 -1.6550543581235204
H 4.369933197378344 -1.2897584415562335 -1.6194966134136926
H 2.7575813283498127 -2.0135221414290756 -1.9415637067040767
H 3.0399650896107095 -0.36167938858670184 -2.4060505147930487
O -2.0141586872671713 -1.1599797200422175 1.118085009378326
C 0.6135577201109335 0.3080588377822671 1.541082794606225
H 0.6150531015056262 -0.6709189962736984 2.004749417942739
H -0.24080146412202574 0.8866974833380253 1.8708039922584097
H 1.5443897814601046 0.8349551814689764 1.7183773816044907
H -2.453544545547537 -1.7755604084421899 1.7379066078460024
Rh -2.1956229717109657 0.9803175497925842 -0.7563727333754267
I -2.9409418581252145 -0.8850976130735393 -2.4878116660301397
I 0.40382489154997636 0.01692184567013212 -0.5807711844211682
O -2.222352042091359 2.9229118115050485 1.4981009748061036
C -2.1317587607462047 2.1937250389422047 0.5935847371752708
O 3.2411967829289154 -0.5476353063206469 0.715768783841437
C 2.8140929744462966 -0.675535716451274 -0.3659948647788036
