15
## STRUCTURE-ID: 645bd8b15dac6402ef7e8a96 ; CHARGE = 0; SPIN = 1
C -1.9282081504231572 -0.6951898382346963 2.2674824434548015
O -2.6611914625870456 -0.9673739021043934 3.092409464378305
I 0.3672790749240577 -0.9307687779352802 -1.507124693449003
C 0.4869635058605746 0.931743302857528 -2.6174386122190625
H -0.5166848202994665 1.2126304481443118 -2.922106615817014
H 1.1198317667328026 0.7354962547068796 -3.47673695983297
H 0.9428153601281732 1.6752266399476465 -1.9716022526957995
H -2.553397243879366 2.6605312396172103 1.2243356233834535
Rh -0.7715843967176751 -0.41812216809649694 0.8255967159174307
I -1.8548919445398702 1.9432066932421732 -0.007735469552715503
I 3.9410246766729506 -1.2616562056608842 -2.780543048913755
O 0.3668273970209314 -2.9297834090336283 2.1435316612439888
C 0.3707524091836382 -1.7696944868661149 1.811603512880156
O 1.6914402379600502 0.38864276422216054 1.9617183578150466
C 0.9990235899633991 -0.5748885548064253 1.9566098734071158
