20
## STRUCTURE-ID: 645bc892c2233002716df3ae ; CHARGE = -1; SPIN = 3
C -2.4797442205877576 0.015821200451467194 0.2827299903090416
O -3.5810675190028376 0.34608005323533914 0.19357234759737718
I 1.7999340873559624 -1.0991276935903593 0.06994074379037157
C -1.0804299500687022 -3.2717683815670933 0.9529692519421749
H -1.2315628938776682 -3.1974106749421347 -0.12496023204832715
H -0.1374726440679131 -3.7892618897774724 1.1400170755189287
H -1.8883098259656326 -3.8380967012091256 1.4161948990661406
O -0.9012783424264065 -0.30701921562042794 -2.4064226996448097
C 2.687484747575036 2.8605567288571327 -0.24490011024046265
H 3.2656462159340025 1.966522269654871 -0.05146239625633531
H 1.755567896776937 2.61648279625483 -0.7386335340914416
H 2.4979357307097123 3.404505420722005 0.6706778291359304
H -0.783473615760961 0.04015861695278359 -3.3172686700893372
Rh -0.6621809030808962 -0.29849239571584635 0.3870936333558771
I -0.2406795271123637 1.8512683917074635 2.071733589874282
I 3.8147991992065324 4.108009862600655 -1.548886859958009
O -0.18533116471159608 1.695293166196069 -1.7225816616178589
C -0.5549745494390915 0.5685918129943444 -1.4600900375357262
O -1.106977484544628 -1.7501373169153045 2.808393084952841
C -0.987885236911727 -1.9219760502892211 1.6218837559393104
