20
## STRUCTURE-ID: 645be5dde3991627490fad1a ; CHARGE = -1; SPIN = 1
C -2.441294295566046 1.100477099714629 1.322923917169637
O -3.375278972580777 1.5953034923194875 1.8124274407499277
I -2.3168322513230626 1.4631060279228696 -1.9731449537171122
C 1.3987897717616617 0.6737521904985829 -1.8427563117592667
H 1.879248101763826 1.329491868390853 -2.569632199834978
H 0.715119525013286 -0.005378780110426889 -2.3482448176315125
H 2.1663692133493324 0.09295272929596105 -1.330016284221387
O 1.979023217149765 -0.6989532617990577 2.9356949814473756
C -1.996232537275789 -2.427354556456274 -0.855437052993328
H -1.6249589420509218 -3.1875774307069826 -1.5308269704389075
H -2.3602301251214155 -1.560968897526631 -1.3976060952747558
H -2.757466827178768 -2.816719163574796 -0.19139577990182988
H 2.585922090683325 -1.4637256237059368 2.807318536158335
Rh -0.8562076443746863 1.0195325993374988 0.3193701234147447
I 0.6917930081597498 1.8359546321547742 2.644757994369063
I -0.33773341618612845 -1.7715859181732574 0.3670926669749603
O 2.8053869236177853 0.37395284018754393 1.1404669200072903
C 2.096097240483254 0.2521070558893918 2.081885156867715
O 1.0640202756001818 2.6777162335338174 -0.6041285433500212
C 0.6844656440754705 1.517916862807943 -0.7887487280359521
