15
## STRUCTURE-ID: 645beaa8700e3a011f6ee1de ; CHARGE = -1; SPIN = 1
C -2.232458025467645 0.03529578965869145 1.7059762324740286
O -3.1819691942388704 0.00967369730582259 2.388364717647754
I 1.9694530737983071 -3.490775015558837 0.7874573382361284
C -0.00765306331268539 0.9881349374291627 -2.6743664143605623
H 0.41452779791702443 0.5947173741638739 -3.591847350163431
H 0.6010235198719183 1.776961747611255 -2.2498719358829646
H -1.0377458329260096 1.2981751453782278 -2.7974505134053365
O 1.7112573861919296 -1.1989317404213107 -1.5050637156152809
Rh -0.42203172869872174 0.358542832142195 1.1845849529434773
I -0.05304482802397999 -4.194781951424832 -0.768908724972915
I -0.03189601677100792 -0.6460190534758622 -1.258552313301766
O 0.19182291320324985 3.2787789062531316 1.6756874697839381
C -0.040683749215826154 2.227756459120279 1.2116550614435424
O 1.3748552082019458 -0.6628888714461959 3.4193105766287086
C 0.7445425394703589 -0.3746402567355948 2.473024618544704
