17
## STRUCTURE-ID: 645bbca86ea7c700742fb1f4 ; CHARGE = -1; SPIN = 1
C -3.6035688073267678 0.24212489977161047 -0.18129755239443993
O -4.166045012733587 1.2591415454433827 -0.10440868616810739
Rh -1.5361937717071665 0.005025148864170942 0.09126736484623867
I -1.3178801175043442 -2.287344396947959 -1.3010917733491005
I -1.7878094004976401 -1.1833127048844478 2.52380064509472
O -1.0979871315406446 2.7944701036606965 1.0399911082211934
C -1.2554845313062897 1.6781800441424373 0.7630845915083366
O -1.9254640313394784 1.3775867701769189 -2.4056505403528945
C -1.1159089167957281 0.9304508818232208 -1.603483084555562
H 0.9986686567802899 -1.8449755649230792 1.2796406469522634
I 1.3721558322721126 -0.5424390457292105 0.444880341432781
O 0.20988222481309415 1.0993600552773761 -1.8409573448370955
C 3.4872906108493735 -1.19813700278244 0.948553423180703
H 3.567851176496018 -1.2206576315111166 2.0292335214068395
H 4.1583727411845635 -0.46671730742421863 0.5142554429937573
H 3.625876857365335 -2.1760441608152163 0.5016982255752725
H 0.38624362099086396 1.5332883658578684 -2.699516329554906
