13
## STRUCTURE-ID: 645bb83c9eaf921d316006ab ; CHARGE = -1; SPIN = 1
I -2.4479741488455287 1.9501001272094496 -1.2094219682102727
C -1.4496566163394278 -0.3236493395783737 1.019612467119789
H -1.9349494423183968 0.3809393852839329 1.6961761196310217
H -0.73576435365157 -0.9319249763881147 1.5866681918332626
H -2.2177561362391875 -0.9686471371211693 0.5888544401710581
O 3.945885699739109 -0.8087140747231146 0.7479176758746611
Rh -0.28424296723403375 0.6596604926069028 -0.4378679445120939
I 0.5318323885499145 2.396382167201179 1.3744908786481698
I 1.5472938776149645 1.477758758365861 -2.3454289263678385
O -0.8226642718920487 -1.549222621782935 -2.35026599420963
C -0.6429759654961452 -0.6912459987348141 -1.6120749666560865
O 1.6880617911210627 -0.7979135459787691 0.3796185815572614
C 2.8229101449912926 -0.7935232363600372 0.5617214451207044
