15
## STRUCTURE-ID: 645be9e3abe879581f36ef50 ; CHARGE = -1; SPIN = 1
C -2.0972362096932207 1.5287079374366999 -0.664614083005838
O -3.133890053903202 1.9990108335124277 -0.5548096486153828
I 0.4039911847856627 1.831346518787286 -3.5943743845188734
C 0.4893193767147904 -0.42540186070753677 2.266079063633247
H -0.5263214348322581 -0.3132006263116842 2.6529486071973905
H 1.0053281855016725 0.531030014214554 2.29816735506523
H 1.0182067618006434 -1.1378147184968002 2.9061396299273152
O 2.230297407562365 -1.830171032922597 -1.4468182870191992
Rh -0.4017798187474252 0.8341539931033712 -0.9706044300417106
I 0.8256859640018275 2.6728444130751474 0.45530921231000787
I 1.9755870597245622 -0.23068174589482907 -0.630724698753339
O -1.232215450736669 -1.6593563268426101 -2.38333201824133
C -1.0138844759888184 -0.6929264335180285 -1.8095406544053096
O 0.02053661806173237 -2.0768538252238224 0.5445699217656901
C 0.43637488574838484 -1.0306871402115354 0.9316044147021152
