18
## STRUCTURE-ID: 645be4d7916b2a1f710fad23 ; CHARGE = -1; SPIN = 3
C -1.029046349659089 0.03413223504803541 -1.2994407422061653
O -1.713109281950763 -0.6186952416716099 -1.9797530837978683
I 2.539607850376568 0.025750367429719867 -2.694103639775085
C 0.6120467001431537 -2.4026935103473623 -0.9477637319042607
H -0.26422237804083876 -2.847743815032001 -0.47333207835986807
H 1.5113052744960038 -2.9043773478830843 -0.5744429575031844
H 0.5294688694321602 -2.571321319390249 -2.026441688710295
O -0.9701916763191041 -0.8375625407264248 1.4912730574453716
C -0.5158934458145586 2.7041169155394518 1.324024290601133
H -1.1958432278926203 1.893165975167444 1.0835156697473918
H -0.7695894259937639 3.5984347412583633 0.766059701899229
H -0.4678290143946434 2.8937761667775286 2.3896798455304644
H -1.1076790361447153 -1.1330268325012818 2.416954828024934
Rh 0.8640107488168436 -0.3100285121940005 -0.6611438232523043
I 1.4570854168819478 2.07872574473515 0.6702487182545266
I -0.9623972560563264 2.6228908552695205 -2.4892347756436157
O 1.1764878971614139 -1.3029104836548107 1.882740135668861
C 0.3057883349583274 -0.9226333978243935 1.121160273980744
