20
## STRUCTURE-ID: 645bc69a7fe4b24adc732d4b ; CHARGE = -1; SPIN = 1
C -2.4044647106272703 0.1871824078947583 2.5080834400450582
O -3.2578717963318655 -0.06124769385204534 3.242487148443689
I 0.804242291531288 -0.433608864266054 3.136416694770174
C -0.7786437030299884 -4.510519171109917 -1.788945689299555
H -1.4426029737376966 -5.303550909692389 -2.1508672906595154
H -0.5118848648482703 -4.679878034159383 -0.7368129930903554
H -1.3053445193004285 -3.5336798634988096 -1.7703334106483564
O 2.5938311805877374 2.7976700617604573 -1.3428616114408358
C 1.3671108757446806 3.393687603965466 0.8905553630325913
H 2.443944834225044 3.5049622548071597 0.9327228909980373
H 0.9478429576272281 3.3691565866538804 1.9007091319765517
H 0.9440733908770103 4.2290200844979715 0.3355229325932188
H 2.8832399343694783 2.336318276092537 -2.1315360469192277
Rh -1.000141604546627 0.7546579248894325 1.4513064288752762
I -0.4848485815394636 -1.0464885566208064 -0.5434674776123134
I 0.9130342801715555 1.6334627315588364 -0.11687199045638248
O -1.7312337408468113 3.604541009324696 0.8283482096472955
C -1.5822946553535064 2.468035370230779 1.0722176018113603
O 1.262070466443529 -4.320198040601821 -3.176198579890158
C 0.33994093858437774 -4.389523177874751 -2.540474752176553
