19
## STRUCTURE-ID: 645bece46ecf59741c39f2a0 ; CHARGE = 0; SPIN = 1
C -1.8035251306956364 0.9486417136401188 2.32413443928915
O -2.7123830858606603 1.3142341919243252 2.942898800598947
H -0.4640930095074251 2.7399019838555843 -3.3134243015437175
I -1.1063606110066495 0.5147036608057365 -1.1038709824503405
O 0.03806636880268826 3.012943495983353 -2.5007051350011715
C -0.6644613068134374 2.7228824497034 -1.3135475422402083
H -0.06040883527356595 3.003357873877984 -0.4447273840822061
H -1.6281631189960222 3.234835601005174 -1.3330715979824743
H 0.9644074836205632 2.660135863882199 -2.4943267375781923
C 1.1799775911934776 -3.2490235210368255 -0.4651860175348565
H 1.3746726840810437 -3.942488349488932 0.3571638367107765
H 1.6966838295019255 -3.5294292001913 -1.3787718059423144
Rh -0.4410428448110134 -0.0033353236191384027 1.5759868603350842
I 1.4292340973094453 1.8792524528188135 1.8414306635055786
I -1.0013275444785743 -3.5654702572498946 -0.8827737946003119
O 0.24874815996282723 -2.274705875631804 3.2528952841227876
C 0.5981215759173366 -2.0265683440180706 2.1169554490051308
O 1.4412084899567374 -1.9577542374610608 -0.18463920211729218
C 0.9106452070969243 -1.4821141787996428 1.0035791675056291
