20
## STRUCTURE-ID: 645bda3813d0c854d50203b4 ; CHARGE = -1; SPIN = 1
C -2.3663382048551376 1.8981302789413925 -0.7561852161894386
O -3.3439781971017024 2.3913854975136335 -1.1300864517483635
I -1.7640444515861635 -1.4332259739376685 1.2991421722617522
C -1.6947550081468905 -0.8721439271769907 3.423508832059531
H -2.6575212984074494 -0.45223871343861555 3.6870955191691297
H -0.9118437162142176 -0.13104854917924108 3.5360888090123574
H -1.4799012461155983 -1.7699511020409977 3.9889769406688096
O 3.02686672790165 0.0961287805494764 0.6336302676429058
C 2.503322421689864 -0.2649754837311081 -1.9980255028262712
H 3.208885445744907 0.5094616783344741 -1.7279920404258107
H 1.8970844592210452 0.021829633519023513 -2.849858031898964
H 3.009126981270592 -1.206591854607724 -2.170773910088444
H 3.0242400519559007 0.002435887025721191 1.589239672928075
Rh -0.8272490777089484 1.0489212030390787 -0.27931838160679084
I -0.15548929489376298 2.4394996148285153 1.8356361914695394
I 1.2081507278275148 -0.5342873848929898 -0.3492395442376452
O -1.2740493214058453 -1.980939949616554 -1.5987536860011613
C -0.5389866796424428 -1.0057836850542332 -1.7597486666150426
O -0.2233952022188962 0.9421473211873697 -3.166104740715296
C -0.6401251173144937 0.30124672873743275 -2.2072322328589085
