15
## STRUCTURE-ID: 645bc7b8064c215a3f315fb0 ; CHARGE = -1; SPIN = 1
C -3.096096569888785 -0.3664470903369005 0.3801434268509212
O -4.154566347084089 0.0765567566826652 0.29105279527517314
I -0.1389205500959089 1.130791883610128 1.965193443664348
O -0.3306756324159509 1.2875543016847133 -1.4326788646105875
C 3.8934883007434156 0.956195295026834 0.6098371370585368
H 4.477757366529614 0.585424060310075 1.4326605925659344
H 4.150994728694743 1.879723882405529 0.12329599474279165
H -0.39774434562646016 1.8751322320100003 -2.2114393109678985
Rh -1.2734711315152405 -0.8346274894535827 0.1907689943506864
I 2.2683425962098287 -0.061631002021685775 0.007957429691686557
I 0.1739380230540374 -2.35983416068075 -1.5433833359964095
O -0.8201609292283601 -3.0488343538698235 2.1966786634393953
C -1.0359654591352285 -2.177634623801852 1.4762017170934505
O -2.2981118050429425 0.5870481751131412 -2.169238052675948
C -1.4188082451986803 0.4705821333215097 -1.3170506304820564
