13
## STRUCTURE-ID: 645bb96750e6675d245a483a ; CHARGE = -1; SPIN = 1
I 0.23754521951622365 1.2699073031443018 1.6248747396023973
C -1.7599093091176248 -1.6104947795531257 0.12012969131719174
H -1.6253430136189844 -1.721360714999124 1.2009998911709312
H -2.1361243417679248 -2.549667178128073 -0.28407620639557246
H -2.4669336222409237 -0.7991435675162517 -0.044110556627031595
O 0.8890544378012215 3.4512623961537603 -1.6770757951186939
Rh 0.9727772777519338 0.006450395418914963 -0.6645361978056977
I 0.2607559363958741 0.6076240714721072 4.411567266486582
I -0.3140155920088616 2.234918683444005 -0.9527855387711629
O 0.36381694613144594 -2.1184381807032753 -0.9212973111069481
C -0.426400828609407 -1.2975209709222117 -0.4559375257565036
O 3.4354535285022214 1.6256545335826633 -1.3169955312248878
C 2.569323361264805 0.9008080086063079 -1.040756925770606
