20
## STRUCTURE-ID: 645bc27fcebe3e0aec0fad23 ; CHARGE = -1; SPIN = 3
C -2.0106561092444535 0.6054694201031635 -0.6982845363851777
O -2.7354105038031777 0.9360999617483255 -1.5692083507267596
I -0.9107130016645136 0.15164398703238513 2.721837911534552
C 0.6551287298083406 -1.1673780987075477 3.4977601888774834
H 0.37849823355988454 -2.1828450806776987 3.2366283038584585
H 0.6862946405201354 -1.024380492684034 4.570980598325207
H 1.5901115917416573 -0.8771237087043551 3.0301553641265238
O 0.6745270153890667 2.764126431902488 -2.1375226067697013
C 0.19343890777600756 -2.454513871125461 -1.2467935621950943
H 1.254162190290427 -2.6018360080166945 -1.0876065800599684
H -0.04604586851533889 -1.3906125027776306 -1.263510885245631
H -0.13364691627771627 -2.9169539088917262 -2.1685691065681154
H 0.94372812370956 2.8710155548685186 -3.0736751945039194
Rh -0.24444321827932897 1.1073454838210377 0.018754190089238832
I 2.3275679696831304 0.5226034469367519 0.3799123805735606
I -0.8573480713458284 -3.348355161374265 0.36702687566562686
O 0.17513497281896054 0.6925416232334676 -2.7822311695759026
C 0.2210376710222485 1.524356134146541 -1.8823875121153748
O -1.3384163480531066 3.841912563109516 -0.23310319246760866
C -0.8229500091359842 2.9468842260571333 0.319836883562736
