20
## STRUCTURE-ID: 645bdf68ab249e46bf5c3533 ; CHARGE = -1; SPIN = 1
C -2.7308577692877223 -0.09608292511454411 1.1703969131818968
O -3.7706389445124344 -0.05707890255276169 1.6484110307431192
I -1.3433283504811717 -2.8870541892420887 0.0661990487973061
C -0.2047386874257028 -0.3576463903984015 2.194451282179695
H -0.5258190661291106 -1.232227888324455 2.762035863893247
H -0.3304272951058385 0.5239495001896904 2.8275724849130124
H 0.8618848176007718 -0.4734407023096926 1.963138307838253
O 1.3168471847987024 2.7418286868375032 0.6517682639355721
C 1.551828556240223 -1.7277919817334357 -2.568157645025774
H 2.32209345841985 -2.081733238693917 -3.2398608457288685
H 1.201784701175573 -0.7434827337615968 -2.855450251728202
H 0.7279569468403437 -2.430034054668762 -2.5153393817362066
H 2.2636060039656063 2.7828314027616012 0.40337296670134637
Rh -1.1407752882900597 -0.20729313183519585 0.3217978260598333
I -1.9649227521304486 0.28847793149942763 -2.196364103666724
I 2.403322179348742 -1.5654693944146338 -0.6171011149947551
O 1.0941957145446595 1.216095144463082 -0.9723484619514616
C 0.6229141226117877 1.892468936363315 -0.07584539077524279
O -1.5323382996164046 2.6760696666306854 0.6532923205445645
C -0.8225872325673864 1.7376142643041836 0.37803088681938757
