12
## STRUCTURE-ID: 645bb399b2270365620fad1d ; CHARGE = -1; SPIN = 1
Rh -0.6010700783116623 0.3636573004929799 -0.3933469018365211
I -1.8678564065077892 1.2232645513354126 -2.4330110882393106
I 1.922545761444362 0.7742315596530285 3.4940273822035586
O -2.804001396230283 -1.489772886600233 0.904488579663079
C -1.621814532979764 -1.571890285609097 0.6130765711536817
O -0.05428736082563108 -2.3770532864783274 -1.0802138074470122
C -0.8099337756189545 -1.6260024556697263 -0.514160203585621
I -0.02719466494893077 -0.7291011221013955 1.9042373498571907
C 1.2383367497899282 1.2253973619676608 -0.6026144283147149
H 1.420444214796721 1.4265335538536559 -1.6617086319709016
H 2.046559859397028 0.6154108748492286 -0.19418497238429536
H 1.1582716299949936 2.1653248343069005 -0.03658984909914549
