15
## STRUCTURE-ID: 645be6aba19cd96f8074b44a ; CHARGE = -1; SPIN = 1
C -2.2527005604345147 0.3195399655072045 -0.19860563031459488
O -3.3400559964066843 0.1077041072347705 -0.4825529269176444
I 1.3727046960890144 0.8739895002723808 -4.508239312129534
C 0.28321158267575397 -2.1621399851006804 -0.5183389962263334
H 1.3522805030492704 -2.0546898140828063 -0.7183844148427314
H -0.25189963386224623 -1.9886630930089715 -1.4516342136855276
H 0.10961166202584038 -3.1728911136467994 -0.14952117911240817
O 1.930063700737576 1.821760079698584 2.8037897783529546
Rh -0.5400258980085791 0.7638790533515049 0.4213787430479071
I 1.0983909431013625 1.0649937968356302 -1.703268987089969
I 1.9402895043257824 1.3044288817973677 1.0088746136567375
O -0.7028057551774392 3.252000836775655 2.0521764197720334
C -0.7548413392055138 2.5176937208820744 1.1603747278192165
O -0.13333237192168795 -1.4774875092932047 1.7378239464664151
C -0.11089103698792686 -1.1701184272226954 0.5461274312034985
