15
## STRUCTURE-ID: 645bd7b998787d666b36ef4d ; CHARGE = 0; SPIN = 1
C -3.134671887030945 1.6017765052977424 -1.13832767328574
O -3.9421676222291064 2.274485633457261 -1.5954897601963287
I -3.307149734842729 -1.375422920811908 -1.7257809173005003
C 3.2090725648740843 -0.7445363399570307 0.17658325914636963
H 3.757421066964373 -0.5921901842693128 1.1065337596088949
H 3.732614945892418 -0.2938063711616463 -0.6672870293271406
H 3.1292432881801733 -1.8100956469977174 -0.05046878118931005
H -2.406342589713865 -2.528892628960249 1.481340078994914
Rh -1.8648985650466723 0.44618077877162243 -0.45451875190149676
I -1.4051586647798449 -1.3338545349748403 1.7614917633869074
I 0.6767686660536896 -0.4055177366044462 -1.6633770177705933
O 1.2710554927206392 0.3280822015650623 1.1671721641118458
C 1.8807189032560114 -0.185762339956385 0.30568395305167806
O -0.5588793997134972 2.7670786017115216 0.8958376358736827
C -1.0376264645847084 1.8524749828902998 0.40060731679684114
