15
## STRUCTURE-ID: 645be1ec129b004abf60069d ; CHARGE = 0; SPIN = 1
C -1.6934647040176487 -0.3207933850954646 -1.72898299894381
O -2.681329651519324 -0.733995483435869 -2.1174715413900165
I -1.3935626024679915 1.7980411952910897 1.1282482608898772
C 0.5446619707603935 -0.6037410854767185 2.0124827275064776
H 1.0666348848303013 -1.5411572884889095 1.8074662673189605
H 0.16577910147899994 -0.6416483611874529 3.038101709857301
H 1.2285054352018407 0.23734373676371368 1.9342166201980047
H 1.8976594481820808 3.1533372569092597 -0.6386925791689396
Rh -0.10865637344366932 0.33857272208312794 -1.0429672792092328
I 2.277835660534977 1.6131227663759642 -0.5905540215703713
I -0.9202136008323059 2.2001919209556826 -2.9783519713095776
O -1.5405658856841633 -1.2889544050418693 0.9889550379028723
C -0.6402035528658495 -0.5227084013101775 1.1322275587640251
O 1.1008497994902722 -2.3572645303825035 -1.6166879690289013
C 0.6960700703521808 -1.330346657959948 -1.3279898218169275
