15
## STRUCTURE-ID: 645bd605eaadd2297a315fb6 ; CHARGE = 0; SPIN = 1
C -3.359275190223176 -0.028101023970407472 0.6659579881817353
O -4.218926819982873 0.5732721038822397 1.1377054212861957
I -0.2309162819499112 -1.9136050124671082 -0.0341712823750484
C 2.8858649736379 -1.457118694210531 -0.3326014614310495
H 3.7707069266331876 -0.8221800368553526 -0.391731256295676
H 2.783325242376481 -2.067259735766216 -1.2324913378648905
H 2.969491097788092 -2.1566199984304113 0.501393037909868
H -1.8355583249822105 -0.34073781234890604 -2.8799937061807612
Rh -1.3945120503473636 0.678691178310989 0.4312527403886623
I -1.4800297717391446 1.0927667045282623 -2.2734709749560715
I -0.7632149475030607 0.5034134314041633 3.021011245125109
O 1.4770290706640556 0.5130687664615536 -0.09089858819533314
C 1.7129562706220447 -0.6322254683835642 -0.16644137412137755
O -1.1160236908337415 3.593845444643376 0.9207315324701769
C -1.2009165041603127 2.4627901532018917 0.7237480160584878
