20
## STRUCTURE-ID: 645bbede8daf1047ef0203c8 ; CHARGE = -1; SPIN = 1
C -2.33051195431825 -0.46179812718741525 -0.04692235170249089
O -2.816321986166863 -1.4601338507821824 0.2654059888561804
I -1.5556130582113257 3.668565021708042 -1.486590426835137
C 2.126521673891508 1.5878537471258303 1.4789036631596928
H 3.012664947692031 0.9878062888068644 1.674995050932488
H 2.39201662135583 2.590171712501595 1.149151577930701
H 1.5603372124396853 1.6327502722827303 2.410987434761964
O -0.2060280096703245 -3.1828569090134557 1.063977005665514
C 0.6237034745703183 -1.6672349360988 -1.004042098135689
H 1.4146762201025456 -2.3957319051047694 -1.1205035809163786
H 0.8116190110921669 -0.7675130668713965 -1.577965288026776
H -0.3303697790397201 -2.1105512419447754 -1.2586214507304734
H -0.23877139163435315 -3.559921032581562 1.943768439121556
Rh -1.7684801914188442 1.196714586354054 -0.5941239934714656
I -1.873927694159458 1.8909285507606142 1.9367466744438315
I 0.5556533101111846 -1.1368029462494733 1.0488473598327908
O -1.7911090647251242 0.3212948775682083 -3.4455336702564527
C -1.7761200528221273 0.6647412570560641 -2.3440133903347062
O 0.8980671125086548 1.3108258242163258 -0.5797010387568758
C 1.2919935984024524 0.8908918774534896 0.48523409446172416
