20
## STRUCTURE-ID: 645bc3aa429d1e78bd6006ae ; CHARGE = -1; SPIN = 1
C -2.5055707200382393 -1.0283062876963491 -1.633142329159679
O -3.557405509836089 -1.4231820553071637 -1.8903046565953914
I 0.2335164018157211 -2.941925076888629 -1.2547445997497924
C -1.3363444564041034 -0.6701332671847888 4.667720379750434
H -1.3936343088161458 -0.7902361379246963 5.756011198289057
H -0.7289145673187287 -1.4662173132348204 4.212940631359676
H -0.8119979297725609 0.25846193120542643 4.391912405995232
O 3.7112367655739527 1.7648243711784373 -1.1390985400616847
C 2.2719724536948616 0.6483384463959789 -3.0208143087808232
H 3.3080304435001238 0.33243501928931973 -3.0183669758488842
H 2.208059958729583 1.6551262960862438 -3.428560922438871
H 1.6682248206877863 -0.03579277240089551 -3.623391223914667
H 4.0176983698568804 2.061854960170847 -0.2808106251903181
Rh -0.7868604173029551 -0.3900689565760964 -1.4098102435319428
I -0.3405441642176578 0.06424293688405786 1.2379032758532005
I 1.5837778124410564 0.6844624192692258 -1.060952177853413
O -0.5758335179475607 1.702353621993977 -3.559753423973519
C -0.7945586639208136 0.9190862568176925 -2.7159611194979183
O -3.605570144899217 -0.6775061628560252 3.67651427890069
C -2.5652826258258927 -0.6678182292217443 4.092708976448582
