18
## STRUCTURE-ID: 645bb710c1faee09bf732d43 ; CHARGE = -1; SPIN = 1
I -1.3345776598423456 -1.624799254979085 -2.2021141241034132
C -1.8044753246349432 1.0210394426138087 -0.0894772271725568
H -2.592822296068186 1.2849905029784117 -0.8021009041194883
H -1.7105541241784274 1.8579731797766135 0.6138842986779158
H -2.155602532819954 0.14612390417019838 0.47700080925685434
O 0.9475815298932633 -3.4767690700203233 1.9004143317129856
C 0.7972356364519099 -0.8524990230812485 1.5516944629866554
H 0.3363213255984418 -1.0377547221002006 2.514150290001991
H 0.4982058134068717 0.11684753246955377 1.1317246515863606
H 1.8769459101113086 -0.948920572604197 1.58963473858913
H 1.0014299391307595 -4.4217659747596025 1.718808307514167
Rh -0.008040052708670887 0.5355118298076194 -1.0785175306134516
I 2.4257992287223886 -0.36682368089116335 -1.7541398773475638
I 0.15197064816190584 -2.4537789347722163 0.3254525649231896
O 1.1209520623237093 3.0872193437802276 0.05332456040552638
C 0.6103532984281961 2.3314018055806 -0.7655919808739177
O -0.23997863564440902 2.56631619352035 -3.151101530823985
C 0.07925523366830951 2.2356874985109116 -2.03304584060061
