15
## STRUCTURE-ID: 645bbde9975874626b732d40 ; CHARGE = -1; SPIN = 1
C -2.2718229363526996 -0.6285121529256436 -0.501166043270421
O -3.293360205683235 -1.122182342386436 -0.3716502703428325
I 0.8824701615709687 -1.424603594935894 0.6568940468200473
C 2.6262784661069083 -1.619374556883762 -0.347693137431495
H 2.702169852246488 -2.343248694513157 -1.1383566011600974
H 3.521554746822234 -1.1903271925213261 0.06203962943140262
O -0.25105980060899785 1.4506708968284847 1.7230829041620586
H -0.5065034084605485 2.0542366364006472 2.4519196291453333
Rh -0.6635538699783378 0.26931986505793104 -0.8341370995841964
I -0.4377365691737607 -0.9399342596377714 -3.1966418632073466
I -1.315137467701876 -2.0472748194535684 2.8640750128667207
O -2.0414687941318825 2.272969138592704 0.690651011843707
C -1.0979378071372436 1.4988299724230265 0.6905410221479257
O 1.4592351562889456 2.285916529647889 -1.509583021675241
C 0.6868724761930399 1.4835145743068778 -1.2399752197455782
