15
## STRUCTURE-ID: 645be408d81f9a5b9d7e8a98 ; CHARGE = -1; SPIN = 1
C -3.999452884576308 0.4302768009663188 0.12381290658829504
O -5.13106109398961 0.15584056765875529 0.17876735328490778
I -1.2696614143319667 1.6025422552430106 -2.7026079788715447
C 3.8031842922223658 -0.9638476700645164 0.8508863180656994
H 4.7030006142239795 -0.977822331512422 1.4784757817452263
H 3.691747477195994 -1.9184633052167277 0.3199963426424705
H 2.895715217574983 -0.8654180286146322 1.4733858267055633
O -4.095984616462513 -2.236924198422881 -1.7571021228877273
Rh -2.1896950554064714 0.6178150295312422 -0.20395922524585508
I 0.14976991840797282 -0.5171117569718349 0.32233737903440896
I -2.4139253673584795 -1.8282199092154088 -1.0441260134568335
O 3.9103917628125378 0.9189334143716911 -0.7569795328150396
C 3.83379207317272 0.06622862664121912 -0.03503203269188021
O -1.9114506635045259 3.277557427778797 1.125255103455018
C -1.9763702599807227 2.238613077827309 0.6268898944476684
