18
## STRUCTURE-ID: 645bb38bbfde853b096ee1c4 ; CHARGE = -1; SPIN = 1
I -3.372606768944008 -1.0373837972789952 -1.8096200950308765
C -2.147646233501036 -0.32410292112727573 -0.17819722483554798
H -2.488230920591965 -0.9063465889465775 0.6841408043314404
H -2.455323078002408 0.718719034537704 -0.049365728418409374
H -0.24638285561274811 -1.9825721905469194 -0.32515028409153196
O 2.280408914493749 -0.5324792420547966 -1.2476656455180586
C 0.4126586915534455 1.5617846408956446 3.2886422595615254
H -0.51851554364383 1.6917594255933779 3.8266790024408786
H 0.5027588419285329 2.278810882188621 2.4789942515164203
H 1.2669259640644768 1.6040094091875268 3.9532637424582493
H 3.165088395159543 -0.9504707041161574 -1.2180226010130994
Rh -0.11443195811337965 -0.4345740958058701 -0.3649145081702324
I 0.2490005599607788 2.1842781275047756 -0.5603677621740225
I 0.3806990748666198 -0.43636350871879764 2.399948261431374
O 1.968262812284238 -1.7926339609709587 -3.074922409548019
C 1.5451743123076047 -0.9653070013801845 -2.2942026138140936
O -0.5466811308561003 -0.22167824463100244 -3.2475521070392745
C 0.11884092264657482 -0.4554492643301057 -2.2616873420868275
