15
## STRUCTURE-ID: 645be3bd9053a518080d4d5e ; CHARGE = -1; SPIN = 3
C -1.8499658991803116 -0.7253052846131189 -0.5392048639749416
O -2.9795731002935124 -0.5351906880420212 -0.6160306342203368
I 0.16192629208205025 -1.6491846246106923 -3.1348715864179635
C 0.6678040483086243 1.657524078664865 -1.3236022015265336
H -0.11885551357261372 1.6642337908470832 -2.080008827484158
H 1.5566812586574763 1.2128142168444176 -1.7724363818045457
H 0.8859363146650547 2.6769414780326746 -1.0055899405549729
O -0.5105591345415641 -0.9038103872439703 2.455979688161789
Rh -0.04844679951017443 -1.1249944066399256 -0.42080798134298736
I 2.490021784118683 -1.408159020563081 0.211242638815433
I -0.7737878713894303 -3.6395390814296116 0.3544253084422567
O 0.3744965353644404 0.6538871721575141 3.881065968133945
C -0.06591536636855512 -0.11434565294000003 3.160157737280769
O 0.004753440840236366 1.368027307264014 0.9547056681490623
C 0.2054840108195849 0.8671011022718202 -0.12502459165684698
