15
## STRUCTURE-ID: 645be4227227f34c42507c60 ; CHARGE = -1; SPIN = 1
C -2.7250186464808075 0.6637961350489472 -0.7197065808103683
O -3.7658872401506036 0.48676842761138606 -1.165022235379423
I 0.8528217159152726 0.425479520714098 -2.179485235905924
C 2.1188948004031842 -1.02408328481657 0.4375548566630585
H 1.4386903725606603 -1.8206489718828676 0.13758214132673494
H 2.381487611189069 -1.1402094936243965 1.4913347597375723
H 3.0240067255344125 -1.0885575607446953 -0.17256918812655617
O -2.3714095410786813 -2.2322300760916174 -2.000386751670577
Rh -0.9691764046744026 0.5310886695319333 0.02935697494998726
I -0.5476893329219195 -0.2695307751391644 2.604570502709839
I -1.5603671300162487 -2.011884492884011 -0.3390642754697151
O 1.9168714052507398 1.3922116922505918 0.617498859016344
C 1.5769144164962887 0.3240858834134821 0.2490407162464114
O -0.6276277746305194 3.4390479415004944 0.6189893345284937
C -0.7425109773964672 2.3246663851123546 0.3903061221841387
