17
## STRUCTURE-ID: 645bbcae90975516fd5c0138 ; CHARGE = -1; SPIN = 1
C -2.8541418914548404 -0.8805890219480135 -0.8405532759005304
O -3.6228874579724057 -1.7172139921151146 -1.1195376893902584
Rh -1.8209473035207744 0.6339859701607045 -0.6790606667347342
I 0.7429996857065745 -0.32383084734999723 -1.1686759478104025
I -1.4495313794233937 0.4629095794677395 1.969333422644017
O -1.6061517053548704 3.6020755216576017 -1.0255149927469294
C -1.5911653115251683 2.4568016490483586 -0.7887212678565024
O -3.6448771462553218 1.3499306234855237 -2.8651606371839065
C -2.5421789793823315 0.9195366643679517 -2.521668413684638
H 3.4263276843215698 -1.3071281687934757 0.7694477466223646
I 2.3894380695287745 -0.8410645287318659 1.883659870553703
O -1.6753263659315811 0.5783560046304187 -3.519056141057411
C 3.9188607307548664 -1.3619134858940374 3.4066436431810976
H 4.12217224303635 -2.4248672561504527 3.315460875409777
H 3.4773306503560937 -1.1290052634544094 4.371329583035397
H 4.79299330132528 -0.7461235244656169 3.2165795877156738
H -2.062914824208717 0.7281400760848846 -4.404505696796975
