20
## STRUCTURE-ID: 645bddaa02d1454f7c554ee7 ; CHARGE = -1; SPIN = 1
C -2.5188507630451396 -0.2297969042563707 -0.9058915091341
O -3.546223849022889 -0.3486184589285319 -1.4037883357862067
I 1.133543153019952 0.13584460017393912 -1.970502542443271
C 0.2302441672781683 2.974737081739594 -3.0103616880447657
H 0.46881691177713203 3.384448474135469 -2.023121690765693
H -0.45759909179025354 3.647338747970061 -3.521566062887074
H 1.1718427404428977 2.8629117253035865 -3.5451091799967993
O 2.0844364173423284 -0.6625226103430572 4.178490869773366
C 1.0761072236117746 -2.4674821075586393 2.3910850393093335
H 1.4175648636927751 -2.82333457858971 1.4239730307058904
H 0.17707322706440937 -2.995198785710293 2.693519288877402
H 1.8459350869343445 -2.577687590518854 3.13814479155541
H 2.286643998099828 0.18812895044122305 4.5675545825041945
Rh -1.0034091635076179 -0.33989251004900556 0.18430662510407003
I -0.8192996483175982 2.1942737905328853 0.8111094109820959
I 0.6420757741229478 -0.41044408683080824 2.2516811897613582
O -1.179299002753729 -3.3248770894590556 0.2599818694417204
C -1.1066456609908704 -2.170305393897483 0.21429568219936687
O -1.4883834023458784 1.258760251311389 -2.924424261265274
C -0.4145729816125836 1.7037164945336758 -2.8093771098910025
