20
## STRUCTURE-ID: 645bded0262e5f6d9a36ef61 ; CHARGE = -1; SPIN = 1
C 0.04793999978989418 3.0775472102633303 1.7022071725879555
O 0.6027934170402649 3.7811439359906234 2.487777861529125
I -0.3588574017050006 -1.5852527871051123 0.28950657917587647
C 0.5130226732504993 -4.684519860450753 1.7529416633803145
H 0.9365332298730067 -4.126129310460244 0.895608373807149
H -0.454925248282245 -4.17229613370603 1.89770789614992
H 0.342252637815032 -5.729118448371446 1.467924504505927
O -1.9225687520678942 1.7149007863024994 -2.582952915895486
C 0.7717130583938598 0.5157111883385596 -1.8034545586379795
H 1.0616817216626564 -0.4863547859932072 -2.111251919390385
H 1.4377089123786162 0.9229566269101839 -1.042484238901748
H 0.742643916841883 1.1981729577269449 -2.6490877545297087
H -1.9094410812165856 2.629839313747326 -2.308385614897713
Rh -0.7680961879937171 3.05628688234137 -0.0013873536724244603
I -3.4121769636586086 3.8068406571500133 0.19120367305191907
I -1.299404504296571 0.5889714035745784 -1.0467702286392744
O 0.41507416886099063 4.7118852796906285 -2.2292492295529933
C 0.007381028027503579 3.83354598041757 -1.5097186204997735
O 1.9506788347118003 -4.489749116833645 3.755227889211194
C 1.2960465405743617 -4.564381779533392 2.8446368212183146
