10
## STRUCTURE-ID: 645bcca41159351a915a4840 ; CHARGE = -1; SPIN = 1
C -1.3123972772605756 -0.1096785938980593 1.3240150807391387
O -2.167240648870128 0.19131778955423273 2.019009789837434
O -1.6667277601431258 1.2933910735093426 -1.525913378788148
Rh -0.04667994747890918 -0.39172536908253347 -0.027422707176849803
I 1.9209877159145283 2.4734030317720737 1.6370825704624632
I -0.3463817446973887 2.11780997172093 -0.3765184773089488
O 1.648300377002089 0.05669896593512286 -2.4671508200481975
C 1.0941203054177389 -0.19433260066257402 -1.5005154636312166
O 0.5755536507085373 -3.256845531227547 0.5930963506282809
C 0.3004653294072385 -2.1800387376209946 0.3243170552860422
