18
## STRUCTURE-ID: 645bb80db78ddd7dc12b1b64 ; CHARGE = -1; SPIN = 1
I -1.3541569905997364 -1.8859932408373954 2.5514622453179223
C -2.3768157048949385 0.5226190057457457 0.29279961013549927
H -2.4078390371266933 1.0702152883703755 -0.654117978953978
H -2.7662240843492936 1.1750887479250416 1.0840067506673465
H -3.049702125926657 -0.33553158017187923 0.20412322484050216
O 0.29937881026992735 1.3383864356578763 -0.4891890730604725
C 1.0665037426393063 -0.8678644803073083 -2.6924451278347417
H 2.0225638484802095 -1.3677165102815252 -2.585048876006992
H 1.1292970311006794 0.1766622278551445 -2.4032390117179663
H 0.6551281628414407 -0.9896017044973762 -3.6875308039362418
H -0.1258636404408899 2.1935443904672316 -0.38438397325003876
Rh -0.41818469334621994 -0.078430383728641 0.7853650055442041
I 2.878865701927486 1.6852948167340474 1.352472165404247
I -0.31680643777917356 -1.7781583904967146 -1.2890038631701464
O 0.12149081816571915 1.1323588181382038 2.37960046623763
C 1.1993448049340665 0.514858193491628 2.138445698304412
O 2.0835568895696976 -1.7298248040765445 1.713199315952256
C 1.35946290453505 -0.775906829987965 1.6834842255265985
