14
## STRUCTURE-ID: 645bbb8c6d185f1d362b1b6a ; CHARGE = -1; SPIN = 1
C -3.4738120810438256 -0.46650105835242417 -0.5378610314716887
O -3.769982516996562 0.30132158726083513 0.2849673554000919
Rh -1.3847916495157468 -0.7117512614339492 -0.7475742016594936
I -0.9583220442321518 -2.7249851204138786 0.9903788725659598
I -0.6553804690742533 1.1163796885567734 1.1951618886971083
O 1.5424094822265677 -0.26795427750672046 -0.2293459129152172
C 1.513311476325594 0.5526008552511724 0.6114537703613141
O -1.295955255082336 -2.7416481913823696 -2.895900856834229
C -1.3626217345754874 -1.950942114657029 -2.059209697641151
I -0.8921356703821621 1.1263926276470333 -2.652866677715218
C 2.5077569602077414 1.2951591688179076 1.3642176173132836
H 3.5039462684709415 0.9733984769876629 1.0608707702379865
H 2.3727294416522478 2.362711946253821 1.183729106942483
H 2.3528477920194493 1.1358176729711595 2.4319789967187413
