15
## STRUCTURE-ID: 645bd44f555e1335b20203c3 ; CHARGE = 0; SPIN = 1
C -2.521943172769956 -0.07975614925731578 0.050094673060702075
O -3.6034555737988514 0.1161015899963632 0.31119228425112366
I -0.8643073895439475 2.542565645416403 1.037555416146456
C 1.7946174045136716 -0.0904823420456489 0.8359067873117909
H 2.4318849842397965 -0.9252080477721961 0.532844661852991
H 0.9054244446494171 -0.48243773359998876 1.358187961299445
H 2.3546174437524656 0.5480101452611873 1.5224739528171918
H -1.0475851411265757 -3.528301445265661 1.172590529404203
Rh -0.5643243587904986 0.42264386452612124 -0.5250511868329211
I -1.4049330651754395 -2.349217403869303 2.154172605341875
I -0.05683621501181061 -1.7353457450072056 -1.9508181738954573
O 2.171587230702932 1.3408215590269983 -1.0822607330521912
C 1.4616716588383623 0.7071789367884173 -0.3780994765918462
O -0.5375348093303692 2.0724621384580857 -2.991692751763593
C -0.5188834411492027 1.4409649873437436 -2.0470965493497757
