12
## STRUCTURE-ID: 645bb3a73d3f6d3fab2b1b6d ; CHARGE = -1; SPIN = 1
Rh -0.23813954949912547 0.21769197009767471 0.657158031995377
I -2.106631186114761 1.2602927830380484 -1.075995920361913
I -0.26101689636649367 2.2353037971536516 2.379110269112619
O -2.6151253119605844 -1.2832974637988472 0.7569974872776966
C -1.809390375097481 -0.9846323097471482 -0.07803382771997104
O -0.08533065571059402 -1.8393054640041229 -1.5761940891447568
C -0.5586520400319474 -1.211290476782203 -0.6724980712329532
I 1.0802881299217124 -1.3988678879179635 2.224810395090868
C 1.4354294622234685 0.678588668479666 -0.5182094736858762
H 1.1257068585053316 1.3618637596567056 -1.311852188525492
H 1.8968102687784625 -0.21250836716332955 -0.9441722710457645
H 2.136051295352019 1.1761609909878672 0.15887965824016045
