17
## STRUCTURE-ID: 645bc2612a53536f0232ebb0 ; CHARGE = -1; SPIN = 1
C -1.7243376073637804 1.4290967652235715 -1.8469421291446302
O -2.2676313855416654 2.228354617733029 -2.4793719442916515
Rh -0.4217556262769378 0.4455019095760645 -0.9260959953695013
I -1.1346214157297163 -2.031175391381603 -1.59049108120215
I 0.5975162576649246 2.1009559872449057 2.218425231623189
O 1.9839898471836244 -0.8571086464887068 0.44661794487688866
C 1.301547903256217 -0.1724040012756418 -0.2885379640875446
O 1.3543864464847217 1.9789703894818014 -1.3483138647312911
C 1.7095049328822833 0.7802050065269552 -1.358726867868034
H -2.8912066347306675 -0.9437147318898279 1.4669235082176517
I -1.716364867701334 0.22175557412027494 1.586232725919706
O 2.3273085000938085 0.24693713933279765 -2.4347146343931168
C -0.5136063886341213 -1.3936458933970317 2.3466373111883905
H -0.6524541420109643 -2.2285912884911734 1.6660501146339597
H -0.8661737946600943 -1.6181283521503982 3.3475267532805977
H 0.5255649724973254 -1.0813567027864115 2.3558896040470128
H 2.3883330025863887 0.8943476186213888 -3.1611087126994715
