12
## STRUCTURE-ID: 645bbcf88714b776bd315fb0 ; CHARGE = -1; SPIN = 1
C -2.4690295971777205 0.24895605084312697 0.24429610799752274
O -3.596883078087688 0.34914884818181 0.43658444260254087
I -0.4399606591086277 -1.2451669210850522 -2.595499509283174
O 1.94022067761806 -0.9116608476732003 -0.29310686406302394
H 2.90941552011355 -0.96041390557129 -0.17478154914990385
Rh -0.5892974843047887 0.1867604802499884 0.202034541850509
I -0.6735273618482179 -0.568524611671614 2.837404765486732
I -0.6933870476730761 -2.86703185598879 -0.42792710879275625
O 2.16654609243875 0.9186975805859604 0.9420974044828667
C 1.3994766946614359 0.1648148145699254 0.35819054414670515
O 0.22186863185832673 2.8612404212832154 -0.9119158364918521
C -0.1754423884899988 1.8231799462759302 -0.6173769387861903
