20
## STRUCTURE-ID: 645bc328c29c852b3e108f0d ; CHARGE = -1; SPIN = 1
C -2.3259851235702826 -2.270111838581495 -0.0030618183030802883
O -3.289053977873208 -2.8633777066665873 0.1840172362370742
I 0.6461796948997277 -2.2074216355898137 -2.7872419107975253
C -0.603610907705532 0.18611082383147595 2.505598175899601
H -0.7292146347868563 1.1169281254473473 3.0587202328692467
H -1.4495254094241359 -0.4610986082141828 2.7412859119278687
H 0.3195975908585298 -0.3047904943680958 2.8061095267864546
O 3.431280052997315 0.7838076588300208 -0.7755770409765455
C 1.0267937329633907 1.7777088577818496 -1.3001184984369427
H 1.7880893405118476 2.5359912808292093 -1.1875631306595666
H 0.03883499106461063 2.1467406481366047 -1.049578177850279
H 1.0597829911398615 1.3598866387249653 -2.2997112568454066
H 4.154602443850601 0.2216805264648041 -0.49412399897290565
Rh -0.738045969122715 -1.374869428841407 -0.3566315614239083
I 0.5065527461480148 -2.9731228318596035 1.3226967437279844
I 1.4835816034175344 0.22585209013641475 0.05927876037787474
O -1.9660182592026418 0.40473355629660634 -2.417872746103374
C -1.5343321599519328 -0.2862120726016032 -1.6131060741737282
O -1.2375299590629316 1.4530646900937219 0.5672116880984194
C -0.5819787871511907 0.5284997201497782 1.0396679386187115
