20
## STRUCTURE-ID: 645bc5c9b40cb769606ee1cd ; CHARGE = -1; SPIN = 1
C -2.4103318004087884 -1.0969826596897292 1.881912724768894
O -3.3931381433616044 -1.5461351793365679 2.265141706349805
I 0.5187859166358659 1.3394983565537644 3.3227399876908614
C -0.5565192011976998 -2.091053129712793 -1.409477320821751
H -0.641806416904339 -2.117516765279339 -2.4958377377471304
H 0.353903737953932 -2.5964197585885014 -1.0941390848244361
H -1.4202213831187354 -2.6106852441607202 -0.9923129831453
O 3.4454465133993333 1.0464408384843944 -0.16597958900118365
C 1.0713391225513136 1.998158719909224 -0.8777555888821061
H 1.8620328725185997 2.2648784289968473 -1.5640273525217776
H 1.072619612770801 2.668767704441599 -0.0263121173848401
H 0.10182854688562787 1.9626022351522787 -1.3613468272026763
H 4.154566378177866 0.5199032427495819 0.20606347679086806
Rh -0.7937840024139324 -0.35730039391099916 1.3457134147056713
I 0.41388900870441286 -2.6118258501425005 1.9636362359011628
I 1.4911094024088525 0.05375472961902707 -0.16458281187226628
O -1.98266422293387 2.320383324062181 0.7625667025476032
C -1.5659864573150983 1.2769404454053919 0.9841445765322824
O -1.1752503643127699 0.22173787556814903 -1.5900468373794707
C -0.5458191200397671 -0.6451469201212833 -0.9901005745042529
