20
## STRUCTURE-ID: 645bcbdb73458f0c62315fc1 ; CHARGE = -1; SPIN = 1
C -1.7418394293004018 -1.2545511353091268 -0.6361935384891068
O -2.1542131790581256 -2.082646833456676 -1.346529041105205
I 2.4294182688426953 -3.068865638650777 -3.273536632836754
C 3.5042918017110223 -0.738070745006029 -0.9600697383830029
H 3.1417242499092155 -1.5327089333340798 -1.726152382655058
H 4.505176297265277 -0.43717068870230125 -1.2754093882051938
H 3.537667413317035 -1.2570136535853647 0.0006665784618954236
O -3.048697239198738 -1.2437649450805928 2.9943835608089024
C -1.0182948751967764 2.535829106614768 -1.1845359976844665
H -1.3955756838422673 3.326759310609181 -1.8213810321356818
H -0.806807462795086 1.6329631844493582 -1.7464514264762694
H -0.15049689938967376 2.854252912233596 -0.6189518328677951
H -3.487988434334878 -1.2784857491739678 3.86293027624612
Rh -1.7113979836064974 -0.4106495122921539 1.0234275718150168
I -2.586725571515039 2.0448262110197164 0.25945115476055525
I 0.7753327505948383 -0.9790840326811252 1.7440318025913986
O 1.8788276303166807 1.132179263677522 -1.0550059841566197
C 2.6312988783356173 0.2885006249167474 -0.9535964669863398
O -2.095350236077958 0.6132229679859719 3.831410764109994
C -2.206350295976938 -0.14552171423466823 2.8815117531876155
