20
## STRUCTURE-ID: 645be748be55dd28ac315fb6 ; CHARGE = -1; SPIN = 1
C -1.7300394079089416 2.902838374987837 -0.32472381863008803
O -2.562881295553034 3.454581539944281 0.23843833915052187
I 1.216105565417318 4.158721926749344 0.19314422321061706
C -0.9411568091885102 1.242015235141979 -2.4663908317797087
H -0.3078371218503142 0.4175230180180213 -2.8046419671326386
H -0.8712688917287893 2.0834656010116164 -3.1678619419006457
H -1.9712041776271443 0.8957087173445166 -2.394854552558437
O 2.726057898888731 -0.6901826939124396 -0.16390769615249853
C -1.6550314461238365 -3.810455116278959 2.4532253832718482
H -2.3181038589552743 -4.451343340869093 1.888891938745022
H -1.535889382853976 -2.848775238515175 1.9682701174673995
H -1.9929627040718467 -3.6933215635729266 3.473580855779804
H 3.2097310957063616 -1.1808315583766822 0.5313307144846374
Rh -0.11482751979820117 2.0005516962390364 -0.7072139771273019
I -0.7868259041200689 -0.2275489654745246 0.4978352890874632
I 0.2645432687902467 -4.755434752137742 2.511104920288989
O 2.9796305050594225 1.129409782454007 1.1215471559371282
C 2.555497048333731 0.5870610535927528 0.12564473528077436
O 2.1280356763086945 1.5058008373531735 -2.0482603948836
C 1.70842746127545 1.2802154463009485 -0.9251584925392965
