13
## STRUCTURE-ID: 645bb6f2953ecf3bc1507c60 ; CHARGE = -1; SPIN = 1
I -3.1507560056053587 0.4105449804223588 -0.7098079287410668
O 0.9200710048094806 2.4416798551343666 0.5036136353370279
C 1.2629951416001917 -0.2159928102251121 -0.35647899044559866
H 1.831606623791077 -0.8279976668467559 -1.0548197848007475
H 1.8694031561562734 0.10345620834315643 0.4887213963747563
H 0.6295104896990343 3.3532381849591135 0.5223713000660655
Rh -0.7506634646389092 -0.34915378949006265 -0.15761221099580286
I 0.46220249559121035 0.11416523310832172 -3.7208202796179286
I 0.6661003033163235 1.6078846357177292 -1.3264260101160397
O -0.8515180678479389 -0.39777126107536226 2.7345465414697268
C -0.8463667437474236 -0.9933574564671012 1.6829928904427645
O -1.0816883407816136 -3.2196357227693593 0.5993375824979884
C -0.9608965923422965 -2.0270603908111937 0.794381858528797
