13
## STRUCTURE-ID: 645bb9bd031f373a87554ef0 ; CHARGE = -1; SPIN = 1
I -1.0450268079768934 -1.9894871652849215 1.3786613617667622
C -1.8078310020856496 -0.17142927561081364 0.5228869423275455
H -0.49452239056331854 1.222272077581226 -1.2204885767676863
H -2.0075792004324113 0.54125527421494 1.3195494103101153
H -2.6943409260572486 -0.40357774050672945 -0.06482987743206296
O -0.8609845919417268 -1.2483122002828095 -2.1093046124249946
Rh -0.09776592168021483 -0.04366973255138652 -0.5125645908372072
I 2.8541165896267926 1.5027809149459834 -1.036824078229539
I 0.9386420039822112 -1.8815570248374875 -2.4634672687265198
O 2.322359447047607 -0.7650408900664128 0.8991434741223383
C 1.8683774127352535 0.3239128112983592 0.6301100351646037
O 0.35206134548374074 1.8797447402149052 1.7256333406349877
C 0.6724940418618616 1.033108210885107 0.9314944400917051
