20
## STRUCTURE-ID: 645bc06870d6a145942fb1f4 ; CHARGE = -1; SPIN = 1
C -3.5287937160202416 1.7331433335873923 -1.3635631878310404
O -4.632029287817265 2.0428828905820433 -1.4810283273168088
I -1.4918461838878099 2.231235049094633 -3.7303572895708923
C 2.2911491949534644 -0.43518943033702673 -1.2847239732774132
H 2.8982631598044564 -0.79279572062801 -0.45791391127486786
H 2.1441286922551783 -1.2748134133035527 -1.969286441897025
H 2.7784716947364396 0.37345758835013526 -1.8273523689273266
O -0.3639148044434035 -2.04921533135452 2.841865726513724
C 1.6385187470090143 -0.36645044469084315 2.0199491395696736
H 2.471643895365695 -1.0564002004291142 2.037936804216395
H 1.2347491857287538 -0.24740523393281752 3.0159182503328474
H 1.9083574126935618 0.5871806378373626 1.5823963707427955
H -1.0183583630114375 -2.74564304731131 2.805015863189661
Rh -1.780119415852814 1.2202928169726912 -1.267406411141058
I -1.9277560687177153 -1.6050053938148943 -1.9626621871163406
I 0.059605506078689245 -1.2156914841700852 0.8627694166660856
O -2.0620660608697112 1.4501565288345344 1.7129430553811509
C -1.8770840263779807 1.3101727848588323 0.5810204287175725
O 0.3149549866190885 0.8851455792893764 -1.2983924837735583
C 0.9421254517537146 -0.045057509434868234 -0.8171284732034494
