15
## STRUCTURE-ID: 645bd47d841ca020d7099dfe ; CHARGE = 0; SPIN = 1
C -3.2449154100027915 1.3796573804802041 -0.2817284714561283
O -4.18333117625328 1.980197440224787 0.02324197627137908
I -0.4765733071661657 1.3189774610954594 1.2683385346315863
C 3.091738267473437 -0.35216045329541507 1.1266617914678465
H 4.092378248409213 -0.554432726386693 1.5334209342407925
H 2.7529235886490633 -1.220255599164848 0.5410356110149277
H 2.384795921881431 -0.1966535841466645 1.9567254540687251
H -1.179361278580704 -2.389618204530391 1.7240675128734309
Rh -1.763198095635024 0.46643528744184265 -0.851319206522452
I -2.3920767651749117 -2.3236933793610475 0.6999377652182505
I 0.4228313008676733 -0.552104573517768 -1.8938447789738833
O 3.1513336254636393 1.6699953321193972 -0.3092092459429332
C 3.106997066661787 0.7545037158261164 0.3331019007420227
O -3.1511623923660497 -0.08095710115471724 -3.438108635848404
C -2.6123795942271593 0.10010900436951223 -2.4323211417851054
