20
## STRUCTURE-ID: 645be1bee62fbe7c6c799620 ; CHARGE = -1; SPIN = 1
C -2.0259653707905128 -1.638136723282605 1.2317408104585914
O -2.1660070821285475 -2.6498977500598477 0.6289937668142526
I -1.6067533410568553 2.7734616988242085 0.15726366317977755
C -2.2656727552343705 0.015607814757375634 3.192111214593422
H -3.2156729182084365 0.5444843079527514 3.0999194120438562
H -1.5199068156372915 0.710999555090076 3.579912062444823
H -2.381658478014788 -0.8060073363441526 3.8982843195692456
O 2.461064887165473 1.9533091136192882 -3.163135116848785
C 2.999271317363159 -0.08881165868143322 -1.4596958726711304
H 3.6928144995213805 0.0036287334822365526 -2.2839744061619656
H 2.825440617823035 -1.1164555962813574 -1.1654830793338256
H 3.305204613367349 0.50641671021621 -0.6099259258591868
H 2.001705640738105 2.5561206404503163 -3.7545212228009026
Rh -0.7469280991790544 0.38573314325487706 0.48018868357389277
I -2.033079897907672 -0.5554597384057419 -2.2435107282816262
I 1.1442271785869438 0.6494845948114043 -2.1322976275797947
O 1.003727281602122 0.253066327381526 0.6219145792401708
C -1.8513695205481802 -0.5257543202285468 1.8592636674023635
O 0.3177877751391595 -2.0489433401136967 -0.8266159177139996
C 0.06177046739893148 -0.9228461764429302 -1.110432282069173
