13
## STRUCTURE-ID: 645bb880141cc27baf099de4 ; CHARGE = -1; SPIN = 1
I -1.8858021187251979 -0.19440532404536384 -2.3305769086992676
C -1.75147261386607 0.3534448123049541 1.0646254477570265
H -2.519813910691718 -0.40148319896284146 1.2708890017014869
H -2.2083703150023015 1.2392977513378307 0.6255534539762164
H -1.2276997962673761 0.6255335253018174 1.9824457427054272
O 0.9533238331075148 -2.7865410342507024 -0.42507201920271276
Rh -0.44006494448841094 -0.5494789988532629 -0.24706312208600603
I 3.4985031022151394 0.5365104359664158 0.23648002080108982
I 0.881811195352373 -2.1054587585205478 1.3506876392743998
O 0.4979528344426014 2.179085860741019 -0.04379857964197785
C 0.6209224101272717 1.045697785497728 -0.4079441199679446
O 1.825072754069989 -0.3033870960019324 -2.034903348935894
C 1.7556375697261832 0.3611842394848691 -1.0413232076818482
