15
## STRUCTURE-ID: 645be323ebb8f12b4d799614 ; CHARGE = -1; SPIN = 1
C -3.5600611713456587 -0.791263873828303 -0.7143141586469612
O -4.549257406847233 -1.10417232416344 -1.2001374777011231
I -3.3075444788015114 1.6762372117758795 1.4629604163664947
C 2.8113365365879965 0.8961651972802629 -0.3540446019193691
H 3.177973175798525 1.2065303700226593 0.626336070299579
H 2.407483514735737 1.7901468996024423 -0.8364604426024457
H 3.60733888718215 0.4644757859035572 -0.9597607188612925
O 0.7148851579431899 -0.13304636486620636 2.716229007510725
Rh -1.9963890555057564 -0.23299298750048636 0.08423745179923169
I -0.7252175719775573 1.6429648017031238 -1.6927661861217063
I 0.10198383410585608 0.7167684894340082 1.2258201983019448
O -0.7534602686207487 -2.9580950856278623 0.22690925487362165
C -1.2313461364244722 -1.9216557146876745 0.08006361816802794
O 1.562424129884011 -1.1834422941279052 -0.5115559003955655
C 1.7398508532854722 -0.06862011092004484 -0.15351653107116817
