12
## STRUCTURE-ID: 645be5e4bd7fc80c0260069a ; CHARGE = -1; SPIN = 1
C -2.1300003594105443 -0.21568180050081703 0.340390007886739
O -2.8566419496401143 -0.5727267273021203 1.155172034775218
H 0.008154898988331617 1.7643488806154068 -3.01552414916582
I 0.04811049348676591 0.1889756765708361 -2.703439557987429
O -0.021800516598828236 0.3476496487241678 1.9222261184825267
Rh -0.1552764369718088 -0.25473324296702565 -0.017014586044183433
I 0.6588162651676982 4.494984701944192 -0.6436424361860953
I 0.2993599630479592 2.135146106896107 0.9850381515441594
O -0.2323607053169424 -3.129711387361174 0.8353986510304872
C 0.27589233585184736 -2.0952240478731383 0.4556743686885941
O 2.6588864622918247 -1.3412439249610766 0.3785090608542464
C 1.446859549103807 -1.3217838837853433 0.3072123361215407
