15
## STRUCTURE-ID: 645bd75e8e68dc536c0203ce ; CHARGE = 0; SPIN = 1
C -2.006801764624805 0.1358264116855898 0.1645523393817112
O -2.8461672140943133 -0.3347239536224563 0.7650635543110313
I -1.4091969178618167 -1.0975147910113618 -2.5250293238270984
C 1.5074486353338503 -0.9934350105650153 -0.43634479139934546
H 0.7986487312297738 -1.8195555844745839 -0.3452483378413772
H 2.398447023829149 -1.2094032861668051 0.15745632802217382
H 1.7850657066539881 -0.9194049423299344 -1.491870993263589
H -0.7668504385591318 -2.904627957888312 3.2018760581987507
Rh -0.7607806933454119 0.9306744861038531 -0.9796832856951435
I -0.1839062946626135 -1.4506965458289731 3.0665665082394264
I 0.6830541671154254 2.1726241218470324 -2.7829318950164748
O 1.308563777128664 0.9859845597874171 0.9275788462472068
C 0.9407003855048116 0.27068441084671496 0.06705015542905109
O -0.7280803935199046 3.6397829325458324 0.3244867738449811
C -0.7201447101276913 2.5937851490712593 -0.11352193663128181
