20
## STRUCTURE-ID: 645bc52cafddc44ba56ee1db ; CHARGE = -1; SPIN = 1
C -2.871071920067236 -1.4157668265360535 1.7887542555732416
O -3.385502892906434 -2.379258061161215 2.1685892667192532
I 0.8741067511027657 -0.7060737667822248 1.5083401141892314
C 1.6352838313729812 1.0663846924640559 2.505110854673912
H 2.71520237978418 0.9995093405382083 2.5095314056165057
H 1.2295267460932535 1.0781629712203427 3.5103238275955
H 1.293251498685183 1.9301166355694495 1.9448022620902425
O 0.7545300711681274 0.7518927378752174 -3.133333518669806
C 2.0066106585164993 -0.9788334289005035 -2.1758298175266417
H 2.6719274320887547 -0.38787206649212075 -1.5492324545678282
H 1.8634479497554481 -1.9513084883060117 -1.716463689266506
H 2.4479946670570523 -1.0632094951131648 -3.1636792750743097
H -0.06373416172314719 1.2755410612207312 -3.1720746104311135
Rh -2.126052622054838 0.12270757410272849 1.1471487646791405
I -2.1084442845386278 1.0025355817140515 3.673478335598971
I -1.4065541099769967 2.449286796932162 0.12003143751953989
O -0.3029418831172897 -0.5380123912510845 -1.6497949691489464
C 0.7014069873704937 -0.255550854796461 -2.2737444179619843
O -3.225902894931325 -0.6393461660148604 -1.5156606286750807
C -2.7030842036789298 -0.3609058462832811 -0.5262971429332576
