20
## STRUCTURE-ID: 645bc1d9df2f6c73256ee1d0 ; CHARGE = -1; SPIN = 1
C -2.9238862087568624 0.6564765150521079 -1.0434666881674786
O -4.072251108985774 0.6990957405898989 -1.0662416753689097
I -1.1629217456179486 1.7365572688135575 -3.6774887774790015
C 1.9174419083502758 0.5497237501030378 -2.124931295652009
H 1.8650239095979935 1.6213131781610297 -2.313986454545769
H 2.9200185699535077 0.26155236802363485 -1.8070520403791341
H 1.6737022350272595 0.042245699021052706 -3.059981414744994
O -0.9918100116134141 -2.4154697602381647 3.0826363285432543
C 0.7487381112050555 -0.3572688931287998 2.6194952709298764
H 0.5048747736228787 -0.7188641761817981 3.609221498370435
H 0.502007385607533 0.690345839160698 2.4999601641301745
H 1.7814831935105986 -0.5439088969443121 2.355355631674113
H -1.5740220122781483 -3.166235048482557 2.923831455062291
Rh -1.0561130624467456 0.510736290203434 -1.0936837084207165
I -1.3055204096854365 -2.106227615583728 -1.9067753215264405
I -0.45183147472010454 -1.4903437115084202 1.2964327924231163
O -0.10015983388771395 2.638218375936427 0.8131782157080404
C -0.5205246827655917 1.8036514775722834 0.12715087182663926
O 1.3449718767280991 -0.5583965107709595 -0.14944139605275158
C 0.9007785871545103 0.14679811020156883 -1.084213456330795
