13
## STRUCTURE-ID: 645bb2e8f978221cc66ee1db ; CHARGE = 0; SPIN = 1
Rh -0.4291436966055059 0.17943332217819316 0.03729981669055783
I -0.6717680110082822 2.5796828266579728 1.0439525479411704
I -1.3177256352053732 -1.6384670905252812 3.152863062428895
O -3.3473089811830357 -0.07940161289294775 1.071463384821845
C -2.21662413164336 -0.21851024050206608 0.9551582016757794
O -0.7532495137062749 -2.254479768724956 -1.6650474248863765
C -0.5954161123889489 -1.3436866866692272 -1.002985992004304
H 2.8088153928498762 -0.32378556990104773 0.7050054479855916
I 1.5349489441739765 -0.775929761565953 1.5830286946390117
C 1.0823113861600406 0.8641712705732951 -1.2808108157542917
H 0.48938639565847664 1.3570151425938544 -2.0623314911496506
H 1.744981864441861 1.59856953325044 -0.8226331317834751
H 1.6707920984565428 0.05538863552769162 -1.7149623006047487
