20
## STRUCTURE-ID: 645bbe6cf2112823e37e8a93 ; CHARGE = -1; SPIN = 1
C -3.0399309002514068 1.2329070005018414 -0.21860206147808856
O -4.17544063382412 1.389355617510284 -0.17642772907020454
I 0.06966013770789149 3.744787697178951 -0.6196208685637251
C 1.9489306572642016 1.1268789948767566 1.3840748546740356
H 1.9796612885524192 2.215471916714256 1.3513171735406655
H 1.4770856137596113 0.8065786417600098 2.3104923527710195
H 2.9780590064600156 0.7690707398018369 1.3434653446375175
O -0.5063770524479182 -3.392212265825126 0.9799879848352402
C 0.3386828752988155 -2.067129236520355 -1.1710832929579893
H 0.8613776351563335 -3.0005159668995462 -1.0169620040084877
H 0.941217396440337 -1.341836867875823 -1.7053834134519972
H -0.6111568922293102 -2.240549675957989 -1.6606292510379974
H -0.7929316143781733 -3.6162863735324096 1.867145131509472
Rh -1.1543428906037712 1.2571769655976992 -0.14605086486837054
I -1.4983828531112382 1.5979233582836092 2.4558387619103943
I -0.05511802363937008 -1.255580452361364 0.7467481640013945
O -0.7720101453141112 0.75653934519855 -3.054010922818381
C -0.9475522991289008 0.9378923080962123 -1.9336740306254985
O 1.7290380539684063 0.5074855473022206 -0.9258438147547371
C 1.2295306403202757 0.5720427061504064 0.18921848575575578
