15
## STRUCTURE-ID: 645bd68df321ad556f36ef50 ; CHARGE = 0; SPIN = 1
C -1.8421305890530735 0.09864912719406911 -1.360345408802591
O -2.869459784048218 0.15902909106929855 -1.8383406368407447
I -1.205012546070522 -2.2976304748004126 0.7741586968639874
C 0.6285661568665994 -0.935127215443569 -1.8451112821950821
H 1.4846860396089836 -1.4603390528209204 -1.413113213934318
H 0.9450379977718639 -0.09135028454749358 -2.4657539974836618
H 0.009576104646504827 -1.6318276736612618 -2.407098106699543
H -2.2008591751825697 3.1611076229930095 0.6661181752639567
Rh -0.33845912873631406 -0.04213087429189798 -0.2360290257711037
I -0.763668943985014 3.0233658729387134 0.01990500803684612
I -0.10999223999932653 0.8537969869734635 3.4529946922683186
O 1.8298425863079968 -1.3621062554758974 2.8814942749986243
C 1.3459366258120486 -0.41906861142732366 2.3608753355091334
O 1.8812555157430495 0.8683470229243397 0.3945814208485504
C 1.2046813803179899 0.07528471837585957 1.0156640679376263
