14
## STRUCTURE-ID: 645bbb7b8f566a28c06df3a3 ; CHARGE = -1; SPIN = 1
C -2.608270646857854 0.1840660811519375 -1.360968724973721
O -3.090195352505525 0.21065856956849377 -2.4179415305945766
Rh -0.9071349422356747 0.15077601551301448 -0.4654274858637071
I -0.35502141011257254 -0.46998886197816814 3.0981894459377597
I -2.895334752163334 -0.19416920406684882 2.3724741962612135
O 1.4272659027805312 0.3007025419555045 -1.872972889236616
C 1.0800260469453002 0.2422489284256336 -0.6974109640111926
O -0.45211413019427865 -2.8114468018841263 -0.5042153925890092
C -0.6507427637729933 -1.669868750784216 -0.5000148428742948
I -0.8644141476418895 2.7263314015160613 -0.009458886015618105
C 2.138735806780045 0.322922490387095 0.3906441566657913
H 3.108587330868786 0.5245865821972618 -0.06375676435333649
H 1.8952547682004446 1.108236704552273 1.1042361906868874
H 2.173358289909032 -0.625055696553935 0.9266234909603996
