20
## STRUCTURE-ID: 645bdfea1bb5d1305e2fb200 ; CHARGE = -1; SPIN = 1
C -0.8125482843971873 -2.353714584965247 -0.31803476846871537
O -1.6467569073887123 -3.1430368007320917 -0.26850723681823785
I 0.864568928144909 -1.513074129756039 -3.037592760668266
C 0.058848940732047675 -0.6439609045063419 2.5985949799354784
H -0.9987733797052133 -0.5834646277257731 2.3413996949720404
H 0.4700851605820993 0.3628467746292691 2.5396461967130044
H 0.18318217800124395 -1.0285383535951447 3.610208111834998
O -2.9572329362604957 1.7903862364949243 -0.8029802581821406
C -0.4980921853232739 1.8970508766326892 -2.1279304418956784
H -1.2713860603979594 1.725419019709141 -2.8670448635616057
H 0.45032100476373854 1.4865702153253295 -2.450709345226844
H -0.4025789492073656 2.947487201642004 -1.8745437691678126
H -3.1155299703232213 2.540040115293451 -0.2206418096086276
Rh 0.6861695827984512 -1.2558704016473081 -0.3731244381279144
I 1.83624669306685 2.1496996715915855 0.4589515084485414
I -1.0948319378896232 0.8614866532356493 -0.36818233358560626
O 3.6022260742648937 -0.6009235825604702 -0.2097485295907462
C 2.4506218848352552 -0.5987509135962454 -0.24160711625103837
O 1.4193152224028662 -2.5034005332249802 1.9981306925022555
C 0.7761449413006893 -1.5362519322444006 1.6137164867469036
