15
## STRUCTURE-ID: 645be2e76548715c94108f10 ; CHARGE = -1; SPIN = 1
C -3.02620903491889 -0.36941971188318 0.3790051385415604
O -3.8037301456270436 -0.30307566213990367 1.231000579225619
I -1.3501883671545607 1.9055176881414881 -1.1459656359611152
C 2.354371985500087 1.8875344043131173 0.41198430891669524
H 1.509089383875017 2.531120235453174 0.14553790795343288
H 3.209666095122827 2.131065599259096 -0.22013154227086487
H 2.561736664631164 2.065308360739808 1.4667105656807022
O -0.07651254353319635 -1.8737026758432676 1.164055897555851
Rh -1.7669403477243528 -0.6497211294854355 -0.9147682220369728
I -0.14805272911361197 -1.2734030432914525 -2.874187686382813
I 0.31423453759602116 -0.16140171910493734 1.7430308957488816
O -2.0458094141083554 -3.5808989622667484 -0.42437812536945774
C -1.960724832958294 -2.4510125280929285 -0.6346630856152438
O 2.2461984360342595 -0.3710359857362565 -0.5192392377068624
C 1.9828703123789455 0.5131251299374316 0.19200824172053965
