21
## STRUCTURE-ID: 645beacddd5998590536ef5e ; CHARGE = 0; SPIN = 1
C -2.6736611173538947 -0.4307949277211119 -0.7544713279272112
O -3.59855204366933 -1.0451263795877475 -1.127552965623578
H -0.6720780568610942 2.4504767031325185 2.4139979212625136
I -1.290108067167432 0.9853500186274171 2.1913515218653252
C 2.65890144548435 1.8214942146688955 2.9066833195221253
H 3.676585879504267 1.9835114815687607 3.2915555447554583
H 1.9389338078286185 1.9772914594986326 3.72388804905925
H 2.47055397317015 2.558635644735196 2.1078336896001475
O -1.763936520196046 1.3507922781921258 -3.0736164471576712
C -0.5327542654486819 -3.1760120878047555 -1.2025152561582886
H -0.6132832259352835 -2.641061752300748 -2.1407325279242633
H -1.5133568544959413 -3.2997989475916616 -0.7578488544116798
H -0.04459863006538521 -4.1311862714447924 -1.3400334143351689
H -1.738673981140255 1.2430408965738136 -4.043097563238266
Rh -1.1214245641301146 0.4865602969090412 -0.48300486771849716
I 0.6411289915040201 -2.010247328577105 0.0936009814150622
I 0.9646587156351394 2.043506935741709 -0.6632776184846454
O 2.4411301928541276 -0.48267720330223 2.0054444089410297
C 2.5344742797415813 0.5619569609714731 2.402559869470129
O -0.6445799941987851 -0.578253723196463 -3.1177898597483003
C -1.1193599650599937 0.3325417309070153 -2.4329746031635033
