15
## STRUCTURE-ID: 645bd718c06d665b296df3ae ; CHARGE = 0; SPIN = 1
C -3.206460344384248 0.8383713961874951 -0.16469981359714492
O -4.310521403468268 1.0637776174217595 -0.3591860590197129
I -1.935493907347689 -1.934800767752144 -0.9310155521910192
C 2.7929488681978873 -0.7329823364091435 -0.7046104345292978
H 2.9499363893011177 -1.258985324786805 0.2368700295843551
H 3.569711287912924 0.01629323275912038 -0.8623271372698246
H 2.8606994761398132 -1.4334388113220353 -1.5398650778153367
H -1.337040094940866 -2.3126737303796157 2.6560685459834796
Rh -1.4449374765922778 0.40956255457186164 0.09316203916963038
I -1.1924004371130794 -0.798383897057931 3.072876997258928
I 0.975326596076983 1.0540143435859768 -2.492467396282251
O 0.6310722575676856 -0.15257978271227213 0.14494600704259897
C 1.472973745602362 -0.10374615693091042 -0.7063847754498717
O -0.7811435348801387 3.207716989382467 0.9318163559421871
C -1.04467142207215 2.1378546734419968 0.6248162711732178
