12
## STRUCTURE-ID: 645bd82bede99b6e2b099df0 ; CHARGE = -1; SPIN = 1
C -1.7656849892275515 -0.67265521628069 2.2158201721269286
O -2.3076367450230437 -0.751170911125957 3.2096880536472048
I 3.950436836059537 -1.2157192850018805 -1.96714001881681
O 1.2147770348460714 0.7542274069801439 -2.209893215345954
H 2.1581511956385233 0.5597434838753118 -2.3110496432515504
Rh -0.8582514090771114 -0.604244702773919 0.5786310204686892
I -1.5633343845679726 -2.9743963865863847 -0.35571748368201345
I 0.34454773589479915 -0.8915299906755234 -1.6576229606536288
O -1.728969005171356 2.031104791331887 -0.3060462728881954
C -0.9015001278915235 1.4182500835004568 0.3003249150286069
O 1.2579022237718838 1.3082526789156659 1.5094549530125942
C 0.19956163474774297 1.0381380478408861 0.9935504803541318
