20
## STRUCTURE-ID: 645bddf675fcbe4f265a483a ; CHARGE = -1; SPIN = 1
C -2.362369472320983 -0.7474314579289085 -0.562090841707632
O -3.451368505871243 -0.8835037148295039 -0.921450332980421
I -0.08843954096480681 -3.126683542633049 -0.26104481172197325
C 1.643307175681579 -2.2467639571942746 3.6563890669944366
H 2.630139441939191 -2.7065447770833595 3.7091131420044063
H 0.886504489218344 -3.0109237127194066 3.4618854383481086
H 1.3639273474862605 -1.762898470802371 4.591766757844738
O -1.2523030875618424 4.186049457972051 -2.1733883504560203
C -0.8773264046903565 1.6076240573303107 -3.103441950484265
H -1.66558955577275 0.8923600182288882 -3.313970657738693
H 0.09623934802028494 1.1799035168736725 -3.319533389766865
H -1.0286942050377972 2.530473903616689 -3.642179035802962
H -1.3695187838213876 4.890589903735343 -1.537481993956185
Rh -0.5443616088357915 -0.4909645521324412 -0.331885877024172
I -0.41610816644079685 -0.11121907592733679 2.5581958782600527
I -0.9500953855585851 2.084517256559219 -1.0279925155876368
O 2.2182383036957654 0.1231992024880192 -1.2839864026712684
C 1.2164559368229249 -0.1283029240542981 -0.7685672961320298
O 2.3338371974559227 -0.9840557019198589 1.6997333342165393
C 1.6175254765559297 -1.295425429579394 2.569929838361872
