20
## STRUCTURE-ID: 645be21e8bd1212687554ef3 ; CHARGE = -1; SPIN = 1
C -1.678713261861008 -0.9768421535954406 -0.20115312023952697
O -2.6904053940331294 -0.9557874759632312 -0.7469998059243915
I -0.9686069342031273 -0.4070307806005218 3.127161385007882
C -0.767135482315486 -2.8023072579220942 0.4725422583660011
H -0.8432956108823711 -3.218749781654858 -0.5324392130356214
H -1.66491474497702 -3.040672158838316 1.044015455577991
H 0.1001231389170684 -3.2541640533920417 0.9780155397998964
O 2.6241845891378457 1.758903464586181 0.37778521365353473
C -1.218616415823221 1.8485487106216276 -2.461905988401464
H -0.3855306664181995 1.2548103565949897 -2.822756345650688
H -1.2689278557840913 2.806332328317202 -2.9640068324891073
H -2.151792775516924 1.3050683139320338 -2.550392605240911
H 2.803448553382581 2.720704154324429 0.3664555209589293
Rh -0.05821177828258927 -0.7928866554993491 0.6249675271072577
I 1.5200359017482592 -0.9839071643843111 -1.5161396175465514
I -0.8845802139400597 2.239256619397259 -0.3506337863602233
O 1.5595395596993264 2.1327505919001526 2.3119127352939555
C 1.9356855286442558 1.3750577236494763 1.4415524891262645
O 2.4084088907143943 -0.8965256600267162 1.9644583150171753
C 1.62930497179351 -0.11255912144647907 1.4375608749795952
