20
## STRUCTURE-ID: 645bbe4a1b27e2795f315fb3 ; CHARGE = -1; SPIN = 1
C -4.869420892597775 -0.29655184769577825 -0.6755799554346905
O -5.897782846956681 -0.13623293988926358 -1.165254426105149
I 0.6196241386174561 2.6193309942342045 -1.502203101816996
C 3.562266235519241 1.4072299944412006 1.407771561931687
H 4.635505902206712 1.527757174436984 1.2802408192693808
H 3.061651843912969 2.3625869282150154 1.243405119848349
H 3.3036947074384124 1.0826188106131756 2.4139615437344037
O -1.3794264341920897 -0.9000518038806854 0.9650766137781174
C 0.7954041440248977 -1.1237517243851758 -1.0059306235459702
H 0.16447944980476745 -1.992478867127372 -0.8727158541849279
H 1.819162927291396 -1.387395904738981 -1.2499446192297479
H 0.38721299528946185 -0.4485883809015452 -1.7490767082019807
H -1.468782351741772 -1.1330530808248653 1.8987664946355989
Rh -3.2358968116501394 -0.5596302123423236 0.09485737362803456
I -4.36930266263851 -1.1006393473350702 2.3337796537063227
I 0.8888427284488324 -0.09438690739511482 0.8266923046028379
O -2.1005432558966173 -0.023898687133538737 -2.615046717270429
C -2.4664537677702127 -0.2065520527360313 -1.541647511548293
O 3.52997397165675 -0.05100204377931885 -0.5177315278766162
C 3.019789979232891 0.45468989822446915 0.4305795600801201
