20
## STRUCTURE-ID: 645bc098b322cc769e6df39d ; CHARGE = -1; SPIN = 1
C -3.589740457547923 1.3744672079219005 -0.39623744006921513
O -4.602370778695648 1.8715567457742033 -0.14491705849698136
I -0.4727158567464032 -0.036089403390745796 -3.0976495931049315
C 2.777019216775724 -0.19766931184570477 -1.0505998304403654
H 3.5351764352363 0.5505545855589214 -1.268980180568999
H 3.1241839852821127 -0.9210200468645292 -0.3149809622823903
H 2.5328506310632752 -0.7567447704302229 -1.9537048982510135
O -1.1932323550035184 -2.1352772280092998 1.6826611792912338
C 1.0094888232437311 -0.6340805153575552 2.099767642150165
H 1.7535259807625647 -1.4104736608172859 2.226235046064338
H 0.26455124106868655 -0.6955173351280786 2.881138790968001
H 1.4567924674912234 0.35107656052755887 2.042260182304289
H -1.73103571315335 -2.8164450385010524 1.2799442965850087
Rh -2.0090090576034814 0.5514854073836981 -0.8523206166438149
I -3.5028276046098825 -1.6380439159120146 -1.1194562735935145
I -0.022811960664543135 -0.9946822484190084 0.2610498872726745
O -0.9401720804366472 3.3171078701020575 -0.6170051029905848
C -1.221008379035472 2.203081942471912 -0.6891099875999332
O 1.2967960641330818 1.5967406221202547 -0.4196347840917594
C 1.5345393984401687 0.41997253281500674 -0.5484602965021855
