20
## STRUCTURE-ID: 645bdb9eb7752c7eef5a4837 ; CHARGE = -1; SPIN = 1
C -2.614488176252851 -1.116614057761086 -0.6035891156321146
O -3.425685628126581 -1.1372139043471416 -1.4283012053453785
I 0.06124813533898061 -0.18927721843017503 2.771838851373064
C 3.4661372127905983 -0.901370789108183 1.101040676187116
H 2.9567634410357533 -1.228272369781697 2.0126753400292574
H 4.13068083512064 -0.07049659910926644 1.334043880106141
H 4.010319156921217 -1.7632863214182568 0.716728149358445
O -0.5629985094509917 3.7376204166635274 -0.7399644964942741
C -1.694129447781448 1.5528555808730606 -1.9093308609939996
H -2.7732148353623676 1.6007243885754305 -1.8062987326716708
H -1.4063872012646128 0.6722590578024034 -2.475444879639729
H -1.325167048259302 2.4531955178137546 -2.3754615406913646
H -0.08429571709995548 4.253088305471916 -0.09122030603852409
Rh -1.3725029166348452 -1.0147598566304628 0.7451002550336724
I 1.1721295208553846 -2.244404229866948 -0.5391833274867731
I -0.8330369705752991 1.4595779549121732 0.010813455084431937
O 2.184948058048515 0.5572735588070902 -0.3633943938668249
C 2.47721693410277 -0.45959652262931294 0.14332618707345993
O -2.423322889998744 -3.554053367561537 1.9652954729326255
C -1.9442139534069185 -2.6072495442752825 1.5313265916824705
