20
## STRUCTURE-ID: 645bbf09038a01261a108f07 ; CHARGE = -1; SPIN = 1
C -3.196426752014091 1.688730783123002 -0.300116668872202
O -4.105458560200067 2.3815209555265575 -0.3862560879360452
I 0.4825626658857794 2.4471442917476653 -0.71708813809763
C 1.9876777716031235 2.4169268677935376 2.017077224275745
H 2.4084903954835566 3.34538154213386 1.6310719704713483
H 1.0271607235081968 2.6686221134501773 2.4754020077715477
H 2.637051295598698 1.9579810097835613 2.7609692631743
O 1.0039266687093136 -3.69989226364109 0.3722898866948273
C 0.13797912507354484 -2.3148898591771547 -1.797838384836385
H 0.9807273345866528 -2.9863376952274434 -1.7424576403561514
H 0.3593442331431543 -1.460555157699851 -2.4302742927363057
H -0.734858454473115 -2.844314353815193 -2.1650609134074643
H 1.1466967143474354 -3.916078031689806 1.2934831438149628
Rh -1.8240881805146363 0.4246719761251426 -0.24302765018777256
I -1.426083473544562 0.5888130604640135 2.338171695471133
I -0.24741443836245516 -1.6494176421758806 0.16277525393290537
O -2.3506535202233128 -0.6871098090523107 -2.970825690896402
C -2.147639532258274 -0.21693838116313063 -1.9333707114945242
O 2.090226183942795 0.37565780763341244 0.6988862288457348
C 1.7707797997081904 1.4800827858608954 0.9361895043683699
