20
## STRUCTURE-ID: 645be09252b4c5506974b44a ; CHARGE = -1; SPIN = 1
C -1.8861231781166283 -2.217618320967868 0.432359362856453
O -1.9548647139733948 -3.2993501619778796 0.8141386107402754
I -1.9862398866141682 2.0646148453737743 -0.8002167990519313
C -1.8158544488404955 0.5582398664993393 2.526342645865324
H -2.869796370029991 0.3847987978265751 2.2875892674586162
H -1.658078631100952 1.6277971986864506 2.6707656374352893
H -1.548363423054749 0.0421771879695937 3.447901191553848
O 2.8839236024246304 2.4429735878767964 -1.5037608971720688
C 2.898416027604372 -0.2955740332010565 -1.3364786472054486
H 3.7781373169254677 0.3084665107844602 -1.5022459973376827
H 2.721510934464192 -0.9874380379704604 -2.150196371879719
H 2.9412727013360405 -0.8198571830367224 -0.38972519119131865
H 2.5721223330460217 3.3508716804276633 -1.4959344153436414
Rh -1.819988107659987 -0.5046413020855199 -0.23729261204984775
I -3.4295109794699714 -1.3311039531300766 -2.258377582975342
I 1.2634611095381614 1.0462841273778851 -1.2431349517502228
O 0.31923577460449637 0.1360924544988164 1.5323343404481111
C -0.8904054635011378 0.10781132159543162 1.418018878320032
O 0.4893688567679762 -1.8371583119609376 -1.2119519581782021
C -0.008223454349882845 -0.7773862745862561 -1.0001345105425365
