20
## STRUCTURE-ID: 645bc222decf9c40092b1b70 ; CHARGE = -1; SPIN = 1
C -2.0930620208716633 1.5512128450631382 -0.4421573992128585
O -2.98829617720108 2.142951230839783 0.039643870207098746
I 0.3295615929803085 -1.236821672796632 -2.215441844890985
C 1.4130555530799989 -2.3264154516502065 0.7416377679246923
H 0.6107854219320766 -2.9958214149928657 0.45508298108487516
H 1.7063018579083573 -2.4553963917864925 1.7770188428201983
H 2.2614658947372863 -2.4282934289234412 0.07367030563658168
O 0.7888556346958683 -0.3446615495291557 2.65657300040942
C -1.2678077481513064 -1.1082736425770423 1.0882151982574415
H -1.1068761981463895 -1.7788836634319214 1.9218954854912988
H -1.7000492053082965 -1.6130508669487056 0.23405207867653724
H -1.8915556336479376 -0.2746809428663165 1.386638598535074
H 1.505106080212804 0.2166995521486471 2.9631827083760816
Rh -0.5978696228988097 1.3572475829419095 -1.5977301440878353
I 3.6391251592139513 0.2721905719517788 0.08413087555796307
I 0.6263126341827004 -0.3181526504929004 0.5762657191915228
O 1.218892023727116 3.7255327407265346 -1.3672349315248027
C 0.8268948039850678 2.624148882677856 -1.3891082549238971
O -1.9091171780937073 2.9392769458029924 -3.761320075748699
C -1.3717228723363393 2.051191323843047 -3.2250147817797323
