20
## STRUCTURE-ID: 645bde3f4a546c72c4507c5a ; CHARGE = -1; SPIN = 1
C -2.4521485460160704 -0.9663970353296011 -1.1290079385477345
O -3.4959900854823065 -0.978995503028268 -1.6267662554083768
I -0.3056310932798092 -3.489448726783482 -0.7822387924195323
C 1.6418644197763919 -1.9568895354230056 3.7264478564604087
H 0.9753186598709567 -2.8136181962209528 3.842552126429879
H 1.35841474394609 -1.2476857194652242 4.5041716055978
H 2.6844851300044006 -2.261745641899318 3.814925725116448
O -1.0658922940543285 4.116295801610035 -1.33396396549393
C -0.6954676835248462 1.9440234111993795 -2.893132620094
H -0.9156692604047647 0.9676143270138516 -3.3154008742107033
H 0.3240354172404647 2.239860764525387 -3.108519530899849
H -1.3812582756716016 2.701090398090578 -3.244944171277928
H -1.0988811701288919 4.648839501281649 -0.540190307848157
Rh -0.6524821691777564 -0.8477708946000546 -0.7085003814985029
I -0.7842811904964321 -0.5959758584616847 2.219479808653051
I -0.9093485379069429 1.8176594492825315 -0.7811874476218613
O 2.1551379412125264 -0.20778953303874922 -1.4922897682698095
C 1.1362903667339972 -0.4993090041051371 -1.032079223501593
O 2.0592739873152843 -1.1983444177120222 1.4571356036777436
C 1.4222296400435364 -1.371413586935881 2.423508551156726
