23
## STRUCTURE-ID: 645bce3633923604cc0fad1a ; CHARGE = -1; SPIN = 1
C -2.448344971886966 -1.1817918546226398 -0.08668417794374368
O -3.257633550903766 -1.271949829856162 -0.9493126581497188
H 3.46486502418331 -3.0429954065867104 -0.09721955620553425
I 2.736026406196641 -1.7054391112397544 -0.8972266100231598
O -3.893552454212605 0.5220651618553482 1.9285272140289016
C 4.76545534437509 -2.313198280196921 -1.9635174794955699
H 5.542741925961935 -2.210151082238994 -1.1993602787500661
H 4.887324067971912 -1.595684883885284 -2.772781011860235
H 4.607792714901425 -3.331447925581051 -2.332433315660072
H -4.5923336986518315 1.1988921491233067 2.0165141521616725
O 0.2778050142468843 1.962969323945954 1.527103035875775
C -0.9389634122399514 1.5029431883933018 -1.531781314114837
H -1.9016418019827424 0.996954305705933 -1.640022563761314
H -0.7176116012657633 2.0389209286068724 -2.4542751391255346
H -0.9968600878213352 2.215589049583376 -0.7120466983988577
H 0.5132292854645114 2.732505961493431 2.0766707942953895
Rh -1.3672007400203017 -0.3528635157691499 1.1284316843509195
I 0.3913539653303044 -2.0900158438505114 1.8356608078822094
I 0.4973928935180546 0.1389577078387735 -1.104668595243989
O -3.039835371752715 2.1007255912467007 0.6180525748228105
C -2.8587061984446294 0.9707229785848844 1.118836080270375
O -1.0275159245961232 1.5831036674309777 3.2917409963848665
C -0.6437868283713232 1.1311877200183134 2.199792058659711
