18
## STRUCTURE-ID: 645bb38dbfde853b096ee1d5 ; CHARGE = -1; SPIN = 1
I -3.3501572878807404 -0.13080871428408902 -1.0495089133252589
C -1.55967823341246 -0.5512994913239893 0.19357593751177424
H -1.7854493599401844 -1.4847611267879175 0.7126060061604045
H -1.5503986038029607 0.25641174535578914 0.9288075680047808
H -0.787996427568867 -1.9245357409970454 -1.7193380181701963
O 1.4496428776138486 -0.822183854587826 0.18819663186978772
C 0.6170945941788266 1.3550272127348195 2.752598472655798
H -0.2263310129078063 2.0209289791519938 2.8800200612152276
H 0.7989692535513071 1.1685445526448848 1.7026720918837317
H 1.5005371641790872 1.7541481542374786 3.231601715342813
H 2.392589292667684 -1.0069384797028176 0.38613523204974326
Rh -0.6492188185453457 -0.40399896183296524 -1.6193622464098574
I -0.17039373485762363 2.2247148141787467 -1.247750977918811
I 0.14948626216276703 -0.5187386993612263 3.6738851204530367
O 2.1466780836261505 -0.871683402492664 -1.9194781596725516
C 1.2337897614079147 -0.7532065699268824 -1.1280400990791228
O -0.0028453060470951695 -0.08115290446833016 -4.5440358287834055
C -0.20631850442442587 -0.23046751253787057 -3.4225845937880477
