13
## STRUCTURE-ID: 645bb2e46e94f30c2a32ebbb ; CHARGE = 0; SPIN = 1
Rh -1.4106060064117052 0.8706985304493889 0.14865072892120396
I -2.7543576692337455 1.8050116605137192 -1.794153558939223
I -0.8007802080466858 3.05070223140427 1.3932250822887613
O -0.7926397736332816 -0.7276482926683695 2.5914316180291603
C -0.9577058169800198 -0.11441594725357529 1.646796737333566
O -0.23956005577252357 -0.8065821399490212 -1.3317954994747077
C 0.1844373500928036 0.17939128787159747 -0.8320925729270597
H 0.2154484806062645 -4.805457798638617 1.3583234462287965
I -0.20861113746217982 -3.67073885034797 0.3585743528228609
C 1.4508850062290564 0.9086222637341934 -0.8772390136840293
H 1.2956664997900056 1.9153843637047843 -1.2803406904225543
H 1.862657382062395 1.0315190029004615 0.12793348327476045
H 2.1551659487596084 0.36351368827913466 -1.5093141134515344
