20
## STRUCTURE-ID: 645bc83597252079a07e8a90 ; CHARGE = -1; SPIN = 3
C -2.0925836379855522 -0.2669704615450019 -0.1534478508865957
O -3.1776473843717388 0.06757415330904964 -0.44281183411090513
I 0.7283880873406019 -2.549816077663733 -1.1617049523737681
C -0.6647995581889007 -3.6265274633231064 1.4440263583838748
H -1.65836315010679 -3.454733749038258 1.0152335478617818
H -0.2939237307784274 -4.581182655521125 1.079207691567587
H -0.7489663213397261 -3.635872552537542 2.5304055693849166
O -0.8363975208435606 0.5496288297726079 -2.6950346948843054
C 2.2077281002466327 3.118004927384373 0.10968811280552644
H 2.0826511647418493 3.3630021429268058 1.1580189932690226
H 1.3193944906503199 3.383854656388079 -0.4544409746318829
H 3.0991843948045994 3.5677329857200477 -0.30804421571419716
H -0.9300536942071205 1.096533219379509 -3.502375149549153
Rh -0.2479997186412588 0.20186707308292884 0.034546846668911786
I -0.8436975428338968 1.969336589550912 2.050976461234928
I 2.4241506587386046 0.971002189204306 -0.03724016131797602
O -0.49865075862826685 2.511318099501931 -1.690702027034283
C -0.573370644828548 1.2927838441678738 -1.6015697928208428
O 0.46389128093172594 -1.4472831328160767 1.5702762501257785
C 0.24106548529992536 -2.5302526179434186 1.054991822021805
