15
## STRUCTURE-ID: 645bd47d841ca020d7099df6 ; CHARGE = 0; SPIN = 1
C -3.2599360268967876 0.11804642964682802 -0.3477239810170964
O -3.9049939234225977 0.738335465955836 -1.0781845693962833
I -0.679795778398916 2.3678825492667652 1.353808724251993
C 2.2630202649291085 -0.3880280184217377 0.797935269415496
H 3.3546807521604993 -0.24949722462769858 0.8712926971614409
H 2.0532924705884814 -1.4448760590592344 0.5827594503938308
H 1.8139511860178283 -0.14668019383244646 1.7704234520239426
H -0.7366394624877031 -2.890557567129281 1.5348501714757325
Rh -1.1478638522009303 0.19188754031918362 -0.19567809207844242
I -1.0597553253704828 -1.4092534584525382 2.0243096578141935
I -0.2735649093006902 -1.779288422025413 -1.812333707701598
O 1.876558258111844 1.1766248010835632 -1.0897914989094581
C 1.8233047113558802 0.4420340909779644 -0.22427884190218764
O -1.0542707828619753 1.9841205398344233 -2.551416416520035
C -1.067987582223513 1.289249526463844 -1.6359723150116527
