15
## STRUCTURE-ID: 645be4361a2fd87a6f1fda94 ; CHARGE = -1; SPIN = 1
C -2.2773428548777592 -0.239227792427527 -0.580547950673501
O -3.196217293088257 0.5446849453662792 -0.3555722468676502
I -0.4957125557319119 2.080856568353415 -2.0029456138993136
C 2.3088914738731487 -0.15582014663453095 0.2894542031950118
H 2.206033206544429 -0.25697460626133223 1.3698850241152751
H 2.6326239161764886 0.8619727523589037 0.06883149524852554
H 3.045004186499316 -0.866053742557988 -0.08664058513352803
O -2.65747884937221 -1.3828044867044225 -1.1698926628313853
Rh -0.6455703747690746 0.5434156818311374 0.16413644724806842
I -1.0696526869505067 -1.2150147462516163 2.073874704129466
I -1.6091711913128812 -3.0205354701512164 -1.3190579829984619
O 0.8222875090910172 -1.1873770668157895 -1.2944125549607919
C 1.0149554932617875 -0.42588803141842 -0.3956530918636238
O -0.19716551088511242 2.813156254236488 1.9361984460279416
C 0.11851553154155667 1.9056098870765372 1.3023423692640042
