15
## STRUCTURE-ID: 645be2a14a303d49f35d4923 ; CHARGE = -1; SPIN = 1
C -2.8434174392306826 -0.2920525594941714 0.07198677599656898
O -3.897178871606935 -0.1852691619674139 -0.339857985862102
I -1.402909138078462 2.456984176846982 0.16442330059674082
C 1.8638961892469847 1.4263552597461715 -0.44489723168652434
H 1.7306821059553346 2.06677643828802 0.42771735962534885
H 1.4164827658837964 1.9330757380643107 -1.3002309679596888
H 2.926091693130043 1.2601445129181246 -0.6225977591275844
O -0.11612352981424175 -2.1327324095239035 2.4086904582290827
Rh -0.822568768931943 -0.12098856916338009 0.047054078621521625
I -0.8965773898969286 -0.25582949213115064 -2.635708872286713
I -0.20681144461353856 -0.26827915828954474 2.6561653957534284
O -0.32596990399777503 -3.0776248177706864 -0.1427660171812807
C -0.48998540353004766 -1.9736255383306387 0.07484570783817195
O 1.8526842996587973 -0.9308891721514893 -0.15326740145197648
C 1.2117048358256053 0.09395475295880733 -0.21155684110500841
