15
## STRUCTURE-ID: 645bc99eaeb5b542a6099dea ; CHARGE = -1; SPIN = 1
C -1.5776881493639523 0.9718823491796935 1.2890173761572412
O -2.473250341094691 1.6576315304986708 1.122356593893145
I -1.747133467614736 -2.1184928562820553 0.21549948436796995
C -0.8650196391804255 0.3681151005734258 -2.5537209380157453
H -1.5768550551984606 1.1718216093137783 -2.4187094161371725
H -0.4378773976597189 0.3862115354851905 -3.5480347368741714
H -1.3194503686890264 -0.5941338838678706 -2.3577699743880247
O 1.7317998643807428 -0.7633280217226502 -1.7570535021840687
Rh -0.14395027634730273 -0.21619543472660538 1.336094661259311
I 3.180868948907984 1.3346930721260863 0.6025810073250186
I 0.7647250618957142 0.6672024290772808 -1.173837622440611
O 0.8425808640227406 0.6249399270476085 4.069831959623715
C 0.44942863160607355 0.32689432980700317 3.043503982732086
O 1.9677288061125906 -2.3120943682017905 0.9444324995027069
C 1.2040925182224436 -1.5051473183077446 1.185808625178599
