13
## STRUCTURE-ID: 645bb30685147907cb099df0 ; CHARGE = 0; SPIN = 1
Rh 0.09270490718972563 -0.013229862940232415 -0.727486548238223
I -2.287158697260874 0.16417659706881121 0.4320672756632916
I -1.9021075755625898 2.304787898125946 2.1188508402413544
O -2.965702879297072 -1.1446111055107302 3.697721951311885
C -1.9490930718178083 -1.070685039426578 3.2172169877120544
O -0.8351603088260001 1.1218025611813063 -3.320265094851452
C -0.4773555984127096 0.678928351130828 -2.3207711582609907
H 0.08554691012751003 -1.1757486963353145 2.5025726925934015
I 1.262280028433848 -1.046309314356508 1.4191634781397076
C 1.9612485286405823 0.0391838050929577 -1.6512623725062576
H 2.003661709877651 0.3506507680005512 -2.696833282164581
H 2.582731050780714 0.739911460992404 -1.0796450218571056
H 2.428404996127014 -0.9488574230234483 -1.59132974778307
