21
## STRUCTURE-ID: 645bedcc5c4ed82c65554efb ; CHARGE = 0; SPIN = 1
C -2.9860280203456506 0.8286573172590351 0.8836701297410953
O -3.993371802153649 0.7925257429786305 1.5942471605649708
H 0.47182028939041987 -0.7558740182472087 3.629777344440404
I -0.9002819048216254 0.044911781892586544 3.3647029748970434
C 3.9275355931948823 -1.063674711770945 0.6021557929869676
H 3.6319459370673597 -0.15657452513854156 1.1499981104895667
H 3.518830783594733 -1.9350386702755884 1.1385415480384007
H 5.0241523280862745 -1.1299971785065517 0.5754611504300591
O -2.852599410538086 1.901737449449113 0.031857414176779175
C -0.42391699827142393 1.1986874169749766 -2.2302683769961087
H -1.4818090403554816 1.376205981600615 -2.0766186009510355
H -0.25204619596012556 0.17906694885250962 -2.5538230706376113
H -0.002049472718991944 1.9128478193894127 -2.924937823807961
H -3.5914605523439054 2.52946001305637 0.13322137391360933
Rh -1.5321882880419835 -0.4941399289330385 0.8001056751984611
I 0.3248006410443742 -2.3614730766598186 0.6482815205951865
I 0.5373239795856021 1.461443268698763 -0.3488150118297262
O 3.0285939219100504 -0.9810215477350175 -1.7072866922395318
C 3.4139383195365505 -1.0246308393703623 -0.656324009594388
O -3.317364566730344 -1.2927286536258944 -1.4460324993014007
C -2.545825541128991 -1.0303905898890744 -0.6079141101140717
