15
## STRUCTURE-ID: 645bd750efb47952d336ef50 ; CHARGE = 0; SPIN = 1
C -2.9052277285177253 0.9803932637130776 -0.7665289651935924
O -3.5964124083145528 1.3656648706826746 -1.5914282308882384
I -2.927470108728513 -1.9988393754315328 -0.07474827529901887
C 2.896248083851188 -0.5986423418119873 -0.8376271832707617
H 2.8105674083542054 -1.6340487428816437 -1.1716508903263472
H 3.5369528403556236 -0.5357399991159227 0.041378828957628545
H 3.324614456390471 -0.03885008455422849 -1.6693506816242025
H -1.3958500746658566 -2.229901450213024 2.9068285345447213
Rh -1.8358382153301174 0.29123228238568105 0.5615901217363598
I -0.7788245448793922 -0.7660045062071491 2.827431934524531
I 0.16188345193272127 -0.10789421002871266 -2.2396896703318525
O 1.1125442690085703 0.33600986753125356 0.49316007834552655
C 1.5701004474239122 -0.08112652741538355 -0.5170539823051424
O -0.7864299818966233 3.038133074616188 1.1038944839987401
C -1.1868578949839166 1.9796138787308728 0.9337938971313744
