19
## STRUCTURE-ID: 645bec77cd7b1a6010732d40 ; CHARGE = 0; SPIN = 1
C -1.6929873806312687 0.8634102501144238 1.636464791640118
O -2.41524135220372 1.3513702478868737 2.3842387209607447
H -1.1225643422348086 1.6724492990690094 -3.5366714362633216
I -0.26420171956342253 -0.17274198218077683 -1.254483743283204
O -0.5437497961773924 2.328341041766015 -3.070499012944212
C -0.7159701638597421 2.192706683545715 -1.6544989725078352
H 0.008646131334568381 2.814398108242688 -1.1362535714592332
H -1.73931612164345 2.4494184860111052 -1.3986704243338999
H 0.4024208004780143 2.165050438744222 -3.3094640272688975
C 0.33329512829652425 -2.2625079031632644 -0.8873571833827603
H 1.3565618809057365 -2.2960842169906384 -0.515017167930255
H 0.22841138953244397 -2.877704610021683 -1.7750019280934974
Rh -0.11606459407430282 -0.17152534729469673 1.3769182907403372
I 2.2000519986092426 1.0840130275367637 0.8791872902480806
I -0.9935941783651577 -3.003332816212892 0.6786749127760423
O -0.3353959073788269 -0.8920043369899273 3.4426852875838065
C 0.8456663160641855 -1.0246537889358798 3.01409040775032
O 2.8514887009175953 -2.296300699505879 2.481034777975796
C 1.712543209993759 -1.9243018816212103 2.6446229877918936
