20
## STRUCTURE-ID: 645be099e9b3a17ad539f29d ; CHARGE = -1; SPIN = 1
C -3.18742518899573 -1.052774384161018 -0.05378649320507697
O -4.237421921647012 -1.3441112718429398 0.30503494587243535
I -2.8941195874513896 1.618953354969508 -1.635642803238899
C 0.0745760401954211 -0.09798057584059808 2.094043293015323
H -0.6168651784462968 -0.44007021368863947 2.8648699727189695
H 0.7859634391461001 0.5841227217254489 2.5619561791299796
H 0.6095379361704827 -0.9460347780405588 1.6770502802364222
O 2.3365352543752302 2.269001785234398 -1.8303131997365103
C 2.196401490278904 0.04414400472234657 -0.3271039087392475
H 2.9210033651472798 0.2005380136319764 -1.1153996364519423
H 1.8147594858706158 -0.970313796824685 -0.3491061420836676
H 2.617433010710563 0.3020028511529816 0.6361953020936606
H 2.1192041425704318 3.0878334868372552 -2.277437240495582
Rh -1.5382049486640088 -0.47610147511827333 -0.704931857060459
I -0.5169224679852549 -1.333570269259533 -3.2503423012101766
I 0.590363488277745 1.3901338386692081 -0.7669611126816209
O -1.5092948515483888 1.5534056101853633 1.437590066057307
C -0.7054767472786673 0.7074274102029685 1.0754186738283684
O -0.1769024387303467 -3.0530719657900405 -0.06567558233166992
C -0.6831443219956789 -2.04353434676516 -0.2754584357176101
