13
## STRUCTURE-ID: 645bb56ab4d4b2226a0fad14 ; CHARGE = 0; SPIN = 1
I -1.6054465400808975 0.8480425189895248 0.13902693545636902
C -2.3538712503340333 -0.6380968241056487 -1.232088827500604
H -1.6845017266773692 -1.4925560727270344 -1.1774138827309153
H -3.3565192140502558 -0.8956616050882991 -0.9111409218183412
H -2.3507452678201566 -0.19523661617451535 -2.221672480768605
H 0.47588447871833983 3.2992680178297293 2.48386515425026
Rh 1.0702303490106302 0.6048515570034959 0.05167098472683997
I 1.7128190640268923 3.004677502712679 1.536759855915412
I 2.895271930900577 0.8132003259033382 -1.7901844791448194
O 0.38460707413333767 -2.257261201174517 -0.43054054052626134
C 0.9261859991619421 -1.338272231795276 0.11455527435069827
O 2.261003833036502 -0.8881333057695588 2.2212276733004552
C 1.6250812699743804 -0.864822065603961 1.2159352544895454
