20
## STRUCTURE-ID: 645be78e7a009a5e807e8a9b ; CHARGE = -1; SPIN = 1
C -1.419425075951667 -0.6021440744243435 -2.0495425103875022
O -2.295429103450945 -0.9449605661119514 -2.703474323619311
I 0.2713559718638823 -2.812596460041209 -0.3742143360215002
C 2.511897120842334 -0.576702858932013 -1.4091153134691334
H 3.0216424713404555 0.39363218775239706 -1.4416679117298072
H 2.85506894412764 -1.1492628026644356 -2.2910894853729813
H 2.8917221760470997 -1.0994962870249239 -0.5239509172052429
O -1.0692095713723684 2.7898503080596617 0.386261820018624
C -0.482508841748611 -1.1193588835404094 3.138441759287736
H -0.4640140824330977 -0.9936787064463078 4.212540122982813
H 0.35842992789958816 -0.6205451747705164 2.671074019406096
H -0.5112842807229726 -2.16461866790931 2.8574573187761487
H -1.823663093656721 3.40727009611043 0.28290954477626745
Rh 0.4249974044261751 -0.4571771727516843 -1.5282834215864327
I 0.7052052796408474 1.5338861252161449 -3.2464914400286315
I -2.269088520848805 -0.19898374352729226 2.3952171113187375
O -2.197961135436681 1.3744060710108874 -0.9245367889567155
C -1.230218754938235 1.6625198082164578 -0.25578494683316716
O 0.7206805617538452 0.8223601238346986 0.8832636558464394
C 0.0018026026182278562 0.7556006779437138 -0.07901395720244615
