20
## STRUCTURE-ID: 645bc3326c70ae44f65c0130 ; CHARGE = -1; SPIN = 1
C -2.27882629124388 -2.459971503711551 0.5333585330130645
O -3.180291257495481 -3.114687985139182 0.8398078626924147
I -1.0707246024448693 -3.094124561444535 -2.4325639291608065
C -1.7534396327217585 0.05464573339706202 2.3606639505741653
H -2.7981635440107073 0.08116022756553458 2.0550053209548063
H -1.599853766760964 -0.8398744592641909 2.9655860825322584
H -1.506591367709545 0.936984648957321 2.951941160448532
O 3.8430384099270674 0.8394204942598028 -1.350706056350178
C 1.502021726660533 2.235382736947867 -1.170351470148159
H 2.437523268162592 2.77485055419993 -1.10609821858996
H 0.7781167333637549 2.5853324250181484 -0.446135125517988
H 1.1018434508117945 2.2517181617881272 -2.17647024373704
H 4.470310827387741 0.1075998422491609 -1.33214931248229
Rh -0.9537247896944978 -1.4222770061688574 -0.2613431704538454
I 1.3379781845408156 -2.6367668846873697 0.9095894173777153
I 1.992693100365535 0.24456329959054934 -0.6589139155191701
O -0.8173721507272177 0.7222845254343738 -2.3895890434887512
C -0.7272025501017968 -0.047517745186971834 -1.5206999152686522
O 0.06901666652737184 0.8052023874411943 1.077623075926591
C -0.8463524148365309 -0.023924891246412724 1.1514449971972944
