20
## STRUCTURE-ID: 645bd151e24c82028d0203c6 ; CHARGE = -1; SPIN = 1
C -2.6071513381153 0.12856847025972956 -1.7545697437283323
O -3.442907247004693 0.15027626847792808 -2.567718804550427
I -2.7218295801481616 2.433179275824953 0.5839533661568097
C 1.697620259968942 -0.3390996521520041 1.0997045115350497
H 1.668146442155335 -1.0440373391258555 0.2718602469126504
H 1.991505559535417 -0.8535261105482858 2.0186875669845787
H 2.426084864319696 0.44384785768406826 0.875240470149715
O -0.006603170650633972 3.1894224616803237 -1.8381987084953302
C -0.09719306099275264 -3.1250960959460663 0.7910279650363072
H 0.3219435342849918 -3.019387244743417 -0.2078301906266423
H -0.7709789854744099 -3.976670794230301 0.8406746343912911
H 0.6622514909193163 -3.1767339473054994 1.5653951611345942
H 0.6566221818455594 3.903679497501331 -1.866450657341356
Rh -1.100829483983734 0.8958823936631273 -0.9517340138521945
I 0.5449738341797984 -0.5791355649854462 -2.4086778867794556
I -1.3338884053856987 -1.3569833793149244 1.178075283208245
O 1.3157181508607645 2.4957526229811506 -0.18374363371939978
C 0.2987967658683024 2.2791130380458973 -0.8428894745645109
O 0.06520378336343038 1.226117379584012 2.0251857201683845
C 0.4325144044538542 0.3248308626492872 1.3720081879800676
