20
## STRUCTURE-ID: 645bd126b7b964369c6df3a0 ; CHARGE = -1; SPIN = 1
C -2.530178735965755 1.0694340050342372 -1.3841577684282234
O -3.321952959491316 1.6269946032148541 -2.03040875906248
I -0.9101559726738842 1.5827813246858844 2.1326718203281536
C 1.5908109982270975 -0.252018052390351 1.8489133171260892
H 2.451584158131974 -0.6135230927691477 1.2871681623374756
H 0.82249465090541 -1.0181840564288196 1.9120899310497161
H 1.9036293610572212 0.0027455430079791725 2.8639991749897344
O -0.2961607257882857 2.3554934619120687 -2.6978230208561667
C -0.23033472653183987 -3.477236055021624 0.28711767683531136
H 0.5929671871115585 -3.106417040387195 -0.3159637279703459
H -0.6968934871189009 -4.337424935668408 -0.17752176893401944
H 0.0791373294179048 -3.6948223581958044 1.3027400421360806
H -0.0741293831342457 3.264345332942478 -2.9775295907275097
Rh -0.9122836221165751 0.528957589508987 -0.6177130508201204
I 1.3119343384371214 -0.5394520371273356 -1.7573450412236529
I -1.7466214023177224 -1.8879501814692141 0.3797230175313852
O -0.380724653861097 3.3037455205778046 -0.6842931300931075
C -0.4722793394785854 2.2812708332521376 -1.3539156329099633
O 1.7197586877269277 1.904761742748126 0.7477348132493602
C 1.0993982974629766 1.0064978525733332 1.234513535442295
