21
## STRUCTURE-ID: 645bee7c64bb9c6cb36df39a ; CHARGE = 0; SPIN = 1
C -0.49030652876247244 0.6430497148791585 2.0171281270250323
O -0.7641783479940857 1.4654673665956421 2.7538704362330644
H -1.213445762762177 -3.474026253976021 2.6160051675537566
I 0.2747078816739477 -2.9496550368580565 2.564822055263426
C 2.8325200924643883 -0.7826598397632453 1.2659966865992867
H 2.668467582689908 -0.8231963894338078 2.343492767300215
H 2.8061232322819225 -1.8019381890675679 0.8830829438704273
H 3.808217025192802 -0.33778103879612487 1.0722786428973938
O -0.611391746461764 3.1525331843317472 -2.4857917905532685
C -2.2671702290761844 1.019010522363253 -2.0760774501243953
H -2.283904059171479 -0.04628206378517026 -2.2714696031617674
H -2.2849442734364342 1.5884403261462614 -2.9959152198566956
H -3.0832813517577478 1.308190637075424 -1.4259719706550396
H 0.12303955881809914 3.758024127293707 -2.3736411514470035
Rh -0.17978642444849596 -0.606033622564917 0.6555226691965822
I -2.844394035210411 -1.1731763238768718 0.7081332963715217
I -0.4166014300105334 1.5295154373446476 -1.1593622898295033
O 2.036499940447757 1.1419957459668069 0.1379090403959905
C 1.7692264220270049 0.06618928029163533 0.627289045703897
O 0.07250387196747654 -2.0896277645967527 -1.9402360482905545
C 0.048098581528475015 -1.5880398195697512 -0.917065354492375
