13
## STRUCTURE-ID: 645bb895345d0424853adfd0 ; CHARGE = -1; SPIN = 1
I -1.898839395166789 -1.0228747760451016 -2.5932783537171047
C -1.6878398199159101 0.3694911690578367 0.6329583163221536
H -2.414750351201688 -0.43056432262228617 0.7974000681078766
H -2.1749407636518288 1.23194119505846 0.16069216718295584
H -1.2365001283169883 0.6630900370294363 1.5815618510510647
O 0.36362975903496475 -1.7837923581356803 0.44388380681582157
Rh -0.2943077496847578 -0.3140158628665553 -0.7179704556283183
I 3.2910898643851785 -0.8626606825913098 -0.6313388143553984
I 0.5853999820592547 -1.7539586723780956 2.3753989463942813
O 1.1689524980405739 1.4373648986041563 1.163506541357308
C 0.9925352270458573 0.8866945894780605 0.1140223713788543
O 1.561476876401534 0.9382268778998911 -2.2472791283064533
C 1.7440940009706167 0.6410579075111832 -1.0795573166030357
