21
## STRUCTURE-ID: 645bec81e238e358c2799614 ; CHARGE = 0; SPIN = 1
C -2.8741703572914425 0.3508174878956484 0.6247651082985528
O -3.9699267559531557 0.20534503933163606 0.8944158953523644
H -1.3669100180684939 4.1043285971036445 0.17471514112644812
I -0.40984489284320025 3.153346807274611 1.007573080532313
C -0.8402871272706938 -0.6860533503022694 2.7528568750696736
H -1.3639206246000486 0.15849882821399416 3.2031117550392953
H -1.5773962318593322 -1.461391159694614 2.5454536468151363
H -0.08741603310759426 -1.0619294188484196 3.446210264519054
O 2.9640192018215434 0.7354751149338113 -2.7420069243375242
C 2.2411370793658616 -1.329348001276205 -1.1842352533632645
H 2.933556280581388 -1.5699308966948182 -1.9787187512174989
H 1.594479107679707 -2.164675477613447 -0.9460526049834992
H 2.7728505470618763 -0.9795599501929522 -0.3102201206829721
H 2.9679649905071885 1.5384377138649927 -3.265292652557211
Rh -1.1528730811293713 0.5757910285782442 -0.07134262482346079
I -1.9372020704334865 1.7697909050580292 -2.418403579381176
I 1.0589232981510492 0.25296161785936555 -1.9211235613393
O 1.0046696175286765 -0.27588285154784425 1.282929256120071
C -0.18304708817210488 -0.2512763860296165 1.4859649012086364
O -1.023034234957042 -2.0803859890500647 -1.4431956817551352
C -0.7515716070112767 -0.9843596588637369 -1.1374041696405137
