20
## STRUCTURE-ID: 645bbea8ecb36913db732d4b ; CHARGE = -1; SPIN = 1
C -2.837200878161144 -0.7768933844724342 0.18571564365037582
O -3.9959360592759485 -1.1826490598120736 0.1524411071703687
I -1.687655454114899 3.5118908803711277 -1.2276088216104644
C 3.262562750839695 0.8390564826800084 1.7862419299330783
H 4.212050573461249 0.4838080954573247 2.185438128725966
H 3.3836481403763528 1.8378162653097057 1.3617221828504569
H 2.5001802253478878 0.9304576821408213 2.5586268111228225
O -1.8593849820597894 -1.6348463115599747 0.5901288809835091
C 0.6397996149886819 -0.8302142826493122 -1.3882172035498248
H -0.14405347527846005 -1.5751322222284743 -1.3225336656080733
H 1.6258777387175058 -1.2782153733177974 -1.307896518387293
H 0.5392696535928081 -0.24522938211930934 -2.2957703830108116
H -2.2247325749527667 -2.489316591173836 0.8947368291687717
Rh -2.255381667982073 1.022307932748441 -0.344619232746758
I -2.840074166019563 1.754847609566398 2.1340689216042326
I 0.39397534541828866 0.49545604384431496 0.27513423978482116
O -2.444240410604515 -0.2508363860153883 -3.0253410189400016
C -2.2934045025968848 0.3002475666178037 -2.0101172559701634
O 3.233868423520264 -0.8833204450923097 0.06409001724319977
C 2.7908317047832565 -0.029235120295007595 0.7337594075858309
