15
## STRUCTURE-ID: 645be9a9359fe364ac6df394 ; CHARGE = -1; SPIN = 1
C -1.8978123289873072 -0.4013815607909474 -1.0960974548470983
O -3.0095270289340763 -0.5990709503699434 -0.8939755246297598
I 0.04071712076671298 2.3234497793969653 -0.900330802547447
C 0.15018222667427597 1.0360313337462188 3.0243140813809757
H -0.6669598384403653 1.4421736172584296 3.620036397423229
H 0.6656182976737729 1.8536797848390336 2.5106316526424
H 0.8929041736950598 0.5260576317406622 3.6354613807104426
O 2.6580454515233276 -1.0213331313031362 -3.9809952618998197
Rh -0.15670759042464702 -0.16010065685382519 -1.6770371482883406
I 1.3282527727978726 -1.0076069560201069 0.9123108732438517
I 2.036840679351882 0.41982163416000096 -2.954417998086478
O -0.052053744125490846 -2.7112293659163265 -3.2260506406322422
C -0.14492539638785742 -1.7564606351778183 -2.5901065906891954
O -1.4526095358327913 -0.10073109988811259 1.5976071742664568
C -0.3919652593503717 0.15670057517891167 2.018649861953038
