15
## STRUCTURE-ID: 645be73f07b0b1004553af94 ; CHARGE = -1; SPIN = 1
C -2.0325865250560824 -0.23461168593319526 -1.1651597719176319
O -2.7808809984846476 0.4638223889525985 -1.6954526940833137
I 1.0718543149560982 -0.44710676690198004 -2.5348995691066913
C -0.1673668623417504 -2.5440164828137894 0.4463165884771205
H 0.013497028592855415 -2.892297307523686 -0.574621805181001
H -1.2458518580088511 -2.459473546994924 0.5797746242373608
H 0.2537342264786096 -3.259695913754615 1.1529576466307074
O 0.9505178650740144 3.2326640618188014 1.017956430848158
Rh -0.21523295794908479 0.32119633308275586 -0.4266488885979823
I 2.9395206890810353 4.852675935295452 -1.3280660047772352
I 1.3913250875016656 2.407533271673738 -0.5676718342126946
O -1.2898305701778314 1.6631581701766334 2.037346955557355
C -0.873950608379838 1.1226222531359176 1.1209789306339428
O 1.47314448718548 -0.9881372402335985 1.2971234862200713
C 0.512106681528623 -1.2383334699798132 0.6400659052712465
