20
## STRUCTURE-ID: 645be58e454d03291e52ff50 ; CHARGE = -1; SPIN = 1
C -2.178427670327377 0.13507600891313526 1.254324275417794
O -3.2289551730624395 -0.3217906425354847 1.5255747708564098
I -0.7418796758486663 2.4057340277161043 -0.9082038201241165
C 1.6060442748029904 1.6734339870069885 -3.281131676714786
H 2.507369998756122 1.6099752874610336 -3.9021457602989056
H 0.7614414313837145 2.071761629478117 -3.8517339028426356
H 1.3142021183345893 0.6666277600178201 -2.9524398373395178
O -0.6750144980706761 0.14959091608948796 3.873760720279909
C -0.9955871864115077 -2.834343469045214 -0.0859059172987712
H -0.8786326262841675 -3.7962276239908967 -0.5655396337697551
H -2.0009699331962363 -2.447809401977787 -0.2044724393082738
H -0.7344010183276578 -2.877688615435638 0.9642527895209131
H -0.5977462216329398 -0.46302305707877767 4.630459586811181
Rh -0.4498922644820719 0.6564928996035105 1.108152148380058
I 2.047574362474983 1.3596065480576416 1.6213400086204945
I 0.33775821754280627 -1.4682373806043985 -1.0066964981146986
O -0.08038296812617655 -1.691986796776427 2.772378642972604
C -0.354346887815517 -0.48680478578414155 2.69505615970518
O 2.459169536932649 3.1698891634748945 -1.495617125838986
C 1.8826761833576353 2.4897235454100524 -2.1914124909139923
