21
## STRUCTURE-ID: 645be92344dd85726332ebb8 ; CHARGE = 0; SPIN = 1
C -3.4300192467375976 -0.9024111240429936 1.2100921172427748
O -4.573295593914645 -0.923227619154593 1.2063246255273532
H -1.0445519561734264 -4.478655036197258 2.0644360778284367
I -0.8864831400460442 -3.3736969726772976 3.1765944000435327
C 2.554361484739404 -0.4460714152046382 -0.13256680487901973
H 2.9798627917483698 -1.165062966493698 0.5660616136522041
H 2.7183982016607273 -0.7840114133493115 -1.1556275203546644
H 3.0474611040677417 0.517903473761497 -0.0195961904519379
O -1.1968587118758356 2.5145620017218655 -2.3162919325105613
C 1.5050318973689536 2.025351757069111 -1.928189037525392
H 2.104360037191971 1.2953849260492878 -2.456379494389114
H 2.04647777622028 2.4897479681522023 -1.1139656262027928
H 1.105277380486784 2.7689480534733377 -2.6036779884685624
H -2.1415232566056677 2.3813433088698845 -2.36919085350701
Rh -1.5939770022739967 -0.8877918803700668 1.1426298080586823
I -1.7019476058360408 -2.5125681160810016 -0.8941578318182127
I -0.20465180886634085 1.0285050139420087 -1.114729173131301
O -1.4053732404505137 1.2465653461868724 3.2343145848956993
C -1.4848523738653294 0.4174519267181674 2.4507365934126
O 0.5008928918880718 -0.91638981871964 0.9600214233081749
C 1.1014103712731766 -0.29587741365373416 0.09316120926907777
