20
## STRUCTURE-ID: 645bc643d431b604e06df3a3 ; CHARGE = -1; SPIN = 1
C -1.922364004648605 -1.6093936955707715 1.4399456420309507
O -2.605562719129134 -1.934436893319263 2.2908117461437882
I 1.275576790672278 5.355267442188421 3.132045556233665
C -1.7542953096019818 -3.065472344478884 -1.7424946292213315
H -2.1109882987888375 -3.401250615843151 -2.7316943336074013
H -0.8827056393774264 -3.6878164814940537 -1.4378956180540852
H -2.5191063810455034 -3.267110301400936 -0.9817329522718888
O 3.9109186843474446 1.6282161551025571 0.2015649580584128
C 1.345924869865892 2.5270402531082894 0.3506651409230075
H 2.275565511626435 3.0525161054159815 0.19391424384973793
H 0.9589297040698507 2.773666031241632 1.3334360384438766
H 0.6278259531801815 2.8002747509815356 -0.41713118510616554
H 4.663107319389428 1.0369462315601456 0.1553345749688593
Rh -0.5360095764839042 -0.6945315097217747 0.5346079654924853
I 1.1886641392088775 -2.5438488337799816 0.17410790049141558
I 1.7993085905497863 0.5149621624728306 0.26727652949286745
O -1.7911389923651277 2.0193100390712924 0.7289683349945696
C -1.354778227653517 0.961104412494544 0.6477499079769579
O -1.172797006574216 -0.7197819625342808 -2.291751384173446
C -1.3960754072419634 -1.7456609454941974 -1.847728436666283
