15
## STRUCTURE-ID: 645bdfad55cc1861f9246423 ; CHARGE = -1; SPIN = 1
C -2.3191609334231904 0.9856386035455224 1.5548136813736415
O -3.3207712219627545 1.5109259947320335 1.76368776470149
I -1.8351581478564116 -1.6772367229855725 -3.824812364921352
O 1.9239147247485444 -0.8733271420857156 -1.054227355249467
C -1.0013993280193985 -1.07000055553156 0.04473484108418365
H -0.19380034108711955 -1.7975544342510352 0.049735543839159596
H -1.9749723843077087 -1.5098502142580013 0.23158448526134928
H 2.488967512037369 -1.6715516538836426 -1.0246544023048287
Rh -0.5746174428528765 0.8090594112480171 0.8551309991024132
I 0.3266586384000637 2.4269453535315035 2.7330652133209465
I -0.9848381354646878 0.13341780990464325 -1.6524692708828683
O 1.5114713469911194 2.1292923831218737 -0.6371348548971704
C 1.1575799915088731 1.11270505066829 -0.0537093649475448
O 2.7410289168889928 -0.40800022454958584 0.9840975396608178
C 2.0550968043991817 -0.10046365920677086 0.03015754485924849
