15
## STRUCTURE-ID: 645bd6f25c4e455a9c0fad23 ; CHARGE = 0; SPIN = 1
C -2.7662677643896965 0.45358643771010176 -0.279193395895731
O -3.8852155939982493 0.3621067417215367 -0.46119036001371005
I -1.2656228228927298 -1.8658515360097283 -1.3165522310838693
C 2.0460981569596806 -0.9136783582650926 -0.532911402734727
H 1.9821156769292771 -1.6963197314899874 0.22922381674784442
H 3.091945600192413 -0.6098573657387263 -0.6253971074619556
H 1.69412609754817 -1.3148346369026884 -1.4795899423352183
H -1.040779217983079 -2.412510886684512 2.224844822143295
Rh -0.8566194784558548 0.5216176229588115 -0.2241426567346226
I -0.6279514944014268 -0.937172130520551 2.626952873980569
I 0.5734010108874967 1.6121941110655247 -2.3207245276483195
O 1.5765791700623277 1.0369147403469867 0.8008611262981356
C 1.296373478558247 0.2571148836489038 -0.05382194590266291
O -0.9263932364312265 3.2827315517211817 0.9129633808615428
C -0.8917895825854797 2.2239585564384576 0.49867754977894707
