13
## STRUCTURE-ID: 645bb35c196f96780e099ded ; CHARGE = -1; SPIN = 1
I -1.5058532967643277 0.45683585349045097 2.727130017049796
C -1.6790620799830855 -0.2667650832117168 -0.6034942125289426
H -1.4333112705254205 -0.6887507454606812 -1.5784539102408752
H -1.995895872698962 0.7809608147512392 -0.7051420674987982
H -2.471620762390674 -0.8478911144274359 -0.13377024752752026
O 2.892739919711981 2.3618562915757044 0.6474201292462716
Rh 0.01775233588084184 -0.04056395888987301 0.6284256693964266
I 0.8121057964611449 1.5920286997435313 -2.3399429047721285
I 1.3494221301707354 1.9504772383396136 1.5994948805007014
O 0.1705341734166218 -2.998456378174026 0.7847340448911642
C 0.03181055703788489 -1.869513429267682 0.6746294656681866
O 2.436877758949695 -0.4605294199051062 -0.9233797308366272
C 1.374500610733553 0.030311231435987858 -0.7776511333476667
