15
## STRUCTURE-ID: 645bdfe99259eb13b779961a ; CHARGE = 0; SPIN = 1
C -1.923030834210371 -1.225799482542938 0.46881788014154596
O -2.9670656306924874 -0.8082361424939449 0.672259816618926
I 1.6622079435946242 0.5222976660564014 0.6736691314921123
C 0.31679710066821487 3.154306862209484 -0.24624982134908352
H -0.5144919864828547 3.6991340640506802 -0.6928582509763274
H 1.235966606615868 3.3300114036737867 -0.8075321912533998
H 0.503819050548573 3.5051198913119666 0.769955905026415
H 2.308066851314175 -3.991050578920152 1.373206136017363
Rh -0.2468653828180042 -1.948164478824329 0.2201236460504983
I 1.8643509066502555 -3.6406278956379516 -0.11163038960973304
I -0.4404006965954175 -2.483531530618878 2.791952841889064
O -0.9169087165506792 1.1027812824742622 -0.6007714093465796
C 0.017016878095634166 1.726596522891861 -0.2281989074016185
O -0.5222264130140685 -1.3403751325799387 -2.69381563735065
C -0.37723567712333905 -1.6024624510503405 -1.588928749948637
