20
## STRUCTURE-ID: 645bc49a7264e734dc0203b4 ; CHARGE = -1; SPIN = 1
C -2.1661892219372145 -0.353926302515771 1.7028689512480668
O -3.0537788402984893 -0.967443004428363 1.2537883291889074
I 1.4277164489223333 -0.2908954638325374 1.277319448993368
C 1.194725576145338 0.39258734453102295 3.3502027241431445
H 1.9311954355626935 -0.1151670093064736 3.9587789096433252
H 0.18750624354414547 0.14284499868344233 3.662087831830578
H 1.3278938851760262 1.4678618357929751 3.3734142537315064
O -3.7370296833807193 1.6225521112372883 -2.297794432020057
C 2.6971933822933973 -1.4815546329580962 -2.067227408369699
H 3.4276996632201535 -0.6764288061349776 -1.984360047107202
H 3.162251393965977 -2.346026865243512 -1.5945325185752295
H 2.444368407217514 -1.6839519037722075 -3.1085499859114094
H -3.8651440071086802 2.3626106261900905 -2.8904928102105525
Rh -0.8615806900090092 0.5642416510769066 0.3513020124130574
I -0.8721178510347437 3.0513872236609094 1.5651955039299534
I -2.578806869528932 2.242396063962542 -0.7384087910809347
O 0.4180051364487072 -1.0260210784936872 -1.8187849614887663
C 1.555056523700113 -1.0985318877118715 -1.226059047530659
O -1.8112911402053327 -1.1368130536006296 -1.656242622412912
C -0.8276737926932919 -0.669721847137049 -1.1125053404144878
