21
## STRUCTURE-ID: 645beeb3a2ec1b67b80203cb ; CHARGE = 0; SPIN = 1
C -2.366417282721941 -0.6986171772345697 0.45968588919108455
O -3.48621743772135 -0.5770300177791083 0.7309036398773856
H 2.2608332304120617 0.6624503770376242 2.277840639351361
I 0.9773519367262619 0.8028175416749008 1.0152529018725918
C 3.125322494267177 -1.9747298634088617 2.309021608653648
H 3.2365491087473166 -1.3440565377635176 1.4115636633733748
H 2.1113135342902996 -1.7731045000261096 2.6881896818557394
H 3.8618737463282975 -1.660602973348978 3.0598272827955006
O -1.6806513476900125 4.127564030766555 -1.1161483007421462
C -2.6563023963740884 1.9317496332382444 -2.047881153096012
H -3.501023663005607 2.441251411104888 -1.5897321187232802
H -2.9452396658456546 0.9185209051708346 -2.3429116734228836
H -2.3394887279913767 2.497264181388819 -2.9212780807216023
H -1.178874537010909 4.793765845946155 -0.6471831712107917
Rh -0.8689230090933802 -0.7104764860067652 -0.6265446302213667
I 0.17735389503418078 -2.968862204100734 0.04294087654888735
I -1.1108101778374577 1.9295206967585146 -0.6961201268915816
O 3.396879228728076 -4.372015516325965 1.7532819435441436
C 3.2603867632651693 -3.284465233402528 1.9983874523172631
O -0.13088414474740442 -0.24851370076192203 -3.4467575167710667
C -0.14303154775963609 -0.4924304129274724 -2.3123388075802462
