13
## STRUCTURE-ID: 645bb8772884da2460507c5d ; CHARGE = -1; SPIN = 1
I -1.7434570293535565 -0.8016014744344495 -2.290939501138676
C -1.3257466703590264 0.41576349638438165 0.804016035439172
H -2.1021563566069537 -0.33132424604543126 1.002994896898479
H -1.7635879288032252 1.282020846776667 0.30510370933189557
H -0.8530437634427159 0.7238793042455884 1.7393830913577977
O 1.1989007823921 -3.959678557311779 0.6520096920889475
Rh 0.06313669170517601 -0.5475180609104685 -0.4280759954870389
I 2.1449554401498414 -0.3064484639982984 1.2265983516095391
I -0.02454652914403453 -3.1551203555305363 -0.4881726219216433
O 0.8197882178300603 2.6303481982743033 0.7894503765495773
C 1.2279401932865186 1.8082891761945439 0.058356991197456194
O 1.3958539712939535 1.1560593929491323 -2.247373657817755
C 0.9619629810518775 1.0853307434063375 -1.1233513681077711
