20
## STRUCTURE-ID: 645be07927927c0bf960245a ; CHARGE = -1; SPIN = 1
C -2.597731945301247 -2.501640350261844 -1.6522921270843691
O -3.271057880377682 -3.4113294688953144 -1.846558108147748
I -2.622035007663755 0.23517987031815352 1.0308506396413772
C -0.6721029557464152 1.5047854207964237 3.0678990299636206
H -1.3538059133409754 1.094048422334303 3.8135656787884535
H -1.0955223745733664 2.460909801048553 2.756362165000667
H 0.3270028705364708 1.6428040750091306 3.4794290916853923
O 2.383491796865008 2.296512335630998 -1.6578011039939475
C 2.3061262342286177 -0.3773016416035572 -0.9887027351076437
H 3.139116261344617 0.2935239688724812 -1.130517962968501
H 2.4154889285402237 -1.272203190461821 -1.5927555776912818
H 2.1890608790237254 -0.6298175476573586 0.05742485808346574
H 2.0567897136316775 3.1321563431716433 -1.9907859903844365
Rh -1.3175586618557906 -1.1583635691673349 -1.4582485525679398
I -2.5815863191324735 0.5075659296780113 -3.0450368830862984
I 0.5846288267171529 0.6580111966948092 -1.64661642272589
O 0.28776744727949644 0.05319124932295105 1.3875667041223136
C -0.6146351011314836 0.6103912196338871 1.9151647975180088
O 0.5890840542060762 -2.906393252956605 0.03804389301443746
C -0.15252085325001669 -2.23203081150746 -0.5369913940596519
