12
## STRUCTURE-ID: 645bb41f95cb7139c736ef53 ; CHARGE = -1; SPIN = 1
Rh -0.5549759428634046 0.482773578329505 -0.08455857020476341
I -0.7254729652467994 0.1369424010177142 -2.7036468559121887
I -2.063317040906178 2.6811052863115368 -0.17175793455522628
O 0.7811641189265536 -2.2150181114884457 0.4675018845665742
C -0.08262523063479447 -1.4015177428173966 0.2878154098256534
O -2.632280362077046 -1.4660470589506958 0.26547367037229497
C -1.467856382953492 -1.2520925520696038 0.3179768380871016
I -0.4682710719982097 0.5355279246500236 2.616770281058011
C 1.5465644685601896 0.5715753370851732 -0.22598453778624233
H 1.6631315098115593 1.6448657493313843 -0.44195371242633535
H 1.960149047397992 -0.02835595384975838 -1.034606580365388
H 2.0437898519836213 0.31024114245056084 0.706970107340508
