23
## STRUCTURE-ID: 645bce67dfcc5801f06df394 ; CHARGE = -1; SPIN = 1
C -2.6288125903731605 -0.15034654264303776 -0.17740549089307864
O -3.7272543887713123 -0.5129003862150964 -0.1009180723823853
H 1.175605221849935 -1.4870513010076194 1.2802608217981157
I 0.884889913129415 -1.573894329838415 -0.2754629968762361
O -0.8608858476836883 -1.0350573258967353 2.601462840911499
C 2.6147974272812706 -0.3478344579722078 -0.731033156445652
H 2.475912511703658 0.6380893508366605 -0.3072898344049002
H 2.722947378033239 -0.2830693460259276 -1.8072635053420032
H 3.48351354988616 -0.8219498053708437 -0.2906465647742313
H -1.1409358867051278 -1.236572346614169 3.5150591076619446
O 0.29926211580848433 2.701776630677415 1.6233708093160384
C -0.5439661740589083 0.06782597795688852 -3.4991278701934347
H -0.14195487604904736 -0.8398123997304537 -3.051018801904941
H -0.017459971710598675 0.3356919232998205 -4.407930251460936
H -1.610183339574918 -0.02671106220784531 -3.669738075194359
H 0.9645138430593656 3.0260996274465186 2.261129495434225
Rh -0.96205097635037 0.5580153808023103 0.2596152795228069
I -1.0293187505479537 -3.716951778627595 0.5144420379472984
I -0.2504050565945611 1.684629309053183 -2.0543140281650483
O 1.4352292035878798 0.814005999264125 1.9137793352207888
C 0.4726022912567117 1.3676994030193899 1.3576692759707407
O -2.169188954443859 0.7294192949536957 2.913863100188198
C -1.446856642732613 0.1088981848399443 2.131496544065557
