21
## STRUCTURE-ID: 645be90a7afb8d672a7e8a9e ; CHARGE = 0; SPIN = 1
C -3.2652415936816004 -0.40825402255252013 0.9436513768905485
O -4.403240191541974 -0.2949844797736996 0.9275769073059978
H -0.7793370585743112 -3.861028137791825 2.725451388245141
I -0.7287725579187594 -2.510235163157588 3.534540734886972
C 2.5892937112209196 -1.188388401192536 -0.6644179824791892
H 3.0799533605171803 -1.6644193826047289 0.18330471619503436
H 2.4743505127423084 -1.9073594938878415 -1.4787290200367214
H 3.183560394877023 -0.36886578678504867 -1.0644041478224182
O -0.9467715831946286 2.2002627646872983 -2.711988310531441
C 0.8307363930257418 2.1896951600521364 -0.626621037759402
H 1.613524935038669 2.6604455850291724 -1.2073759375168294
H 1.2044618936786524 1.807786838122144 0.3159882209115366
H 0.0072809032051877 2.877269054549955 -0.48558848133991556
H -1.2745595468775086 1.994371535472401 -3.5867958101955106
Rh -1.442216851685581 -0.6165434818713175 0.9081898770662822
I -1.799401078412464 -2.73951718969778 -0.5718425563627964
I 0.06763087817953917 0.567559970456881 -1.776628884349032
O -1.1084486077473545 1.9597087828244737 2.3946622590511057
C -1.21013670962813 0.9610007547584798 1.8433704704233838
O 0.6657568161341718 -0.9455298723565437 0.7232469141448122
C 1.241575980642944 -0.712975034281508 -0.32559069672755214
