20
## STRUCTURE-ID: 645bda9b66312b69d9732d34 ; CHARGE = -1; SPIN = 1
C -2.660253781617592 -0.3792116430117561 0.23569918535412676
O -3.767706027613479 -0.6625183728058673 0.16344297406959873
I -1.3986801805415972 0.07102569325636601 3.114245347584016
C 0.42509775210690215 -2.4780688278738334 1.3914927789461886
H 0.925071996085312 -3.3561879607984024 0.98465570914468
H -0.26618376960508416 -2.8023805094547445 2.1716221761121783
H 1.1488194009128372 -1.8036188155927586 1.8462979464223856
O 0.5325934922628861 0.2522517711760239 -2.0465632687119912
C 2.17868115910431 2.6725798581356583 -0.31887058469710405
H 3.193206232330566 2.9388051796484267 -0.04273142622362886
H 1.4695330342566262 3.442342529235521 -0.029775829180471995
H 2.0947586063721766 2.437886414293259 -1.373926593007937
H 0.5788157780661863 0.19558653933237433 -3.023170152537509
Rh -0.9124221297175257 0.12801131065108767 0.38987448977552425
I -1.6695241074647866 2.794641104480407 0.0764602315099719
I 1.677766699160909 0.8738321034659536 0.7818095109936347
O -1.6419572810373313 -0.05953362464449849 -2.377743866169193
C -0.7246418403615374 0.09741789000704999 -1.5946094322201612
O -0.7820096346934143 -2.520997627841265 -0.6407122120610779
C -0.4009653980063449 -1.8418630116590005 0.29250301489658903
