12
## STRUCTURE-ID: 645bb41a1883ef6fae39f2a3 ; CHARGE = -1; SPIN = 1
Rh -0.39249342895997374 0.7622581457837426 -0.05331158106837724
I -0.7254032416822995 1.196109439035679 -2.6054529044420582
I -2.2654296963909357 0.5159832115932497 2.0915456126161387
O -0.038072646938297226 -1.6151635646423788 1.8237854147763126
C -0.8979634962640001 -1.155649305041713 1.131345616934754
O -1.9507890179362803 -1.6262365077318863 -0.9966830085418663
C -1.2648211433034817 -1.000355548525481 -0.23415737340186324
I 0.4480059700059108 3.176630241997221 0.5710134854919242
C 1.5244251917146106 0.030328551681175313 -0.4095199161397273
H 2.1334758639495868 0.7548041762599424 -0.9511176054302426
H 1.496003159179108 -0.9092554494138446 -0.9644123159721195
H 1.9330624866260508 -0.1294533909957103 0.5969645751771254
