15
## STRUCTURE-ID: 645be4b2faf105462332ebaa ; CHARGE = -1; SPIN = 1
C -3.1218174623627633 -0.5751864242817336 -0.017721408976595156
O -4.0477401411328175 -1.1315448822613106 0.367498787914296
I 0.4550300154906355 -1.8352251095707561 -0.12211759166287563
C 2.25318201953645 -0.5412610641408966 2.1045238469027425
H 1.3420298994307331 -0.37275827690054025 2.6854687194235995
H 3.0331778725688783 0.1403755048512103 2.442461640940708
H 2.533653819766995 -1.5838947221352029 2.2513982083486663
O 0.2623176919173456 1.9251144673390028 -3.4877140023007023
Rh -1.6893105109804585 0.3700640603723048 -0.7075081090363841
I -1.0957001962847495 1.4970364975822614 1.5677820175521806
I 0.051152458311337155 2.056689132045938 -1.6327818253636561
O -2.2165580339417383 -0.15041745992673672 -3.6001422944186987
C -2.0692557661328808 -0.01454122685292164 -2.467383300966492
O 2.3293884347870386 0.4986576291658419 -0.09192990329304601
C 1.9804498990259964 -0.2831081252864392 0.7081652149362682
