15
## STRUCTURE-ID: 645bdfa8725bef0ae15d491a ; CHARGE = 0; SPIN = 1
C -1.9261306405402276 -1.063748233100432 0.9226537127938017
O -2.9663271154529114 -0.6588381294277408 1.2271760059660162
I 0.4601090996479355 -0.10797047122496403 2.6782297218133904
C 0.8704304193147449 1.9504762919142717 -0.4929871375877015
H 1.3850377019397093 1.5587616719456892 -1.3726792329477604
H 1.5518260819440506 1.88846947730174 0.35761758290127615
H 0.6055988551460726 2.9945913385936156 -0.6658210973723536
H 3.330982083957561 -0.9680701128081033 0.8088120290408368
Rh -0.16939502528398825 -0.8121338861560609 0.22155507558961057
I 2.4936518080555907 -1.37672074560814 -0.4785242319756791
I -1.5278334690149187 -3.428501478358082 1.2154121931687258
O -1.500056219491458 1.6074392588723556 -0.27940705416279
C -0.38540542616667633 1.196670261976502 -0.2405880377156133
O -1.3771486799315502 -1.5412194290539634 -2.429736487966571
C -0.8453394741239529 -1.2392058148666765 -1.47171304154522
