15
## STRUCTURE-ID: 645bd5868c64e10f98732d34 ; CHARGE = 0; SPIN = 1
C -2.5522434689720472 0.1833041311458768 0.752366614860864
O -3.6663682124158203 0.4024100849213263 0.7992120307253446
I 3.328044449068622 0.7507181122836531 -0.6374616557523969
C 0.0020165076273288506 -1.3094138584211232 1.0122237183117178
H 1.086217733779523 -1.2380938129355343 0.88515632330292
H -0.3664219284875241 -2.2551978979017115 0.6167101164349372
H -0.28546063808256505 -1.2063253777660345 2.0585199544387316
H 0.6457049531128464 1.3801337425061362 2.958648994327662
Rh -0.8181657949368473 0.27425186102043253 -0.08976805724500489
I 0.18794456089717676 2.151991289475652 1.6376046000349935
I -1.678321249361546 -1.23991434133531 -2.06220554679788
O 1.8222455375585724 -0.7860409797480296 -2.6861179691814803
C 1.6753045132957043 0.11460845450260879 -1.9319333269168981
O 0.11418622951328639 1.9303167867553923 -1.8531535081005914
C 0.5053168074032931 0.8472518054966789 -1.4598022884429458
