15
## STRUCTURE-ID: 645bd5878c64e10f98732d43 ; CHARGE = 0; SPIN = 1
C -2.21383092676064 -0.009515897206172373 0.7302838450817831
O -3.3019434763361897 -0.00787362641778018 1.0538412738612786
I 3.117025144590862 0.10555727998648468 -0.43267275253437365
C -0.28224722700389987 -1.3304689488336972 1.2284619030704436
H 0.7947309151577013 -1.463227255983048 1.0564981561662479
H -0.8190984705315633 -2.2391005432274045 0.9593654360412388
H -0.47669470455173457 -1.073429512698853 2.267620823569222
H 0.6211364123216974 1.571146873705814 2.8552596131629984
Rh -0.6006632586517173 0.21896288263661262 -0.17547122366421794
I 0.26654046528547376 2.2827379241721575 1.4698090371740404
I -1.3715513364027898 -1.3158016619343103 -2.1944450142478433
O 1.8811144991998314 -0.2786884765830189 -3.0893128048911724
C 1.7051872756709854 0.3247515658385691 -2.0821987963786532
O 0.16981478170866 2.1510156197628443 -2.02842108075797
C 0.5104799063033315 1.0639337767817778 -1.618618415653
