23
## STRUCTURE-ID: 645bcda91a7f8111753adfca ; CHARGE = -1; SPIN = 1
C -2.612723254951236 -0.8324208841677263 -0.4027712491959824
O -3.6187770929614613 -0.927689653083396 -1.0022238641303245
H 3.0578744099278254 -3.506437463858206 -1.0249609656288035
I 2.793747141034065 -1.8076741727100099 -0.9214667902793344
O -3.2986150566528063 0.9949865251408632 2.0407131176645836
C 5.116686472934923 -2.3284332264073178 -1.0926907322899821
H 5.334905417379328 -2.9308714558886195 -0.20249251145542074
H 5.633510952731073 -1.368865101168641 -1.08092580996918
H 5.223663362093172 -2.8464813377925293 -2.053290383333589
H -4.038119034310607 1.6196095355316065 1.9912791142948725
O -1.4573792938629822 2.3601237247433087 1.4626609036365057
C -0.4905768941306794 1.7576875808175523 -1.5888885932899823
H -1.4634601022819782 1.3446760236297317 -1.8561109324437337
H -0.1057558600107395 2.340157119910258 -2.4241751793291284
H -0.6022720812745321 2.400680080541886 -0.7212054616871905
H -1.9797612374110822 3.1663573418096935 1.565555769032054
Rh -1.2503229388699744 -0.46531202185608944 0.7620837040885386
I -0.1354375417991514 -2.790146938974935 0.8467913424168727
I 0.7555595082052201 0.23632780911459222 -1.0965163517143603
O -3.068707112246662 1.7938331984318887 -0.09451278659102129
C -2.394755517698661 1.2784358134175986 0.9029202058468395
O -0.6525832999373851 0.43631577179260334 3.547708695700218
C -0.7467009459056584 0.07514173102586112 2.44251875865754
