20
## STRUCTURE-ID: 645bdb4260637473056df3b4 ; CHARGE = -1; SPIN = 1
C -3.200862082489407 -1.2646422463183176 -0.7130467448483457
O -2.5625700663653657 -0.31293269930820866 -0.7603114332579632
I -2.0114279078660933 -1.1514157693469231 2.713298850393725
C 1.277714373511925 -2.2233878066259614 0.962013525327742
H 1.034469802332679 -3.1626561837414626 0.45880147116024245
H 1.1303811576537428 -2.3313444410156645 2.0357613478847933
H 2.3330827806416603 -2.004612568880052 0.7764636141846599
O 0.16168415730624014 0.06311146372449818 -1.5984703716422495
C 1.546261187475269 3.408780096876191 -0.2968440634924499
H 2.4344808158982336 4.0278519684906815 -0.2735073292049236
H 0.6759248957894916 3.943779670245325 0.06919637847046461
H 1.3653370468669663 3.001953222289455 -1.2845885103714216
H -0.15247855867443977 0.02793362391767042 -2.519256574606779
Rh -0.5352248438797099 0.3234846386312676 1.0253905236150496
I -1.8790243476055157 2.5999999649087977 1.3535256561193225
I 1.888571783874884 1.7304048536997716 1.0327565881837102
O -0.2279918349602432 -2.1528385696415007 -1.668664116715214
C 0.12242908866799868 -1.1721083954510647 -1.0194237086331868
O -3.8418924966171106 -2.208926695897324 -0.6846097815923265
C 0.44113504843891516 -1.1424341265571538 0.39151467902515236
