20
## STRUCTURE-ID: 645bdab3e5c15f1c0060069a ; CHARGE = -1; SPIN = 1
C -3.0025729041006084 -0.021644144609886812 0.35368998730224865
O -4.072665441797659 -0.40257816489037046 0.16681748080973977
I -1.5777447306666228 -0.19159597707159565 3.2231735837211026
C 0.9035731844761754 -2.0267101066571067 0.760834108959042
H 1.1565988949060086 -3.065705380838106 0.5501623056559101
H 0.8626707116773894 -1.9248732950044183 1.84460465090459
H 1.660498002537811 -1.3725360575783916 0.3408374185879678
O 0.609198858882628 -0.2938102388288651 -1.4232160349413336
C 2.091115460786272 2.5965333572802813 -0.2916633842329566
H 2.8450350378793465 3.2269139193038554 0.16595278444587916
H 1.3562802643472551 3.184053519179253 -0.8336141671049637
H 2.5372054595427755 1.8389872629944453 -0.9256922306642265
H 0.5394589670340857 0.0784030196422329 -2.3234297561871076
Rh -1.3228441908962718 0.5912290075692385 0.6639224449775639
I -1.7454187476906096 2.446407207797846 -1.2016512574177807
I 1.0477800772072874 1.574018341679612 1.323369643726818
O -1.4561753191225757 -1.046214912075026 -1.8996382783385706
C -0.5429850934017421 -0.9173643962877747 -1.0863113324805247
O -1.4335744804991928 -2.483276293439417 0.43752255849539773
C -0.45543401110248555 -1.7902366681647286 0.1543294737809892
