18
## STRUCTURE-ID: 645bcd7953121821a52b1b67 ; CHARGE = -1; SPIN = 1
C -2.0595345768724935 1.0191171517533564 -0.09054243523698798
O -2.9698245341398692 1.1270151949349128 -0.9375051192231652
H 2.6769012071277163 -0.8502316843073849 -3.0327129327221853
I 2.387359906874552 0.39404597378115913 -1.9497619822483216
O -2.057099650011302 -1.7788363977881265 3.5649518590295717
C 4.608395918894239 0.5943984547546656 -2.914990177453434
H 4.451719511801891 0.7095345079215956 -3.9908685709764584
H 5.145319806130361 -0.3099363252589926 -2.616445603977983
H 5.030597908666391 1.4913002754644273 -2.462180803806549
H -2.671773007441973 -2.144560879386753 4.23012341090065
O -0.8177803835771402 2.3649807138453434 1.3946883433354484
Rh -1.6325253145811638 -0.5135931547182176 1.090722754388146
I -0.8232995088740207 -2.7919033875798434 0.30043876543591974
I -0.08032187972960629 0.6661627717845919 -0.5769784788006735
O -2.742576834421066 1.3924239790087356 2.088751616528788
C -1.8476881677782626 1.6574403310877173 1.2004742559683812
O -3.9061309130040356 -1.5957319265062322 2.291129296690847
C -2.691739489064057 -1.4316255987909958 2.4107058021680134
