20
## STRUCTURE-ID: 645bde45a01ffd11f86006a0 ; CHARGE = -1; SPIN = 1
C -1.7832865815054308 -1.3045903014808369 0.8283496598198192
O -2.786381204381002 -1.8116653293196667 1.095849709766557
I -0.7858999390352274 -1.5504352754156996 -2.424406377317779
C 1.1872359636841605 -1.7377633544381577 2.744813178333191
H 0.3169563667747018 -1.4462786832187073 3.3317378245600353
H 1.871959582088096 -0.8907332868029956 2.742596406049312
H 1.6661069864111286 -2.608864586760378 3.1920170565452737
O -2.282242904883832 2.5432288323451018 -2.718221118828854
C 0.2684415816382199 2.293049916090159 -1.880560858991355
H 0.5468602380811959 1.4569735933140977 -2.5146280270195183
H 1.0210620221603461 2.4924070481785265 -1.125596414148684
H 0.049010092292272635 3.1721862143552007 -2.4733664968019333
H -3.1974583756553403 2.299904873214942 -2.871043244533048
Rh -0.1908756273020147 -0.5871388142897765 0.193603293976045
I -0.21559349567768818 1.7408586149742695 1.8187314111383575
I -1.5616824275892436 1.793485755520536 -0.9132453190298283
O 2.6177755431903225 -0.2857676370638612 -0.8354417740409462
C 1.552476596388828 -0.33031464262460586 -0.3881544194722193
O 0.9463089886870301 -3.177192057176863 0.8694960849143185
C 0.7592265946334831 -2.061350879401316 1.3274694250812635
