13
## STRUCTURE-ID: 645bb75d78dce2406a6006ab ; CHARGE = -1; SPIN = 1
C 0.6539569837435412 0.9780872153467138 -0.8725740319763341
H 1.0276158319960822 0.6754655161053241 -1.8511226797933367
H 1.262969688218045 1.7862078267418442 -0.46510134145283477
H -0.40441281518510414 1.3944123826209294 -0.9563955805608173
O 1.1818718180194565 -1.2998035361162117 -0.3676155800136992
H 1.2271198882017353 -2.006349976385362 0.30266346960986107
Rh -1.449563123481803 0.11716644218327739 -0.09732148228590409
I 4.771358327647507 0.591058553046156 2.6124153230697447
I -3.2141836803865216 0.6754764517220495 -1.8509453421780924
O 0.17989422205374728 -0.07142744455158227 1.2466175875618986
C 0.6241689545624549 -0.18917299106383031 0.0876821777487709
O -3.2762402550409035 -1.6737381934883897 1.3968254110661653
C -2.584555840348252 -0.9773822461609409 0.8148720692045763
