20
## STRUCTURE-ID: 645bdbed45895f054b6006a0 ; CHARGE = -1; SPIN = 1
C -2.3344781428073125 -0.9743438043873591 -0.3346676775656837
O -3.3730652729378168 -0.7750678769602066 -0.8008200445012911
I -0.34325569693145086 0.22651894618745483 2.9212052751226607
C 2.6802551849442366 -1.2085475828659313 1.4824388891803715
H 2.205461388121133 -2.18446368580501 1.552951809012854
H 2.773775544281729 -0.7651954419165798 2.475301749176286
H 3.6743666100038075 -1.3325509631383103 1.0447315751460882
O -1.2210173842574334 3.7452144174289277 -0.9501596970281917
C -1.347172106806543 1.3901622229235377 -2.198248356117003
H -2.3404957351663187 1.7704217312769919 -2.400399157846056
H -1.2608339126662063 0.34728053972036194 -2.4868089751797418
H -0.6181406916154745 2.0028216342657696 -2.7112342076395377
H -1.0763605378930912 4.393647840594647 -0.2623715602617818
Rh -0.6193006965684827 -0.9812069688442588 0.4886240817595691
I 1.4462822617642375 -1.3403866328296352 -1.4531228224757438
I -0.9959606594471144 1.5904913096709612 -0.1198709648764804
O 1.9925402075809122 0.912024385156233 0.5056749864006312
C 1.9457029926882903 -0.2636089208048667 0.6289725334503691
O -0.6429391648479501 -3.8132917838072173 1.5060525656390185
C -0.545364187439149 -2.7399193658655134 1.111749998603692
