18
## STRUCTURE-ID: 645bb7823559394cc45a4843 ; CHARGE = -1; SPIN = 1
I -2.6962485870346633 1.3599919403453056 0.04437692075523409
C -1.624763444709034 -2.1448709434021236 1.3186664495155784
H -2.1665432659041994 -2.059148693903455 2.2631242438195915
H -0.9104842693959433 -2.9672158851267874 1.3818883266781432
H -2.3348587359846076 -2.3345164615176337 0.498333189962196
O 1.6596380242505473 0.7233282195410248 -2.689823536056779
C 0.9076358436710363 2.0971219775262524 -0.5660715158964889
H 1.0226326646741328 3.0089824024676406 -1.1384511948024825
H 1.8774209009904375 1.670409549528662 -0.3377416798950711
H 0.354318013863291 2.2886644078277842 0.3491676452493561
H 1.6710227485628366 0.2143321121002427 -3.5099007980937387
Rh -0.8041490947802526 -0.3339751485395518 0.7542060262379425
I -0.7049664867156037 -1.1615360355405742 -4.106536384992651
I -0.08870772127163926 0.6706738762569734 -1.7915267483315018
O 0.2904884528579317 0.5088652868957944 3.351514593750528
C 0.39084913881138267 -0.007226483333716347 2.2616086768253845
O 2.109895137535285 -0.9038691281867837 0.6903205088071693
C 1.0468206805790763 -0.6300109929390395 1.226845276467587
