15
## STRUCTURE-ID: 645bd220b952d1664e2fb1fd ; CHARGE = -1; SPIN = 1
C -1.6425636120761185 1.1379929600389769 0.13172470495635294
O -1.6246788159641672 0.9175303599633795 1.2621369696159226
I 3.0696353713270987 -0.20042168633275412 -0.7524084187689309
C -0.8530126890020957 -2.4555205768050947 1.1957315144830793
H -1.4686250754645278 -1.813583053374115 1.8131200891525887
H -1.3474458723059337 -3.3924197490933716 0.9695675264821845
H 0.12194499032986961 -2.624443360983106 1.6383354273998154
O 0.5360932900238611 -2.6857726846836396 -1.466810279033616
Rh 0.6402239554574154 1.2773230896747503 -0.8421656501294235
I -0.0939190517204767 0.5714926613946723 -3.3011981575533476
I -0.5289877612403647 -1.449187065680062 -0.6759314119619383
O 1.6186046015262723 1.8566333039616456 1.9179885254611597
C 1.2379355252963449 1.6692193614939193 0.8527427399442001
O 0.10294455039111844 4.14607506665758 -1.5132883500144054
C 0.23185059342170672 3.045081373767196 -1.229545230033614
