21
## STRUCTURE-ID: 645bedf4dfa6314d167e8a9e ; CHARGE = 0; SPIN = 1
C -2.4134431231833786 -2.2294243544726493 0.23438898085287765
O -3.070396853373318 -3.154977568901474 0.38355463867479533
H 1.3221144421425979 0.2737683025879497 3.134733134438284
I 0.5796603887495221 0.5870782005546162 1.510361068316561
C 3.1951195764186417 -1.826625588874508 2.2429948198950473
H 3.308260865245449 -0.7554416329858061 2.001769491931214
H 2.115411991124229 -1.9781508128230019 2.4083180778551
H 3.735224518577246 -2.04068459555402 3.1744748479424967
O -0.23492763861695648 3.835113974760573 -1.836242301900889
C -1.8355654902436667 1.9299213114370593 -2.520109237223103
H -2.5483619615962154 2.732319369796549 -2.3304055216995443
H -2.3747372791228774 1.0026608439809164 -2.74707976769003
H -1.2088439435541016 2.2120035678293686 -3.3608406574526164
H 0.4259553004260165 4.395180060212699 -1.42903077523519
Rh -1.5468650955157452 -0.6414527757288218 -0.18374157999801358
I 0.5116543529965967 -1.9031120350789388 -1.1148608316271502
I -0.656921050433694 1.74690606647919 -0.8574196837285498
O 3.9926972690717286 -3.2483636880721183 0.3803200701261157
C 3.6223596467862214 -2.5995141522531022 1.2197743046433935
O -3.8946127850782988 1.2025713764847514 -0.2600504168501101
C -3.0237831308199827 0.46022413062076634 -0.0509086612706928
