20
## STRUCTURE-ID: 645bd13fc944c620e3315faa ; CHARGE = -1; SPIN = 1
C -1.7953216448121696 -0.05735865413289473 -2.1872991150742624
O -2.01201179019792 -0.010204522481465944 -3.3344118622515415
I -1.4962980295847867 1.3886972770248376 1.9805499663696662
C 2.391503755730124 0.8101304125510905 2.412335450006647
H 1.4752074181311496 0.4699143281198964 2.9001972227244672
H 2.786224327127379 1.6690949256405567 2.952096676681742
H 3.090270213946833 -0.02440504496725435 2.4111392188188483
O 0.15158006538430416 2.1987205690665594 -1.6101743278865694
C -1.0760981344379115 -3.695588117705305 -0.4864779626960023
H -0.046913000280360544 -3.357148002848707 -0.5586572561141431
H -1.5240173096648797 -3.7966800737315007 -1.4679136927944127
H -1.152879072781829 -4.61265914725538 0.08513832264805939
H 0.2828377334098049 3.0873334257275236 -1.9914241763068774
Rh -1.4764723032384526 0.2519895746063746 -0.41525913071851034
I 1.5054365144609692 -0.5604888464676626 -0.20042854293929838
I -2.1788961706194967 -2.1624193709928456 0.5951454260896311
O -1.9416259190737493 2.928514177276203 -1.413544079472072
C -1.1435767863376556 2.0138724897960136 -1.206960428033085
O 2.089196645554619 2.2514899872357126 0.49430363962972307
C 2.0718534872840055 1.2071946135382405 1.0416446513179871
