20
## STRUCTURE-ID: 645bdc9b137fdf1274507c5d ; CHARGE = -1; SPIN = 1
C -0.7980575371582889 -1.2178411504686442 -0.9057570874276921
O -1.5524645110967885 -1.6747261823111605 -1.6567001680332456
I -1.9717263745674731 2.6129820397871324 2.8738645862933616
C 2.4936613099021594 -2.1769646188540035 0.39096878637824023
H 2.6031003708808864 -1.8763978118037052 -0.6509525946600924
H 2.9140794793903577 -3.1702634874690925 0.5399023929663166
H 3.034437381091484 -1.4497165933253162 0.9965834412197845
O -2.882537152124701 2.0916898500566434 -0.33490620841521546
C -0.9152654193166759 1.8727057895009238 -2.172405990791161
H -1.95182220322602 1.967142007725911 -2.467239461417608
H -0.4978713691736323 0.935029509824994 -2.5188830464707674
H -0.3260648828633007 2.7081607888975467 -2.53263709288423
H -3.326557219547853 2.3614396695496573 0.47232882889253797
Rh 0.07958859821524754 -0.4232658115652012 0.5317736803681291
I 2.013814927043911 1.5231471754056614 -0.4786311541161066
I -0.9435384275074151 1.930826246185494 -0.02689081526869555
O 0.5040830653811955 -3.1916716103157663 1.2129262847986417
C 1.031354032071697 -2.1818377693648277 0.7846467443248364
O 0.229851784238762 -0.34731514082926584 3.5450383988565624
C 0.26193414836642315 -0.29312290062691826 2.39697047538648
