21
## STRUCTURE-ID: 645bee236f3f965e27315faa ; CHARGE = 0; SPIN = 1
C -2.0415977787780113 -2.6152934105650063 1.9944614804835297
O -2.719585052975541 -3.42752342584465 2.434164781385325
H -0.3619554239457608 1.1912039696753522 3.7557254662064845
I -1.6029583400340823 1.0607454373529843 2.7866664500877874
C 1.9958950828857616 -1.8497255584378207 -0.15489167199769938
H 2.524805302425977 -1.5581718755081027 -1.062431682127205
H 2.6920666143017926 -1.7891133922748454 0.6845494443315685
H 1.6506362446519873 -2.8824895856817765 -0.21859914514963763
O -1.295700016730123 3.676868652546087 -1.076538835073421
C 0.6461219178457482 2.1843792832579934 -2.4097301930978587
H 0.17913354635890646 1.5097291643043518 -3.1168025105170427
H 1.6853373856953102 1.9309454396251646 -2.2449652181212976
H 0.5115592832002458 3.2200497646325292 -2.6961089676931707
H -1.8537958647113868 4.026481316389027 -0.3755895924214959
Rh -0.7052439780302447 -1.5771312155250252 1.1754971923171116
I 0.8285657580774916 -2.2443047045420856 3.2141954718003327
I -0.3491267245889865 2.0010076357730835 -0.557422835521441
O 1.01486250184707 0.21168743528990522 -0.4579475204055225
C 0.8544887957897194 -0.9022945254414594 0.130348120007834
O -2.0538513954540383 -0.9402080041589416 -1.4113060455898203
C -1.5996578578318383 -1.2268424008667596 -0.393274188904375
