20
## STRUCTURE-ID: 645be15797e79c06ce602454 ; CHARGE = -1; SPIN = 1
C -1.6872110231376802 0.38454176977597865 -0.612202298055684
O -2.781733862584762 0.6771811263486733 -0.7834654620740885
I 2.2458571789700326 -1.2120310899050566 0.8580562384007884
C 0.64112696852021 1.6898096529113689 0.35216206755353174
H -0.053930172710685335 2.472409223737492 0.03163521988399424
H 1.6093491526248702 1.8951731827298328 -0.11550913594399859
H 0.7757982963771463 1.7823962337684873 1.4342896665181295
O 1.3235801630379123 1.930689628936148 -3.0848785547910227
C -0.6146272201065232 -2.5162009430229877 3.2705944598892795
H -0.9913172284544536 -2.665218947068384 4.275108693010162
H 0.4698325765914313 -2.540411745808151 3.2379269956348953
H -1.0413290962935025 -3.2265080774800508 2.569848234569581
H 1.0899329195093514 2.7572054807594024 -3.5576404137632434
Rh -0.04786413291746334 -0.2622812330204317 -0.09114351076315527
I -1.1066695165353315 -2.744380640940983 -0.6807348960369268
I -1.2343681918125815 -0.5317268812523229 2.643048151087319
O -0.8675611077749564 1.6654730923348817 -2.728124127592272
C 0.2799474408156685 1.289553765803645 -2.6121416543434526
O 1.3258274113885937 -0.8326186290875645 -2.4998852741931175
C 0.6653594444927154 -0.013054969519975508 -1.9069443989907118
