20
## STRUCTURE-ID: 645bc9b1412b6f0fa95c012a ; CHARGE = -1; SPIN = 1
C -1.9283086888011571 -0.10471158116731363 1.6379398837591617
O -2.7427018871270756 0.10386302041782498 2.42395819005765
I -2.3001650076270272 0.9706791269414368 -1.312449464651937
C 0.36078799684806323 1.730945248941805 2.288429425441207
H -0.2573596503058027 2.517309675699314 1.8589519801471448
H 1.248464382153933 2.1980213320552844 2.716229293179827
H -0.179472182846082 1.2143736211488518 3.0810841552682358
O 2.5376731437117526 0.6213806725119383 -0.4357292576406316
C -0.6103474518051385 -2.358219352277357 -3.119364670530504
H -1.4198587465786168 -1.666889815725767 -3.333011746732041
H -0.9824782372457842 -3.244054686138608 -2.6149044873569287
H -0.06122693433074282 -2.6128264294749086 -4.018063840182879
H 3.1052580729692094 1.119182233177661 -1.0571622067459923
Rh -0.7209872221239685 -0.48070935605043585 0.3422948170684057
I -1.9333260915872914 -2.9526493182144065 0.4592834579803549
I 0.7707873616527643 -1.349561675567022 -1.7811755114063685
O 1.619424253929493 2.6193789326186554 -0.036682848396761
C 1.661974220722874 1.423444388609512 0.1812401690354177
O 1.0148797704033314 -0.49358259812733246 1.5041660098633634
C 0.8169828979831186 0.7446265606217395 1.2149666518428563
