13
## STRUCTURE-ID: 645bb8d612d60e553d0fad26 ; CHARGE = -1; SPIN = 1
I -1.6353295632395777 -2.7358420079271286 -0.30278127311074254
C -1.429406937364663 0.6809692046468013 0.2736743759037081
H -2.038045181455269 0.771322481922357 -0.6320905017195354
H -1.0420933298978314 1.6681893357517468 0.5446910068988369
H -2.078373684014432 0.3394436358645246 1.0829320054038818
O 1.3350199894167776 1.233075783652253 -1.6419888513395717
Rh 0.12668062965818438 -0.6830119751568077 -0.14754204744174018
I 2.4015669158516673 -2.0502440830844013 -0.8228488073394696
I 0.12010561135302174 -0.04403669991078909 -2.8639934998420857
O 0.632269183393515 -0.8332309658071525 2.767380980448067
C 0.4252687442405735 -0.7585805382583076 1.6464311580427538
O 1.8895723688194517 1.5071191038175937 0.4823429708246048
C 1.2927652532385818 0.9048267244893173 -0.3862075167287075
