14
## STRUCTURE-ID: 645bbc0332488938ca32ebb0 ; CHARGE = -1; SPIN = 1
C -3.0332018509902516 -0.26317143206635346 -0.13731516477498104
O -4.173787421730628 -0.24950580594974928 -0.013932445606722863
Rh -1.145814430074883 -0.30764682333856885 -0.048862702993535456
I 0.13897453667462628 -2.0421206266109975 1.7190715094784634
I -1.5917266308615492 1.5297526705086815 1.8358774652709164
O 1.7244643524999852 -0.742013908814009 -1.0914919350222592
C 1.3379205656392585 0.17873780801654982 -0.4386269117644064
O -0.9024886207966282 -2.506387536672701 -2.0426866514200657
C -1.005274875030218 -1.6425161402102009 -1.2939970099450073
I 0.04389261895239436 1.698921072152748 -1.7659843097538475
C 2.007781509671799 0.9441210228367143 0.6307427986645658
H 2.7501117831545256 1.5827445158365063 0.1459651764139335
H 1.3342080290637388 1.5762071295281734 1.2063894451924797
H 2.514940433827843 0.24287805478319338 1.294850736260466
