15
## STRUCTURE-ID: 645bd5676f89e07330315fa4 ; CHARGE = 0; SPIN = 1
C -2.3135440252788646 -0.6836906902207086 0.21168987471406348
O -3.381667574339348 -1.0611996713451426 0.0926646568031535
I 2.0515926911697946 0.09802856770063575 -0.19246624026285875
C -0.3344399472161443 -1.5945096647689805 1.7222182701353472
H 0.5577000057924169 -1.3378530070006287 2.296268802137763
H -0.1650247082462345 -2.530853556769722 1.1894456587765556
H -1.1837110827482662 -1.7095988582835342 2.3931379521929452
H -1.1581556597671303 1.1506181179505126 3.638843899257056
Rh -0.5845352777693549 -0.05306354602642086 0.3077659766864633
I -0.8208678211069584 2.002553477333791 2.3424538324100044
I -0.7054695448061871 1.6198758995655909 -1.9268742929547908
O 1.2115116827076589 1.5723793181254981 -4.129818322407891
C 1.1645435503454267 1.258789173921697 -2.956617367668171
O 3.380978965948051 0.5616260809986814 -2.744220533376678
C 2.2810887453150763 0.706898358814596 -2.244492166431793
