15
## STRUCTURE-ID: 645be961cc5716648c53cd28 ; CHARGE = -1; SPIN = 1
C -2.3844284520966115 -1.335801834114523 0.02742670749075678
O -3.4906649249397117 -1.4563771139223958 0.2993814125466175
I -1.426869479535324 -1.1035687059448036 -2.93409590135487
C 0.08715960478665788 1.5743637317665968 -1.065718196083816
H -0.6635760804102038 1.8902263210908254 -1.7942601477054085
H 0.8971034113370914 1.0868351134106227 -1.6048987401246129
H 0.46369569163414276 2.4491087873807755 -0.5362238257906915
O 3.1261885021787967 -0.3967593052771428 2.7868909158161794
Rh -0.6035977883655848 -1.2849504538374072 -0.414416742159079
I 1.88068887933079 -1.821514904266547 -1.0957169175861483
I -0.26924898351358617 -2.2791052919053074 2.057564315190868
O 1.738354697534569 0.7233930858107119 1.354457109874681
C 2.43018934705268 0.1557035119233947 2.0710527385564395
O -1.176218224121994 1.0934661584150138 0.9122634413412372
C -0.6087762008717337 0.7049808994701997 -0.06370617001216015
