20
## STRUCTURE-ID: 645bdac9957ce307de108f0a ; CHARGE = -1; SPIN = 1
C -1.9764150882608036 -1.0771662634315426 -1.1619211384638006
O -2.4241211531182225 -2.044635674855262 -1.6431124688917058
I -1.035560305149907 0.10472581699238895 1.9249251056898413
C 0.8784112503178578 -2.249941488493877 2.7751692053465593
H 1.3121878792254664 -3.237887694983301 2.624735921805004
H 0.30817756539429425 -2.1974233485413515 3.7026359902031447
H 1.6625387636931328 -1.4951018243899383 2.8534868489478593
O -0.7980584884798002 0.7617600508677866 -3.4157039910713545
C 2.2773205441516304 2.0184102358452716 0.39953812098799313
H 3.3427523883798433 2.1580625597730907 0.2725930832692301
H 2.0269046572634966 1.7232579068208898 1.4121631620284403
H 1.7235277336260169 2.9074236505891213 0.11866019924658643
H -1.053131525400936 0.891628084715999 -4.348999239743757
Rh -1.434496025980178 0.6022669269931468 -0.6955920349276774
I -1.377752467440582 3.2404456652603164 -0.46541566051026456
I 1.6635684393250325 0.41383033376131106 -0.9458856356116889
O -2.9882938086688893 1.0230996261872474 -3.1032854865796256
C -1.8854161128030233 0.840762375159199 -2.584874544062479
O -0.24087629065705382 -2.457736991571675 0.6321570574307808
C 0.01873204458261741 -1.925779946698818 1.6487255049069156
