18
## STRUCTURE-ID: 645bd2fdcb223e01462fb1fd ; CHARGE = -1; SPIN = 1
C -2.931685936812575 0.9181873682518601 -0.7759035814139607
O -3.39709173059577 1.9850637767404968 -0.7130908648257896
H 3.4936466470535814 -1.4249912987317466 -0.14976572125897666
I 1.9374724082257633 -0.8346433859081503 0.1633116069606267
O 0.7009864966176875 1.7720672636469192 1.1931287043595453
C 1.4985761771209702 -2.9619814358566994 0.12256998408344197
H 2.169124880465374 -3.432975318479327 0.8366384272507976
H 1.6415411468943617 -3.299976387590328 -0.9020216421702518
H 0.45902849148010366 -3.0648904028477553 0.42130446018909384
H 0.8941238987129106 2.470561557616196 1.8482119091182367
O -1.9128330159048432 0.37192907554534005 2.6161997987096273
Rh -0.8415612164627158 0.5294589866977429 -0.7793195804251825
I -0.834509877388317 -1.590258763715996 -2.3395899348409097
I -1.2076356323550925 -0.8963290539841857 1.4421612708643392
O -1.1657305888592286 2.9402081450737385 0.8445418686914786
C -0.496194212120212 1.9573248764937552 0.554307698288573
O 0.17676713185746518 2.754705791720944 -2.4745475218625175
C -0.18402506792947781 1.8065392053271918 -1.908136881718163
