20
## STRUCTURE-ID: 645bcca43d554d13a239f2a6 ; CHARGE = -1; SPIN = 1
C -1.592522669238085 2.6624382926533254 0.3498027053036608
O -1.7585380527003944 3.7599675632417644 0.7628594292710719
I 2.425717943867544 -0.7542253019465923 0.7404631049550676
C -0.14821806996309744 -3.0962591460747655 -0.4168819069153014
H -0.2877156021795082 -2.9967754611598427 0.6976733391646844
H -0.5219354303056732 -4.143436540748415 -0.38633526049893296
H 0.6805149560378181 -3.3453696713111376 -1.1252029962070458
O 0.9093988645522364 2.5571241949972294 -1.5827929903820321
C -1.2116515545804163 -2.254086929057388 -1.1312657910119877
H 0.7707272370908945 -2.4325969159538086 -0.010924154536118549
H -1.4459955825233581 -2.6414870863281634 -2.120492863998747
H -2.1131840562197675 -2.1475840089780385 -0.5309687581367849
H 1.4233524705413256 3.2400272925281532 -2.054778468645651
Rh -0.06669380784188683 1.3976585545498965 0.8089387597116902
I -1.4769509414943691 -0.38061115508533794 2.1673717354127584
I -0.589744607650764 -0.09920376874335099 -1.573187093140655
O 1.643840652362484 3.6757677164905624 0.1888631931426269
C 0.9841530548274712 2.7142762485765237 -0.2160904587856329
O 1.4839923516613018 2.362661068433412 3.167909739854776
C 0.8914528437562477 1.921715053915948 2.2650387354425687
