15
## STRUCTURE-ID: 645bd49a69202018036df39d ; CHARGE = 0; SPIN = 1
C -2.781457309703479 -0.10611268138553837 -0.8235377627043863
O -3.4356956029234222 -0.508636560065319 -1.6726722002827703
I -0.050360100886428366 1.7952929631219063 2.1709928963333742
C 3.1182893902113498 -0.6037671047055848 -0.3434853456950937
H 3.3560177205794375 -1.5919376001039371 -0.7381382497249589
H 3.274541529220519 -0.6515148062114033 0.7365365714180251
H 3.762466996590534 0.1593615286473444 -0.7793911544793983
H -3.9259038013417773 -1.712930035167137 2.107120101200033
Rh -1.6593940861463594 0.5958390212849664 0.46009869267212583
I -2.892963555669339 -0.5960564575976738 2.5669017108427155
I 0.3287760213476933 -1.8536038540306357 0.1688043793002718
O 1.1916082671254096 0.6408581142197831 -1.1228090037604814
C 1.725186086182598 -0.27500369140630126 -0.6062579553644759
O -0.8625259990330881 2.7917541467985005 -1.3996471673443007
C -1.1485855555536755 1.9164570166010289 -0.7245155124107043
