20
## STRUCTURE-ID: 645bdc9e137fdf1274507c6b ; CHARGE = -1; SPIN = 1
C -1.7990836307852411 -1.310337355392687 -0.5260088759425512
O -2.9345464630229023 -1.1817766800687266 -0.8166889008527023
I -2.036833611241842 3.288528647724332 2.866351613563472
C 3.481563498055489 -2.1991856867314294 0.2763967075211648
H 3.6182912455817866 -1.5840708391845335 -0.6251056922581381
H 4.173421845118931 -3.0426968469209115 0.26778647584507614
H 3.693918491806756 -1.5245664001532548 1.113488471257269
O -2.800897083374315 2.5530843777752987 -0.3818616177394622
C -0.9468957439110568 1.6445966150972808 -2.1531272630186944
H -1.9202150381371668 2.0019095060893695 -2.4626759023626374
H -0.8209482926122763 0.6000332313126805 -2.422069793652635
H -0.1534229788412556 2.2554951577541096 -2.5714747174785035
H -3.1294412455030174 2.901592563663104 0.44480492275305067
Rh -0.4306436474499402 -0.6243338024831251 0.6305619804444692
I 1.724930468760074 0.9235229383656854 -0.3579438981266707
I -0.9756614946928606 1.867024638642219 -0.0052725950271747205
O 0.9931688103985278 -2.5694841371225188 0.3955896494160366
C 2.145142233596287 -2.6071973913259505 0.32201511753294615
O -1.3002390530961339 -0.6066336224793312 3.4549659596553006
C -0.581608310649805 -0.7855049145615705 2.550268358470429
