20
## STRUCTURE-ID: 645bcb7e4dca1e64647e8a84 ; CHARGE = -1; SPIN = 1
C -2.2382048116997155 -0.984229157575459 -0.6931223098044608
O -3.308471474987374 -1.0067128353639359 -1.1690655205892893
I 1.1123310858034874 -1.8801940243896385 -1.38112100817324
C 4.177138960762307 -1.3790357930465234 -0.6716469073977602
H 4.002293326137579 -2.1224857901505874 0.10760107621916107
H 4.3272223923350985 -1.9302891194107974 -1.6005402741042725
H 5.040779935294355 -0.7622172416909037 -0.42278551177928797
O -2.724351531762001 -1.224393635808146 2.269388684310863
C -1.9276219803921362 2.6944259636498176 -0.8097051564718311
H -2.421115980070495 2.172672153895866 -1.6212053444106838
H -1.8942847154671179 3.7602444638555075 -0.9895632183299006
H -2.4142414201246263 2.468552008014128 0.13165057873571617
H -3.3537918440094305 -0.8620026899809656 2.9238224114781635
Rh -0.7260755614721008 -0.7976654229605024 0.30293256626120996
I 0.07069629885865923 1.9701763497367875 -0.6794635196854187
I 0.9744178640044101 -0.9017793129926814 2.3422357536077567
O 2.7667333709911217 0.6027552121009876 -0.6975074942624562
C 3.017554776235745 -0.5304060324837534 -0.7952099872311305
O -2.4016700449673136 0.9379410188675735 1.854812195307599
C -2.0793386454704526 -0.22535611426679267 1.5984929863192292
