12
## STRUCTURE-ID: 645be62e2019aa262e3adfd0 ; CHARGE = -1; SPIN = 1
C -2.1646791816159103 -0.12822470196428432 0.29966623066234793
O -3.0039646633952577 -0.37948625269737857 -0.43598655562716576
H -0.01696548986187098 -0.8479660602700039 3.8073004959259227
I 0.47651297007334825 -1.6642075358916786 2.529312657606115
O 1.4175718473263885 1.7731621507725828 -2.59194926762167
Rh -0.18501206789870864 0.19203245313354048 0.3457272039023813
I -0.2243912287115308 2.2446714418530753 2.096520212681767
I 0.8156601607843234 2.2620342765236896 -0.9156944763263541
O 2.233123214398321 -1.3030934737542388 -0.4555757993958694
C 1.1943591919321648 -0.7697963668195128 -0.7478288566420486
O -0.5570671243229919 -0.721889690173759 -2.4990194418950287
C 0.01485237129175253 -0.6572362407120695 -1.4324724032703653
