15
## STRUCTURE-ID: 645be53f9c2f4e5dda3adfcd ; CHARGE = -1; SPIN = 1
C -3.203869830230001 -1.5430101961833884 -1.0321226384437105
O -4.132040635749903 -2.210707117788003 -1.1184454808540714
I -0.7642317369844049 -2.0824184802352126 0.8974915759916527
C 2.2992499701222493 0.23433435996373098 1.7907051511797405
H 1.445202542185573 -0.04335477394561834 2.414001823278937
H 2.4545564804646745 1.3037046276054187 1.9415951301189878
H 3.1732635413397676 -0.3385349574213493 2.099901896549787
O 0.6785328473494631 0.18789876736568792 -2.2558947114965116
Rh -1.7306469610076594 -0.46356970793810337 -0.8430895232292593
I -0.3457053777146366 2.423924980160844 1.8982127825291046
I 0.31521590743421607 1.1215239859933923 -0.6819067579819215
O -2.4449101417336427 1.4955619328527685 -2.975899493663275
C -2.268047865880531 0.7438197753524788 -2.1256591683122243
O 2.4972679349990337 -0.7721679116791484 -0.40783214958535935
C 2.026163325405783 -0.05700528410349769 0.3989415639181305
