15
## STRUCTURE-ID: 645bd414059e7d2a356006a0 ; CHARGE = 0; SPIN = 1
C -3.103727258093851 0.032207760325660965 -0.5127934361466605
O -3.858492733272035 0.6481656879789464 -1.1142538072776678
I -0.5734899623082255 2.3003377764074915 1.5868835998915873
C 2.2187096450075283 -0.4143601957227883 0.6567350156656756
H 3.1974093575323996 -0.7321700894415256 0.28107383094427874
H 1.7353330023238924 -1.271234051424802 1.1188416186611907
H 2.3760377504793566 0.3773066542405976 1.3950939790825163
H -1.2067701589154693 -2.9656721012265046 1.5013412710984988
Rh -1.0765347201863762 0.19572356771100174 -0.06296415621716377
I -1.145993904206714 -1.4781391542463191 2.0705351063018687
I 0.311655868019942 -1.6305058530261247 -1.6635425194886877
O 1.7042994614654452 1.080769406914025 -1.1895319158564455
C 1.5134895477985448 0.15576682780709922 -0.486730108885516
O -1.04609341299152 2.2481094213703314 -2.20039804871137
C -1.0458324826529046 1.4536943423329087 -1.3802904290621207
