15
## STRUCTURE-ID: 645bd7862eaf187cd86ee1de ; CHARGE = 0; SPIN = 1
C -3.1981697327709053 0.8899486522715159 -0.09558842549218607
O -4.30849846205861 1.1159220177572189 -0.24935315122205268
I -1.9849364169278907 -1.8787459999239722 -0.9378754417823739
C 2.771226892005743 -0.7882676126515444 -0.7280874235089161
H 2.9030333647906548 -1.3568382164357005 0.1922668674997949
H 3.566231182322506 -0.04919404906189231 -0.838452107748846
H 2.8398932182583856 -1.4506286431973165 -1.593222748463207
H -1.3535256697965201 -2.300836901635855 2.6375955570972955
Rh -1.433836560486541 0.4436121086691826 0.10910613149771493
I -1.184491240232387 -0.7944386111350947 3.073215660070919
I 0.9922844735243166 1.0502281078279374 -2.500780775270118
O 0.6252585707963497 -0.16203902573030113 0.13092898144149456
C 1.4659578553032204 -0.12854606386143388 -0.7225253054581826
O -0.706836670789801 3.2403678546625456 0.9022433644420006
C -0.9935908039384191 2.1694563824445243 0.6205288168966274
