20
## STRUCTURE-ID: 645bbf1f4ea8b26b6d36ef5b ; CHARGE = -1; SPIN = 1
C -3.0673914426963185 -0.526255554361462 -0.012352328152481913
O -4.278358624633614 -0.3216957867746862 -0.17020060712072574
I 0.17780864590225554 2.722626602624441 -0.45344890600690557
C 3.202713482256957 1.8021390810583275 1.7932685350967745
H 2.619353316486072 2.7269360538492404 1.916616953971919
H 2.5826576923197173 0.9718330843571449 2.1665483294167656
H 4.12717694351096 1.8603340759379143 2.383264041482917
O -2.7097143941598656 -1.8423416549050813 0.26144271941998526
C 0.1788366155890656 -2.2073689560980574 -1.2853754862257154
H 0.8249327723102926 -3.0694795553522725 -1.3808430865602137
H 0.25349597458819606 -1.555669105885207 -2.148185850467951
H -0.8529678078282354 -2.4964427817001287 -1.1263344613065884
H -3.5060404008160098 -2.397957251796066 0.3548312612436765
Rh -1.6116078991728173 0.7770022311689263 -0.150414546636981
I -2.025009237949596 1.3100220144995762 2.4111238399059225
I 0.7881068224819933 -1.099223322649776 0.42190237613709813
O -2.11987913105145 -0.053391715368928096 -2.961808897574612
C -1.8080766103709733 0.33780030663366767 -1.892014886166897
O 3.750721099125633 1.4499674401760487 -0.6002126811669993
C 3.4732421841077534 1.6111647945863774 0.47219368071102025
