15
## STRUCTURE-ID: 645be0351b3cd979dd52ff53 ; CHARGE = 0; SPIN = 1
C -1.6633212399688029 -0.3019941747692527 1.277943837320425
O -2.799747461968309 -0.6496957065657557 1.2784107353259302
I -0.743576216661447 0.3815325481888284 3.1604151690732336
C 1.233920474642633 1.7630954470899722 -0.04254570552844311
H 1.832197106633996 1.4336151933665067 -0.897091760486031
H 1.5428760649535624 1.168401209320721 0.8249211000377363
H 1.4251843673682207 2.820923381566515 0.15480605665101754
H 2.019265984728916 -1.8684335622451804 -0.8186967810231361
Rh -0.924710305052791 -0.27604116813047797 -0.5324228675766054
I 0.8227954179698149 -2.1457105744842675 0.20685387520715962
I 0.7288296424530873 -5.2337034422231925 2.1031260603151263
O -1.1400828192932406 2.262850941259308 -0.42792916674823445
C -0.18334046870705162 1.5764690750700012 -0.3152316629105713
O -1.2749401930941817 -0.5664582433219173 -3.5075655026451678
C -0.8753503540043991 -0.364850924121846 -2.464993387012406
