21
## STRUCTURE-ID: 645be868b34e082d407e8a90 ; CHARGE = 0; SPIN = 1
C -2.6155242566354104 -0.33189255028630466 0.15371985456648435
O -3.6570565837274716 0.04697453307734165 -0.13943356415319239
H -1.4266822132235517 -3.7912908424772085 1.7070482861333571
I -1.2042804727066783 -2.491570273924819 2.598860929909827
C 2.1646136399591374 -2.16513099724654 0.8195510950358044
H 2.7595259084172254 -1.677876439756533 1.595447246285011
H 1.4404648965579818 -2.8405289847914643 1.2658134305772906
H 2.8311850023314715 -2.755350776199554 0.18298918289356897
O -0.3553044923012146 2.567277215150868 -3.103715761712328
C -0.8936128008020909 2.8816618539746863 -0.48431226815631734
H -1.3341922786607623 3.5695163999002473 -1.191536084389305
H 0.059430517359722795 3.2638549637263536 -0.13864643482896868
H -1.5579845265815002 2.6802793275777947 0.3489265149975231
H -0.07134960768397458 2.166892944740966 -3.9242554017876756
Rh -0.7762623939926695 -0.5211336712443093 0.6374654451502102
I -0.1372626526381279 -2.2914783377387757 -1.4591860363252735
I -0.5506285724061231 1.0859053263951988 -1.535315818314967
O 1.1753606245533952 1.4016311621046365 1.8832914805713514
C 0.5000078067007914 0.5622498884682985 1.471429138036786
O 2.063250477001617 -0.2357685470779211 -0.6538867401339008
C 1.586301978478228 -1.1242221943729622 -0.03425449435530309
