15
## STRUCTURE-ID: 645bc9e4d7c83063fb2fb1fd ; CHARGE = -1; SPIN = 1
C 0.21134456580863067 -1.0492156419587972 3.0167658302617006
O 0.35834694240431275 -2.019074761545922 3.62208600648403
I -1.8858357717655834 1.3603517505141611 0.06301006978796085
C -0.2286087064183397 -0.031317616262079136 -3.420869087049029
H 0.05272629507264239 0.5613253187370391 -4.285709520099565
H -0.016683988270855474 -1.082697226619032 -3.5749839954788194
H -1.2654988548708166 0.1407482461704599 -3.1523451116308903
O 0.5952949465885741 -0.9741573960165887 -0.8334497163620042
Rh -0.0732487288178611 0.32639592745215934 1.7780199922267244
I 2.4870480903669603 1.3670494770331458 0.8123238888889743
I 0.9960983526053242 0.6516770681838764 -1.7871665854764087
O -0.7171850619002584 2.546093915030855 3.7089857763857257
C -0.41569591498836844 1.7022209470111191 2.988915509459747
O -0.19441376265682014 -2.3429274598932865 0.5930793410279734
C 0.09631159684246202 -1.156472547837105 0.47133760157388144
