20
## STRUCTURE-ID: 645bc102bed341391a6ee1d3 ; CHARGE = -1; SPIN = 1
C -3.1400493444191184 0.705802196809857 -0.6292240048653901
O -4.28626958561761 0.6993479260851635 -0.6719388728563362
I -0.2976849716592291 2.552705221338261 -2.792916521846603
C 1.813296518570814 -0.45861831353113774 -1.8689064855052897
H 2.8764378874085277 -0.5584528130932903 -1.6489239916525007
H 1.3749427067535465 -1.4365282739388685 -2.0560789256508363
H 1.7213615299238187 0.15530836301238998 -2.7643063091538247
O -0.17173210941550662 -2.688474302430925 2.341001613221877
C 0.5456362538260301 -0.12176484242665371 2.3322076479052885
H 1.1520061997324853 -0.7321208393440587 2.9863807605397406
H -0.3806350058360565 0.15345422461317385 2.8204430329476686
H 1.0816002876597366 0.7460535462869208 1.965715816335224
H -0.44008338073336767 -3.567747685875186 2.0685340273214905
Rh -1.2686707587290158 0.7501408868966976 -0.865910899234459
I -1.671297469170566 -1.262939743658977 -2.536483831999275
I 0.0646927733071198 -1.3123496550216864 0.6462714880018178
O -0.8085176801874099 2.947133094093893 1.0873013337987734
C -1.0125631640848398 2.0916560980626553 0.34883380901719335
O 1.681845611853973 1.1293663542515822 -0.0719985466535625
C 1.1656837008166783 0.20802855787015223 -0.6900011396710238
