15
## STRUCTURE-ID: 645bd613dcf0dd2ea95a484e ; CHARGE = 0; SPIN = 1
C -3.237029054318859 0.4971378013703412 0.5324677368166625
O -4.352008969603722 0.5362213496494145 0.7828789820670549
I -1.842739511993774 -2.2176492241777193 -0.19238196412057001
C 2.8347673074045168 -0.8689771356847907 0.22098677623469812
H 3.5870208717220913 -0.25990107433720255 0.7241895631621985
H 2.9782636999331613 -0.8413294004306963 -0.8589909478635142
H 2.960836894803672 -1.888950452055656 0.589955302559248
H -1.3167425919793967 -0.6567549478665136 -3.4732046527264244
Rh -1.4578049523097836 0.33989074282694326 0.12905973596650727
I -1.2327388011301397 0.858433961566959 -3.04329457333662
I 1.0040236644478318 -0.3523225112969828 2.6844908112392813
O 0.6315937637095472 -0.028429733937296534 -0.1942899423708103
C 1.4931270366745277 -0.39202817077197954 0.5553126458114552
O -0.9170820976347743 3.1737093945876147 0.937884913580287
C -1.1334872597248995 2.100949400557573 0.6049356129805561
