15
## STRUCTURE-ID: 645be4fbf5e7853427315fc1 ; CHARGE = -1; SPIN = 1
C -3.2285450065601924 0.07227818593262744 0.9357861930939402
O -4.378953933118638 0.013282584960334872 0.7474518595056779
I -3.785601590595822 2.1587440236922357 -2.3805036806066893
C 3.82130392158758 -0.7674304091713541 1.1211571818444934
H 3.990850341541965 -1.287499545622373 2.072420643471462
H 2.83299871351479 -0.2631219005515448 1.170776166377638
H 4.588720692064166 0.0029238094517035824 0.9722693367001088
O -3.729773861797695 -1.8168571297663751 -2.5478964242244873
Rh -2.0816033514718955 0.9835944821348948 -0.5600076126973994
I 0.2853886751731839 -0.02898913102638825 -0.08072089616633515
I -2.109841946024215 -1.313230856016008 -1.7582557497726539
O 3.8003932178968185 -2.3678674573413345 -0.7694811090109752
C 3.7930531853867593 -1.638771174191735 0.08178904409278043
O -1.893567007782153 3.6487114837944334 0.7445838348366857
C -1.9048220498153872 2.60423303372005 0.2506312125555994
