15
## STRUCTURE-ID: 645be44d6f0db6627a2b1b6d ; CHARGE = -1; SPIN = 1
C -1.5804778064291247 0.837009816127801 -0.81968008730577
O -2.6479624054610524 1.3391711899592578 -0.9110523026482843
I -0.48673482836946086 0.577499137770595 -2.790474982794548
C 2.017166269206088 -0.7709936426649833 -0.23776842579213778
H 1.414734504055947 -1.6484158728591778 -0.48017889444771017
H 2.612533524254536 -1.0015538892231681 0.6521762534807534
H 2.6900667500082247 -0.5439046355585665 -1.066547998783958
O -2.8669723046089084 -1.7956659432779856 -1.554589458087018
Rh -0.663746266132322 0.06538561506134331 0.7392639301697302
I 0.1817928944485906 -1.3421737526308486 2.787990528073947
I -1.7464365263061035 -2.1425254477117703 -0.10534844530007988
O 1.5814138784506273 1.5875322949817934 -0.04736552681848298
C 1.2378738346000282 0.4584107085920676 0.0584209255179175
O -1.0060168842251855 2.675299597798508 2.1571779346022315
C -0.7372346334918859 1.7049248236351506 1.6179765501334715
