13
## STRUCTURE-ID: 645bb2e36e94f30c2a32eba4 ; CHARGE = 0; SPIN = 1
Rh -1.0789146893735582 -0.05958668186223956 0.32119062571564855
I -2.417894539081433 0.5228320176483071 -1.8480121956711277
I -1.2622740029289037 2.383427651085479 1.3093673852944057
O 0.22050166227863474 -0.64440101968929 2.9482616792393035
C -0.24684802566236932 -0.445501896898367 1.9280003263359133
O 1.0480690470771092 -1.1636450697937546 -0.8951434492096285
C 0.7233952192219922 -0.0563263830925645 -0.6307757512308605
H -1.0004306126059106 -3.7189286931542576 0.8167198864494166
I -1.9511615678132346 -2.743512670738819 0.0038807278224260804
C 1.3684060403451668 1.235107310944975 -0.9322120606626702
H 0.6895806426074576 1.9018843312648472 -1.4692481224659586
H 1.6545481867912486 1.7465588516473076 -0.01080948131145834
H 2.2530226391437758 1.0420922526383718 -1.5412195703053861
