20
## STRUCTURE-ID: 645bda5168695630440fad14 ; CHARGE = -1; SPIN = 1
C -2.6714849782848975 -0.1737760121917583 -0.11971137534224399
O -3.8028377937954625 -0.3445727874918083 -0.12834167010333986
I -1.1383271658105552 0.9057106127772062 2.5223098482815605
C 0.8383033350225416 -2.120711144979578 1.0441875576418014
H 1.1389844585351125 -1.4561585176889673 1.8534522100290147
H 1.586016415957599 -2.064194370563022 0.25183440664403123
H 0.7732809694740874 -3.1439484452462434 1.4137095802822954
O 0.5583673337690801 -0.9819519928642257 -2.2401617397114677
C 1.779940216861451 2.9531119842327356 0.8290024447677348
H 2.8121886963510767 3.2842115525166147 0.816971329366223
H 1.4140685041956322 2.812502871763311 1.841430239564248
H 1.1348627194343477 3.62556103706128 0.27102277084389026
H 0.6215316886223211 -1.3641821983573732 -3.1396631613039876
Rh -0.8778264900288382 0.16971761211700376 -0.10032240748371915
I -1.6646483908423466 2.645575882205129 -1.179328733264587
I 1.7175976088833929 1.0180535820602348 -0.16616331291292333
O -1.6124210500204916 -0.8379772555564153 -2.702751049508746
C -0.7039273041952808 -0.6280634058103117 -1.918909837659575
O -1.3916520840223812 -2.565703406580932 0.3708920710572123
C -0.5120166901065265 -1.7332055974029816 0.4805408288127045
