13
## STRUCTURE-ID: 645bb50a545f03199f7e8a93 ; CHARGE = 0; SPIN = 1
I -1.7128572309792849 2.3342447990818433 -1.4146287978606042
C -2.039615668028076 -0.5259100544391805 0.4289575407325831
H -2.479256861110831 0.30053967804759046 0.9863368919552589
H -1.6493549281457391 -1.2850445486835482 1.1068864202007234
H -2.763525306998301 -0.9544129592390481 -0.27123579964153127
H 2.2565957252407958 -1.6569877106987536 -0.24440470816325427
Rh -0.48782451742563177 0.1898514310429311 -0.7383242587763227
I 0.5105473958011177 -2.2121645317265317 -1.1334960312268105
I 3.4712879983853906 -0.4803272611348705 0.49475375482443634
O 0.5529477429714704 1.013483150310438 1.8236421051633422
C 0.6656913202753252 0.870951666592126 0.6489863075665402
O 1.9289384520823232 1.4257254804002553 -1.3834580012432596
C 1.7464258779314477 0.980050860446751 -0.30401542353109645
