15
## STRUCTURE-ID: 645bd83f2d7fc003c2315fa4 ; CHARGE = 0; SPIN = 1
C -1.807723629986837 -0.1777002443348307 1.154352375023622
O -2.8975852467081116 -0.1485535009428933 1.4611077244708703
I 0.10843686456363927 1.362162084756454 2.8753361916897817
C -0.23050485082793515 1.4180947603830716 -0.5769270609505456
H 0.45522341682236217 1.34307638577473 -1.4227663190715454
H -0.006609326564936134 2.3288379014678067 -0.02099475556489349
H -1.2497864057413548 1.4924506598064313 -0.9599654503050828
H 3.126321644328768 1.294213607513235 0.21809423036862355
Rh -0.02265507458787259 -0.2827852537137071 0.7078139415558085
I 2.7375283132202095 -0.23720054637065033 0.41402355340558744
I 0.18253956581330516 -2.6069334843900096 2.249168330542059
O -1.6746883695931563 -1.9494623141333673 -0.9716441120592122
C -0.6040372814915861 -1.39029335168247 -0.9485348787852833
O 1.48532167656007 -1.1691665928534423 -2.27449714662439
C 0.3982187041934275 -1.276740111280295 -1.9045666236954761
