15
## STRUCTURE-ID: 645bd210f9f2da6a55099df8 ; CHARGE = -1; SPIN = 1
C -0.7166471468445059 3.0972503621678387 -1.5569536535322706
O -1.39565732853926 3.963342522984145 -1.8705219971491625
I 2.044701025258521 2.8573775940045927 -3.086334939801439
C -0.9224125505427955 -2.8856790506162886 2.1150296149759926
H -1.8312791990050925 -3.4733376035976327 2.1234914210790934
H -0.04118194451418242 -3.511392768216211 2.1792538095364495
H -0.9263144358120048 -2.133159371890284 2.8936963673209015
O 0.7769743913023702 -1.0205609699297493 0.4463061641381111
Rh 0.4999767557636731 1.7395603875443304 -1.185459103550955
I -0.8719267959883779 -0.24637527238452794 -2.733921643547873
I -0.8490222335718426 -1.8573479591646471 0.21712341943594812
O 2.9659511564686083 0.058735658001640406 -0.8073887678466146
C 1.9746289199108908 0.6258660707276069 -0.8744590439435922
O -0.5784709841794502 1.2959811580576766 1.5892377599599827
C -0.12931962970645963 1.489739242311141 0.550900592925484
