15
## STRUCTURE-ID: 645bd22aebcbb514bc36ef4d ; CHARGE = -1; SPIN = 1
C -1.702516951086453 1.0386554800233934 -0.0061075372018231195
O -1.7400914052571297 0.8614196096248181 1.1315386479853655
I 3.11805965908531 -0.043606325489707734 -0.5643239335369722
C -0.7851598628896802 -2.4561895599202384 1.2368027085155004
H -1.4693035689927285 -1.8283619876456674 1.7936057353540282
H -1.2144651968128233 -3.4265526180373085 1.0190972957291011
H 0.16994502316985474 -2.5547934394450227 1.7398459732938456
O 0.7587855230516758 -2.7056888202885743 -1.3384228274693173
Rh 0.6203188154320841 1.2856068557896514 -0.8495476697062482
I 0.0752327500357166 0.4545949109181952 -3.3186443853732728
I -0.4075475062091212 -1.4991076045021674 -0.6504743609328232
O 1.3970204390482346 2.0078647286920215 1.940878972965197
C 1.092400891540782 1.7672750233482801 0.8619670688508964
O -0.04429860965344309 4.088819683065662 -1.6673524468082956
C 0.13161999953773376 3.0100640638666567 -1.3288632416651591
