15
## STRUCTURE-ID: 645be9bd2c3259648e60245d ; CHARGE = -1; SPIN = 3
C -2.505538477006313 -1.165948916562679 0.40979866065468534
O -3.2211789078224076 -0.9065843153866261 1.2607868369342385
I -2.5066608013514973 0.31472424740782995 -2.341113691542656
C 1.0813969695592676 1.4690170020070084 -0.5707373766290923
H 0.5628386362519284 1.1590106581605155 -1.482293895050143
H 2.1432059938808377 1.6171185905745584 -0.7731309569021748
H 0.6841655233832195 2.4219930255326667 -0.21940195421379624
O 2.7305428633277393 0.6113277791498776 2.1047173076604477
Rh -1.3090705787721493 -1.5691844081049766 -0.9264241583439831
I 0.5189094818159389 -2.1086902760712913 -2.6907253527569437
I -1.7199358587562994 -4.098384648096589 -0.2501304041814811
O 0.680181175811959 1.4677511741913927 2.56226811371072
C 1.5716437849570641 0.9131101246448824 1.94731413816197
O 0.3495401324694114 -0.588698012810023 0.4785364240567825
C 0.9399600622513118 0.46343797536345877 0.4905363084414204
