20
## STRUCTURE-ID: 645bdcae70d28a603939f294 ; CHARGE = -1; SPIN = 1
C -2.8136745319509617 -0.5734851119376317 0.7065426543761765
O -3.6948627983979385 -1.1692970100484505 0.2619787160580847
I -1.6011903229274316 2.59020887636418 -0.005660626655068941
C 0.9172599663789972 1.036021331679012 2.4573443321799044
H 1.67020027209266 0.7422640946576068 1.721915754888737
H 1.2931875603717415 0.853224244383491 3.4637950758150557
H 0.7254273445311727 2.1043161950906843 2.332489554993022
O 2.5091447294619096 0.3362062943421633 -2.8666053882626583
C -0.13854150910755159 -0.006252956419199995 -2.677027444414086
H -0.19814638878774565 0.9290720180225177 -3.2189043730925575
H -1.1179955158045833 -0.2999402173770333 -2.2906543681746387
H 0.27321505207884833 -0.7824684285413839 -3.3084374945318573
H 3.3887026804734903 0.6515405945377584 -2.6599946979669578
Rh -1.0143221288459403 0.05893456721342971 0.421786097799492
I 1.2003103512392073 -2.621203849550008 1.6312773560070297
I 1.181859629728733 0.27553497330245097 -1.0407435148069037
O -0.7211223142217854 -2.5480666701148227 -0.6330725626763908
C -0.3967571644320411 -1.787237374632295 0.22238801277655534
O -1.0899918929521086 -0.09477518215982542 3.170393602879345
C -0.37270301892866153 0.30540361118736875 2.3111893128077137
