21
## STRUCTURE-ID: 645bee226f3f965e27315fa4 ; CHARGE = 0; SPIN = 1
C -2.4271057131033325 -0.6158916826789633 1.046213031038957
O -3.4676005003847616 -0.5763652229537927 0.5810741480188721
H 0.08343312201517636 -0.4583809297908681 4.247393180894778
I 0.3109846632789951 0.534070966298035 2.9859367027337234
C 2.5518313365763308 -1.4733438823609646 0.6515874665521121
H 3.5258429909816162 -1.093140201292067 0.3440382503481418
H 2.4819457096358297 -1.5053464009832536 1.7382152727611246
H 2.4376199467935047 -2.4975361120909203 0.29211277445772504
O -0.8428772961854781 3.868587620966998 -0.9550139807898289
C -1.0293486096032223 1.4036714307545612 -2.0989583994835606
H -1.9069724131196286 0.7691350533438183 -2.15128560460063
H -0.14687963569725448 0.8976565052312421 -2.4719145681254173
H -1.1898615717574317 2.340196279640766 -2.614287237578467
H -0.6848151568492061 4.554623130587658 -0.30540525834363497
Rh -0.455623650817188 -0.7417370928996003 0.7325795677936245
I -0.30664989091316486 -3.3132317740630675 1.7557974165750398
I -0.675412280984 1.909044841073346 -0.08449158012364266
O 1.7252840714928719 0.16666032025427524 -0.8524933130622134
C 1.4846604337142095 -0.6279042426191599 0.028626825841865305
O -0.7857932573419443 -2.05303404707716 -1.928964051824613
C -0.6826622977319367 -1.4877345593408866 -0.9407606430839718
