21
## STRUCTURE-ID: 645be95c5839746bbd6ee1c4 ; CHARGE = 0; SPIN = 1
C -1.8575068549476526 0.2607785625836464 1.541071209770263
O -2.679065690346349 0.9100415253204633 1.9998628154537486
H -1.6928541763612068 -4.176178449583704 1.3616478616658703
I -0.7324510002434275 -3.385905419491776 2.338161995792593
C 1.885464958359518 -1.1947284974850791 0.2605963555896831
H 2.434905142025627 -1.7038749371368633 1.0529696633528953
H 0.9078542332205601 -1.7690587455724625 0.11103010485296431
H 2.4491853213396286 -1.2288019868340396 -0.6714579712317317
O 1.1088414303929628 1.886052393887095 -2.874625090847117
C -1.3796309499912731 1.8024016655605826 -1.4374268443575189
H -1.3807573754658713 2.622293488968525 -2.147045996646624
H -0.9885323363091598 2.12639312355873 -0.476896233313708
H -2.3610051184415983 1.3496965603711857 -1.349876254122532
H 1.7431824796153088 2.083158424256802 -2.1840068787071565
Rh -0.5233114833115587 -0.8112591162282972 0.8473291330292092
I -1.8902515251824605 -1.7073705984971184 -1.4554187046470808
I 0.004174726014390236 0.42269561395866745 -2.2540138315834093
O 0.9015753559027294 0.7910713505693503 2.961676836428154
C 0.7855270019206856 0.2979091955042831 1.8740901519890332
O 1.7135567982124749 1.1984225054525042 -0.1373565456227915
C 1.5510990635967143 0.22626334083746358 0.6396882231552469
