15
## STRUCTURE-ID: 645bd63994a429560a2b1b78 ; CHARGE = 0; SPIN = 1
C -2.904689193559943 0.33327532014935013 0.5038482634038481
O -3.7681570858702202 0.05950530480329263 1.2019105726413524
I -1.9430322035042888 -1.6969488481084025 -1.5847590503119335
C 2.535012065761209 -1.315686971366275 0.8928015295555003
H 3.1385579782597515 -1.3106663189383403 -0.014258246175668444
H 2.2962870148137973 -2.3401431632096106 1.1830510234998959
H 3.0863858299592812 -0.8762515647907164 1.7250562485122225
H -0.16412658511074732 0.19130053794984841 -3.8284639825104514
Rh -1.5589915330486812 0.7263711423336798 -0.6868287731463586
I -0.38089736258365525 1.5478404791098388 -3.030355219048991
I -0.02050955773595857 -0.4786979011557379 2.452397408027954
O 0.9050802167365805 0.0025464272718447737 -0.2904996418515168
C 1.3028790585294436 -0.5657516327845511 0.6715925407728746
O -1.188634592065695 3.352131609172158 0.6885338959351497
C -1.3351640505811302 2.371175579563628 0.11597343069603142
