20
## STRUCTURE-ID: 645bda3913d0c854d50203ba ; CHARGE = -1; SPIN = 1
C -2.885489112954287 0.6220792672714414 -1.3736425367960594
O -3.8658067519605828 0.8240811175640219 -1.9573706651824427
I -1.166575946185016 1.5794966992439603 2.177724932806142
C -0.8646291611126212 -0.054551801517962344 3.6075385739880677
H -1.760931155342829 -0.12427252789276344 4.21171701540323
H 0.0025913808411510645 0.19685644299323912 4.204804080024834
H -0.7134339035244959 -0.9633618270280724 3.0357125234461524
O 2.1936816173547613 -1.5041892044978116 0.7538780293747847
C 2.1568910591840393 -1.15254696240103 -1.892515101945015
H 1.7255510194414683 -2.136926315155842 -1.7574064471952573
H 3.2265124865160573 -1.178036955133413 -1.7336678320215837
H 1.8853760976844376 -0.7075376376136068 -2.843900112213963
H 2.2214666342950844 -1.3810879904711564 1.705649776322451
Rh -1.295138782859174 0.3461427702056271 -0.5199649476369899
I -1.8140754203661476 -2.096123989911334 0.3607176933943117
I 1.3216416968728282 0.10919214284849453 -0.4082542156467296
O 0.5544040142108274 0.9911208103438875 -3.2141217788429723
C 0.38629224577971705 1.335626061757896 -2.0362355737221027
O -0.7317673774637417 3.2273382928820533 -0.9900953364918738
C -0.5765606404117957 2.066701606512378 -1.3305680770650383
