20
## STRUCTURE-ID: 645be15897e79c06ce60245d ; CHARGE = -1; SPIN = 5
C -0.7247438327478946 -0.791960662246731 -1.9042982064163119
O -1.1910087687786586 -1.8719514233553234 -2.211631348536664
I 2.5792108630357635 -0.891174416424491 -2.2050182269564957
C 2.096963327790424 -0.12997495095084405 1.1794557099741818
H 1.6851834420699707 -0.25160552489082155 2.1810093360872136
H 2.314576087597939 0.9214852708685527 0.9794716053757248
H 3.002925204953233 -0.7289302244729117 1.079120010309323
O -0.6383908330184498 2.8070115588054625 -2.6658181538918244
C -1.4254066082192904 -0.744876600362307 3.1439375533715532
H -1.9940585413048872 -0.18527514259206418 3.87764396936636
H -0.3915795097620298 -0.8662591792442385 3.4476321202508533
H -1.877780544214534 -1.7075229362123294 2.9319263553622434
H -0.17474051723116257 3.559846021214929 -2.2505655279496404
Rh 0.6520734507480336 -0.7049871482508671 -0.35335545511292776
I 0.35204037954278583 -3.1154984479600003 0.7096381281367365
I -1.4399448758823519 0.41912318999105325 1.2907729061326685
O 0.3851185172865079 1.6362364743326296 -1.054532564069575
C -0.3695678027436173 1.6657020939291296 -2.0417240111806
O -1.8172012348424174 0.497340510636113 -3.555414737246068
C -1.023668204279372 0.48327153718506083 -2.578249463006733
