21
## STRUCTURE-ID: 645beb1baf175c30bc0d4d4d ; CHARGE = 0; SPIN = 1
C -2.2929938020690814 0.32703456084387517 -0.5818960323802651
O -3.353004094481253 0.2753900933045379 -1.0326130419485393
H -1.8947269399659767 1.4711035708283564 3.095576982056925
I -1.0642745283924877 0.1879959020718252 2.67560236540842
C 2.269042892703978 1.443430192923037 2.052513009273149
H 2.542347840012245 0.40280427321429385 2.2390327718212366
H 1.6611514728794294 1.8413877792352147 2.862189639869453
H 3.1819370171605947 2.0436300195207315 2.0037335611941356
O -0.41594074504439227 -0.48136822625932524 -2.696488873461588
C -0.8868074645993732 -3.25545743127337 -0.7905951110637063
H -1.244734415748428 -2.5782637655960623 -1.556938840346004
H -1.6294862755071955 -3.4019444734079443 -0.016209863664452342
H -0.5697832856649385 -4.199794020472018 -1.2139787869544545
H -0.1725119282876262 -0.34556570185225266 -3.6333895895767956
Rh -0.5420362515046254 0.4022841158028176 -0.03180364428857267
I 0.8335496933162319 -2.3373001817246353 0.11338508745299697
I 0.4578831331265622 3.4368817169397303 0.4871767972380968
O 1.7534245467231309 0.8684654200231401 -0.23432252305484805
C 1.6197958905965708 1.5578261113756724 0.7355004936456324
O 0.03665650289199102 1.693325729324457 -2.5037464686623503
C -0.2894892581453684 0.6481343151779415 -1.9727279325584726
