13
## STRUCTURE-ID: 645bb96771f1f14cd7732d40 ; CHARGE = -1; SPIN = 1
I -1.4241449092008924 2.2294844930350104 -1.8910627080512765
C -0.741240696608536 -1.1017864709655272 1.305236679982656
H -0.08711894555986847 -0.9459725023652202 2.1659567842323173
H -0.6522913324840671 -2.1523728258578685 1.026198438622279
H -1.7706070385615178 -0.9270227555249081 1.63595259720987
O 2.2466746598787912 2.3796805337664617 -0.76834322690123
Rh -0.27782282572630335 0.22604435746251403 -0.3466099735059627
I 2.5314531678569883 -1.5627310682040192 -0.26927968697486165
I 2.0976288128747167 0.8347608242276892 -1.7261343200775767
O -1.4948834559102515 -1.7336269132715307 -2.2758379310512087
C -0.9966896092045261 -1.0430465241616236 -1.5099509313568436
O 0.3931281939629946 2.315485791446419 1.7050649173145926
C 0.17591397868247668 1.4811030604126079 0.9488093605572471
