15
## STRUCTURE-ID: 645be96d2f6f912b85014f03 ; CHARGE = -1; SPIN = 1
C -2.605479500565604 -0.7736456242608324 0.022073667438056884
O -3.6672881934114114 -0.6269930055183897 0.3975408398644721
I -2.1784180732163674 -2.2071906376157666 -2.4046377674008395
C 0.5952288220941035 1.7897863918990913 -0.4878074368475012
H -0.21978129622356354 1.8708519986505818 -1.216366171044543
H 1.5555414799487306 1.7161669129756487 -0.9923078040925375
H 0.5926977884636484 2.68552973344754 0.1343711844065425
O 1.5369533548885783 -1.0799065277145927 1.6991180207123384
Rh -0.83797528255075 -0.9563114867896163 -0.5166944645527467
I 1.4761348152299163 -1.461612364042196 -1.7268302126908057
I -0.1304368106706724 -2.8238613012617275 1.375911253488336
O 2.6041140686423176 0.7690406786657098 1.1482300485448906
C 1.6234319325203475 0.033364234219641596 1.107666088254254
O -0.7178084451315849 0.4608131053453949 1.0423952279027007
C 0.3730853399823293 0.6039678919995057 0.4173375260173821
