20
## STRUCTURE-ID: 645bbf9ad5647554607e8a90 ; CHARGE = -1; SPIN = 1
C -2.2923294554912985 0.9633737716787306 -1.0498593777184528
O -3.1032845915763025 1.164355031004183 -1.845825132559075
I -0.866566753877018 3.840904218815884 -0.15875516150257996
C 1.9119065689136503 1.6061666116787336 1.4602364327984607
H 2.9522197177348284 1.931061113587323 1.456714127543251
H 1.307848524198055 2.3294708560459787 2.007247646359039
H 1.8358095380642732 0.6390268025303941 1.9617534480282206
O 0.8763766894851988 -3.400997490206088 0.19775801018488606
C -1.5316340587854578 -2.2396072699154352 -0.3021260173426788
H -1.5881335071660527 -3.3132450316255015 -0.17405350537992662
H -1.3287159319784065 -1.9721683046061793 -1.3347059297760233
H -2.422440375772268 -1.7434910425664816 0.06755597307815023
H 1.6025673238425562 -3.7021583563310485 0.7505237595241081
Rh -0.5060940770220745 1.0544732899327032 -0.34787643205043883
I -1.3701446893645128 0.563967215126644 2.34312948031755
I 0.12270769072931977 -1.5956358942087348 0.8731955451182459
O 0.5758733097410184 0.26070537039407987 -3.0496838927844774
C 0.14949080766869527 0.42543302137523137 -1.9900625722506007
O 2.241839353342353 1.7023129956779384 -0.8798975670865952
C 1.4327039173134386 1.4860530916116244 0.014731165498916605
