20
## STRUCTURE-ID: 645bc2b3a7053509cd60069d ; CHARGE = -1; SPIN = 1
C -2.2113240949650286 -1.890776291185754 -0.5070941279643708
O -3.203644077932138 -2.413703480449713 -0.7526016833379991
I 0.36212760777676717 -2.8265311472196855 -2.229597193479283
C -1.6816233993187897 -0.4970790541002693 2.7642042729367056
H -2.3342332820369367 0.3732011292543587 2.6877760160079536
H -2.1519328285445716 -1.3789287138364668 2.3346003814298393
H -1.4839320997070164 -0.7065138730816336 3.8199623574212627
O 3.6815418664484403 1.5510299619717276 -1.033246950232558
C 1.3517007530825236 1.3274104386751184 -2.429190842023436
H 2.2985677719931976 1.4702892571073949 -2.9286310112479566
H 0.8989932069822207 2.2866078952330793 -2.204402155601008
H 0.6795674405186529 0.7094077162862032 -3.017657012870626
H 4.335463216982821 1.4076489668995749 -0.35028553998353534
Rh -0.5750907513484111 -0.9856236803613375 -0.4451091091635988
I 0.8328372613734729 -2.1049222068169784 1.854632808556171
I 1.7504318316242364 0.3229599399852546 -0.6134192775715157
O -1.3139405506349588 1.9174586306484958 -0.6921754079976442
C -1.1011337531842493 0.7932318209691611 -0.512819234656222
O 0.2483901653373949 0.8244018201293967 2.1069589459484557
C -0.38276628444778166 -0.17956913010803238 2.1480947638290036
