15
## STRUCTURE-ID: 645be2c1408e1970755c0133 ; CHARGE = -1; SPIN = 1
C -2.673002883012755 -0.8476083140573305 0.308836652234395
O -3.3647666922744484 -1.5117539982401764 0.9448133932830991
I -2.0314787272168497 2.7268568631848082 0.16109882709914844
C 1.910588509812791 0.9737645627999401 -0.4447118577610373
H 1.3927228715534286 1.884314468905533 -0.14528317564340829
H 2.0103434764747745 0.9684074523961632 -1.5312217817361806
H 2.901330895781314 0.9510823991227159 0.008720731715987279
O 0.17931655849337313 -0.8177996583142396 3.4402592082288717
Rh -0.8567456400890917 -0.34257191147251675 -0.1818404338593249
I -1.134618506390641 1.6183642255515347 -2.276479505834255
I -0.5487184955014788 0.5324403948020309 2.3730361906595734
O -0.1803359599475954 -2.8179367207950943 -1.75006674420951
C -0.4975512188406426 -1.8094116537757117 -1.3077671266220898
O 1.7401158410254536 -1.2319646942081819 0.43581129252042344
C 1.1527999701323994 -0.27618341589945633 -0.035205670075719425
