15
## STRUCTURE-ID: 645be6a12ac31e347760245d ; CHARGE = -1; SPIN = 1
C -2.563322681303777 1.1878187728703624 -0.9796138762214394
O -3.691994085762877 0.9765804460113946 -1.0712833387977894
I -0.22679779619974766 -0.2640676862698213 -2.6460713439780172
C 1.1227567876286093 -2.709801710130914 0.14485455729394137
H 2.214358305191894 -2.7112177061936644 0.1311102220776013
H 0.8154361005314915 -2.442408016420283 -0.8720340548731716
H 0.7344674195484667 -3.691511568324003 0.41786589390487366
O 1.4594587567351311 1.1560801804281726 2.172421897532647
Rh -0.7699924280002226 1.6137351808271823 -0.8698029483649498
I 1.0946207916140716 3.407460226128776 -1.8433607185517435
I 1.3715731333529324 0.43568803581111754 0.4993470134498645
O -1.1804267666193569 3.6178145348334074 1.2956459983826296
C -1.0778768734117945 2.8483913768826117 0.44753431152128875
O 0.040837858627466736 -1.7043000675089375 2.0858806413164346
C 0.6569014780676268 -1.7202619989453485 1.0875057453078254
