18
## STRUCTURE-ID: 645bd33951ff4b29bc732d40 ; CHARGE = -1; SPIN = 1
C -2.8757948910032183 0.8410205309365039 -1.0022152974703933
O -3.907544659471852 1.1813041785004346 -0.5652937421888757
H 1.5148346199433849 -4.273212310102245 1.9384751421734137
I 0.9800821889011052 -2.8997398096300016 1.1347993538396524
O 0.89382466740431 2.8378440956197744 0.8341914842823338
C 2.1179911091107244 -3.940066701594262 -0.45935313204708866
H 3.144598741913396 -4.019058618895241 -0.11115728311853199
H 2.0299499295357633 -3.289104182144463 -1.327007876988133
H 1.6306402161274702 -4.898865648172798 -0.6163364335033028
H 1.1173117116064426 3.511365831142235 1.5071292527902074
O -1.8030992912112593 0.7734536398717989 2.783177904176551
Rh -1.0109415004030793 1.500466684493112 -0.8445319304825047
I 0.5524080162305175 -0.6731836247825521 -1.3898483803217399
I -0.8789813761386684 0.11097166021594743 1.304573650863135
O -1.1597566313689989 3.6683285648971036 1.0760877273994969
C -0.4335354338173757 2.861263233536287 0.49944837423896726
O -0.943956637269394 3.8445420594255295 -2.6940330550139766
C -0.9680307800892785 2.8626704166827963 -2.0681057586291693
