20
## STRUCTURE-ID: 645bbf0892672f2d0b315fb3 ; CHARGE = -1; SPIN = 1
C -2.901220590178091 1.48649419288788 -0.3618799922143773
O -4.022544406489783 1.7267837419700551 -0.3863129177268566
I 0.4300873338061885 3.7401524570610207 -0.47574975605459957
C 1.9479593760048606 0.9105526078250229 1.535578132349983
H 2.0916034149755265 1.9904920901682392 1.5352327226702385
H 1.3849437922132466 0.6204117723526476 2.4199894985744894
H 2.9355010353152333 0.4487043527924096 1.5520524055733125
O -0.8482291177957437 -3.3635263642791613 0.8369069178439298
C 0.2218127446440302 -2.0498176863773923 -1.221333512394336
H 0.6451292905570278 -3.033165873796939 -1.073218555568209
H 0.9204276105156947 -1.3680186136874104 -1.692301512689637
H -0.7087360928851225 -2.11575157950677 -1.7706877790638504
H -1.1936074923763462 -3.588899337796289 1.7025396794453662
Rh -1.0286762553898288 1.356671480402172 -0.17111819822588115
I -1.514210741810257 1.6496957598495938 2.4147457678025184
I -0.20963092868680677 -1.2665742830198898 0.7000416057901468
O -0.49864811761882405 0.9331497305713673 -3.068259491737436
C -0.7318056429245163 1.0843642863370668 -1.954037223211025
O 1.8211272296224779 0.379557381905049 -0.8030592191050724
C 1.2587175585010373 0.45872388434133005 0.2808714279413366
