15
## STRUCTURE-ID: 645bd61853f98d0a716ee1db ; CHARGE = 0; SPIN = 1
C -3.1528539048390556 0.9201197789725077 0.5932350213547122
O -4.238965395108321 1.1362302446634438 0.8783775907461233
I -1.9966860728550107 -2.0084556572062247 0.5345953873615618
C 2.7590456616832237 -1.0198591173969203 0.19932522447915038
H 3.600217840689286 -0.4290742222902378 0.5624127885277361
H 2.8230793504227933 -1.1626615603319175 -0.8792626642095664
H 2.8124805784311686 -1.9863674370806697 0.7054991083604952
H -1.414117083912195 -1.4507343409979514 -3.027504463655454
Rh -1.425325071838608 0.5062552259548685 0.15137135585641456
I -1.4286504012928136 0.12736378273951887 -3.046948281893168
I 1.2083875061269467 0.12834728305169413 2.6432236445245816
O 0.5911299848456016 -0.0948021904524637 -0.20359536225959446
C 1.492043886534173 -0.37140664733819506 0.5378458948498341
O -0.671147109947762 3.405607671515516 0.20002675433746145
C -0.9586397689394658 2.299437186197095 0.15139800161965164
