15
## STRUCTURE-ID: 645be1a9cd60fe0fb747e4e4 ; CHARGE = 0; SPIN = 1
C -1.453707695133783 -0.2686928598760671 -1.7934935762651671
O -2.4296187039407826 -0.8630669068485769 -1.7971777570329994
I 0.6737285407073429 1.2180892549465427 1.2454350964004846
C -0.24681457539499346 -1.2067683307344965 2.9329389727155997
H -0.6819167310394432 -2.2016993970419017 3.021882468141203
H -0.8357027091181086 -0.4794366184489314 3.493696837580917
H 0.7565999855789114 -1.1875198951973291 3.361594444136427
H 1.5514474806208625 3.826060773272094 -2.4985748898209375
Rh 0.07086544423926554 0.765572324589016 -1.8175200393944189
I 2.1563723131081716 2.3582263661821528 -2.5594117803026326
I -1.654756440517239 2.751746891373515 -1.9383562191853685
O -0.500892302317222 -1.3750789289775933 0.5318415480817623
C -0.18771161498261754 -0.8181973880409532 1.5278636075435017
O 1.6793669600113779 -1.754091232529141 -1.8540512638487667
C 1.1027400481782585 -0.7651440526683457 -1.856667448749628
