20
## STRUCTURE-ID: 645bbe8acaed5e72b85c0133 ; CHARGE = -1; SPIN = 1
C -3.1042482258321678 1.0404734230296675 -0.17913076999641286
O -4.248460917711364 1.1093024239882356 -0.13726450606923649
I -0.15646464906616406 3.767425402922904 -0.44748536024284
C 1.8758346744864138 1.1795910976377968 1.4400073368224025
H 2.922277524298202 0.8773211798717652 1.391107266012078
H 1.8498199950571965 2.268717201198214 1.4519943563923092
H 1.4179266444653595 0.7968629772129968 2.349573582995365
O -0.29804072383249297 -3.456558296002264 0.831591769543422
C 0.4536395727235017 -1.986894487376002 -1.260818829732975
H 1.0256592708992749 -2.8971245251286635 -1.149391435716339
H 1.0161852272535383 -1.2060048626558337 -1.759249104328322
H -0.4858037024352824 -2.187551064168827 -1.7600519238028112
H -0.559288234797652 -3.737982947128762 1.710255592158906
Rh -1.225404626960625 1.1919969543699922 -0.09534759638400503
I -1.5974151474911462 1.3966208572515488 2.517135953605922
I 0.017957587149184513 -1.2877215082392732 0.6917436280450556
O -0.799971002594452 0.8663127562144933 -3.022197433472457
C -0.9921109035494918 0.9760561317457643 -1.8953491889969456
O 1.6966093655646592 0.6510704863090252 -0.8957718277785156
C 1.1912982723734893 0.6380867989472102 0.21864849094541133
