13
## STRUCTURE-ID: 645bb92aaad0e54cdd39f2ae ; CHARGE = -1; SPIN = 1
I -1.7818042058401835 -2.8162739389286076 -0.37884069387797503
C -1.7161982856568496 0.4619686317916112 0.24163020408669203
H -2.503133277351552 0.43728444034929004 -0.5132158171765108
H -1.2881284600206568 1.470179499568373 0.28068823199563014
H -2.160591241843364 0.2162087680776727 1.2079067188677424
O 1.393389467620756 1.3035426265704175 0.01966310656988546
Rh -0.09775776004058108 -0.7919623740431807 -0.2652237865616421
I 2.3341831326111864 -2.064761421087046 -0.6192909056979029
I -0.2915169564609749 -0.03793508397350101 -2.787208490227587
O 0.4144013440639761 -1.2895270291027205 2.6186833255911495
C 0.19293281831787168 -1.1075004091480736 1.509192474276771
O 3.2015275128290726 2.381048625705082 -0.8765097855439985
C 2.302695911771302 1.8377276642206852 -0.4374745823022501
