21
## STRUCTURE-ID: 645beb1101f674451452ff64 ; CHARGE = 0; SPIN = 1
C -2.869112972780857 -0.5100585324109268 -0.9998208352304596
O -3.6962917348939968 -1.1434167312895092 -1.535768490311934
H -1.1525516000276892 2.0328199099062556 2.7024955575673797
I -2.1086339835631898 0.8679904600099813 2.155429398358638
C 3.1839677957017294 1.9295982230023503 2.597029143392419
H 4.282098279641761 1.884785231652368 2.60583789076837
H 2.8309183722702285 2.3155074740466492 3.5644581414856584
H 2.8646988770258663 2.6288151529038952 1.8055268841105325
O -1.627328282627896 1.3035575016509293 -3.1229497383640448
C -0.6716672531656349 -3.1619403666674217 -0.9753116876316739
H -0.7347690620796083 -2.6626606451069335 -1.9344228538859398
H -1.6616546190995511 -3.2976206098021397 -0.5554825639605107
H -0.1529766080460995 -4.106774730850968 -1.0636735160409683
H -1.4255515100795009 1.1890025508247537 -4.070854711940371
Rh -1.4265555298731312 0.462275186602922 -0.4516529461002295
I 0.43087624920296785 -1.9173918802299788 0.3105318990729375
I 0.5860265136540541 2.095695840069875 -0.2625868935755143
O 2.229271402443708 -0.32746337226711986 2.190523670364909
C 2.654376496354059 0.6968977224217497 2.357400468616658
O -0.46167600518311586 -0.5897598842297639 -2.948855804541723
C -1.073464824874075 0.3101414997630303 -2.367853012154189
