15
## STRUCTURE-ID: 645bd379bb97085bee108f16 ; CHARGE = 0; SPIN = 1
C -3.2589530711056542 0.11351203175988332 -0.35960332852262594
O -3.9028377337798754 0.7431501203338887 -1.083072259708922
I -0.6940788446213377 2.3401732507379025 1.39598521084302
C 2.261142284855607 -0.39649278680147937 0.7989697206891819
H 3.3517928312130927 -0.25458481374296027 0.8804892185172266
H 2.0572468522135012 -1.4493917048183849 0.5600347134969369
H 1.8064319493305256 -0.17822061339892542 1.774283100647103
H -0.732623615380972 -2.920396684919002 1.4799824028443782
Rh -1.1478772324992952 0.19231021600792192 -0.1963996501707605
I -1.0634352193578538 -1.4491016882878889 1.9939909610885023
I -0.2600812202798607 -1.7448602049397763 -1.8464602950495148
O 1.8762069634960696 1.205889059116016 -1.0571500719421885
C 1.8223151453745277 0.45318085474340664 -0.20737380030019617
O -1.0498192509556943 2.028218066673401 -2.518072092507105
C -1.065429838502824 1.3166148975360676 -1.6156038299250257
