15
## STRUCTURE-ID: 645be17835031008e32b1b64 ; CHARGE = 0; SPIN = 1
C -2.0299995196388236 -0.20344292566972552 -1.1318314123056636
O -3.111067251561773 -0.461303950704246 -1.3613103123919406
I -1.5682202442912092 2.154585064352282 0.5691021324170813
C 0.6594194618626475 -0.4958529532680353 2.0576099345161536
H 0.392458332458373 -1.114867557732508 2.9157620286940586
H 0.5080150210327206 0.5554777392850836 2.3013369992799926
H 1.7177581315172374 -0.647036763756937 1.8320946875349011
H 1.9068578771364186 2.7786736199112454 0.4000429064873392
Rh -0.266791582758157 0.29265507204734464 -0.8087117966392223
I 2.1977285606370636 1.4910540307444389 -0.49298026897087205
I -0.7061075110966019 1.4852492123205048 -3.4738749236987836
O -0.7722979402761562 -1.961846986450482 0.8221158992943777
C -0.1562164597326277 -0.9439167551886263 0.9015449522182187
O 0.787425224058293 -1.8580016214666906 -2.6359200232020488
C 0.44103790065259046 -1.0714252244235951 -1.8949808032335342
