15
## STRUCTURE-ID: 645be2ab7228f85e3c60245a ; CHARGE = -1; SPIN = 1
C -3.2159136826765797 0.06235683103460842 0.12435657241556669
O -4.285713951039302 0.4503252024698772 -0.024001110673984413
I -0.04821061120679259 1.6256293033308762 0.8666634148973674
C 2.449151030698748 1.988939515376356 -1.0386916334391307
H 2.7639219171645064 2.6743440738034097 -0.25074481137353055
H 1.7696917859436943 2.553458491239251 -1.6808315626989192
H 3.2973053486177535 1.6163828576446608 -1.6135601052930644
O -1.4606091146165892 -3.392574377467345 2.880597802807164
Rh -1.5841246184560878 -0.7882891255197783 0.3167632316051426
I -1.3074348181464475 -0.7903757975472837 -2.3421875676903388
I -2.265825611614819 -1.6874313688217264 2.7673668305448262
O 0.5328856528707939 -2.8881693060263167 0.5171226205177747
C -0.19025964137510037 -2.002125164372362 0.4426563613375726
O 1.809610413882584 -0.2945501084407943 -0.4977388906097692
C 1.7355258999536076 0.8720789732965986 -0.46777115234668576
