20
## STRUCTURE-ID: 645bdc1682226e3f226df39a ; CHARGE = -1; SPIN = 3
C -0.8487078076271661 -2.0062742708284405 1.6838348289895924
O -1.0071804552362826 -3.0432853742566692 2.2625907222797315
I -3.8318374345135138 -0.9110449024430104 0.40080792522094655
C 1.7329038193149007 -1.9965604860686024 0.2828321638704635
H 2.029082850275548 -1.9940490251020975 -0.7653672331975154
H 1.2404861441424233 -2.9378496038391377 0.5297320016283679
H 2.633962312639948 -1.9008696981786766 0.8917678405522269
O -1.5861469172877476 3.3872326003239075 -0.3705292306958333
C 0.578477147709545 2.324813334003823 -1.6696832050217363
H 0.357414545157635 3.373005006344643 -1.827011768575424
H 0.1561172753103152 1.708361703766585 -2.4551245680888547
H 1.635093045131307 2.131275673525265 -1.5369712247943406
H -2.3179305893281716 3.5142378445941094 0.23961711738885766
Rh -1.26205231483076 -1.1631790992399114 -0.05104113019578587
I -0.8914190903537317 -1.3190950218442583 -2.5861941164531994
I -0.3521583657198796 1.8157795583093028 0.17170933149794984
O 1.2724630625217148 0.35686576626808575 0.1581623636675796
C 0.8415912729497942 -0.8138764390344554 0.575838158807833
O -0.3312391809795801 0.2779601983679108 2.3397246128704086
C -0.04891931927628285 -0.8034477646684115 1.7253054102487906
