13
## STRUCTURE-ID: 645bd96daf18d348636df39a ; CHARGE = 0; SPIN = 1
C -1.8648824750244488 -0.20313159291465324 0.5470464063800575
O -2.9580530665704976 -0.42779965554626836 0.7365284074928418
I 1.0270847484822958 -1.7669244768493122 1.6686454994490107
C 0.018824934165897624 -0.8009037854895695 -1.5735030468468467
H -0.9758291759694684 -0.9482128777990163 -1.9928330346057868
H 0.4593488622534264 -1.77143932606363 -1.346268214043973
H 0.6345151260055821 -0.2928518437018517 -2.3148383122434497
H 1.082340740502964 -1.2485798263433703 3.1689212297060276
Rh -0.1009258175801154 0.3699233404195543 0.22960096119989443
I -0.24860988184721577 1.8590873215610537 2.5763404410578934
I -1.1660553416693333 2.3232644122005404 -1.2824662886203617
O 2.5206724777654617 1.7462025113805615 -0.30677849595021905
C 1.5715688694854775 1.1613657991459778 -0.1103955529750784
