13
## STRUCTURE-ID: 645bb8d612d60e553d0fad2e ; CHARGE = -1; SPIN = 1
I -1.8154804738817796 -2.81551234533116 -0.08664889010241385
C -1.6919645306577986 0.49337545110157105 0.30429273098074033
H -2.5090341960565765 0.4324851187763752 -0.4156361219424103
H -1.2506998569060608 1.4957899586401295 0.26321508301159097
H -2.0996744131566154 0.31482570868488724 1.3010143905887694
O 3.1163274183589196 2.302478795916387 -1.2711803809707258
Rh -0.10958884470645512 -0.8098437541005923 -0.1919513289039617
I 2.295577347000189 -2.1263139088427545 -0.5710512478648524
I -0.4249848671359195 -0.23918789982835467 -2.7502965844032277
O 0.5446284514724986 -1.110755639340276 2.6905923781378385
C 0.26724877413863857 -1.0037384352800098 1.5839632720375583
O 1.4099203089257348 1.2803784897387576 -0.14103182284137133
C 2.267724882605226 1.7860184598650424 -0.7152814777275283
