20
## STRUCTURE-ID: 645bc328c29c852b3e108f0a ; CHARGE = -1; SPIN = 1
C -1.9269783860684753 -1.7392180609909966 0.1376929528636001
O -2.8453138210920974 -1.7716923151793413 0.829683095416934
I 1.299512342337325 -2.080514158562234 -2.917443623518554
C -0.6250498904345765 0.36179542910301166 2.7356631796916346
H -0.1453983070386081 1.1883322484818972 3.2601051469281495
H -1.6330467777203246 0.21991365439580107 3.120671669696949
H -0.008918467964532092 -0.5228820713772493 2.892012176301973
O 3.089792809564917 0.36963754261161247 -0.9341911024025085
C 0.8023449537196231 1.7549742656283076 -1.1860822159959372
H 1.4449763039710746 2.6151180462150005 -1.055553983633743
H -0.24311941212225524 1.995396822917015 -1.038465479774881
H 0.9832889590567105 1.3014075589994891 -2.152471296170632
H 3.8338682148241263 -0.11963584217595369 -0.5810010431431304
Rh -0.49217299210912563 -1.7523453998768093 -1.007119612957851
I 0.48607490253314506 -3.6319143370424802 0.5723474032195954
I 1.3339247312079863 0.3326060440213863 0.2988875582111033
O -1.8626242210194592 0.19482924759639608 -2.8034989355914632
C -1.3267311986089905 -0.5518949497964062 -2.1094713147163078
O -1.5447612465238574 1.1328685720545157 0.6434007678444252
C -0.6196684965126368 0.703217702977053 1.2948346577306442
