15
## STRUCTURE-ID: 645be6a1ad57a4154039f29d ; CHARGE = -1; SPIN = 1
C -1.7996751096473615 0.6320665809472995 -1.085787423629341
O -2.823252097176556 0.4078676672093456 -1.5398862478821227
I 1.6296579989764448 -0.4636366636114519 -2.0156417390023584
C -0.19546542343493156 -2.1928825813411836 -0.12721583326753502
H 0.3350197926329454 -3.118451286040378 -0.3719581142302517
H -0.8782568821384409 -1.9703656594920285 -0.9441629723731662
H -0.7382192033562222 -2.3367606941395733 0.8086914772423078
O 1.8174314832383265 2.6838878647088573 2.3550823557783436
Rh -0.16120249964818317 1.140996304413543 -0.39190579837535083
I -0.3070892698429859 3.1133623139971607 -2.282443577292353
I 2.1049317387733883 2.1007378034672617 0.602858803497345
O -0.8124261889667651 1.1261577266753489 2.535720476192065
C -0.6171775666022616 1.0288855139086563 1.4106226638868422
O 1.6062978836599646 -0.9938488191506942 0.9700167815701107
C 0.8394253435327085 -1.158016071552292 0.07600914788550261
