20
## STRUCTURE-ID: 645be6f21ccf840cd70abd00 ; CHARGE = -1; SPIN = 1
C -2.1747328411687135 0.7883055892595845 -0.30441265848801674
O -3.256166229104897 1.1543151030588228 -0.49977784119412055
I -0.8121730670164946 4.184177632403106 2.4748794158074485
C -0.5781345061722135 0.6682355069764234 -2.476843693251352
H -0.018293748312545093 -0.16738483624036046 -2.9174179962707107
H -0.15232953949634542 1.5933512867587492 -2.8836190233522943
H -1.6041001124318452 0.5967160668272526 -2.8515341049259817
O 2.8747460623283123 -1.1074135953935447 -0.9986630033552292
C -1.4193839323194786 -2.0516422638858973 2.247294768553178
H -1.8221215972285465 -3.033329650250832 2.465355544095166
H -2.206108598974042 -1.3243785957404435 2.081364634752428
H -0.7409471650506826 -1.7157801486899154 3.023570676942807
H 3.338700784657049 -1.8524794113399674 -0.566920973513439
Rh -0.31796222366316274 0.6217599509297851 -0.33812126877609694
I 0.25710220602720507 1.551300041150831 2.032714592284533
I -0.27724720785226614 -2.205234831612958 0.4003833874975211
O 2.672911517631066 -0.3219070632634338 1.089572582933504
C 2.4739966662857635 -0.19442108298726207 -0.11084525307946873
O 2.140615039467947 1.9149654504747413 -1.1681195959254354
C 1.6216284923939523 0.9008448515652993 -0.6988601907344253
