20
## STRUCTURE-ID: 645bbf8ab27d6e0d596006a3 ; CHARGE = -1; SPIN = 1
C -3.087472248299067 1.0981950721159943 -0.19176411837999907
O -4.230075927746078 1.1918473563503915 -0.15431065022774318
I -0.09055812493188746 3.7680203431074513 -0.45157934301507663
C 1.8912639152901143 1.1483715518447517 1.4440645147332534
H 2.9298283269111915 0.8189543989852991 1.4026701816432015
H 1.8930913172060233 2.237834711612239 1.4497975525337587
H 1.4191342521465866 0.7821122556980421 2.3530967405051806
O -0.36058048590900893 -3.449394295422392 0.8352815622923414
C 0.4274434162783118 -1.9971985267194585 -1.255296709398728
H 0.9869309792942118 -2.9145800607254295 -1.1389511080079684
H 1.002194513856158 -1.2253873738497307 -1.7539101618659487
H -0.5126242102666896 -2.187034195143887 -1.757521854024155
H -0.6343137283246212 -3.7246264319116054 1.7121135257268438
Rh -1.20627202889676 1.2125591404583023 -0.10111940276866165
I -1.5834373081957707 1.425823493392632 2.5098830768743547
I -0.00667451947265642 -1.2864619763866412 0.6935185910004737
O -0.7769943449505564 0.8734249517673085 -3.0258740598547704
C -0.9708169628402382 0.9890679797449305 -1.8999006492701147
O 1.7090747776117952 0.6210152218652234 -0.891671154166648
C 1.2008583912389377 0.617456383216577 0.22147346567042614
