20
## STRUCTURE-ID: 645bed51743d0d1afc60245a ; CHARGE = -1; SPIN = 1
C -1.5642991633384464 0.3164695542094087 0.5056495514309529
O -2.6656734998456373 -0.18156592621175086 0.4713348854291276
I -0.20636708356196629 -2.9573424511893136 -0.6162907481533562
C 0.9052885372580378 1.958565307773691 1.9126204324232075
H 0.5946320478287984 2.960612309983286 2.2121397434040633
H 1.9829760976609403 1.9424346756539674 1.7566519594781378
H 0.657191528793221 1.2764565622217612 2.7276669861515277
O -0.27478817041882236 -1.2127068696555272 2.6464957480127955
C -0.34746349752334277 -1.4118463181951229 -4.004548300905864
H -0.5484424484273969 -1.0257687371664606 -4.996514318243421
H -1.1979464371168072 -1.9543819209467295 -3.6076564201716854
H 0.5374190826269553 -2.037431546829221 -3.9901852256397685
H 0.1212703508550274 -1.6323225536645418 3.437903274032667
Rh 0.11994465946909239 -0.39096429074717354 -0.07674441692474572
I 0.01201878858832709 0.29316555659973814 -2.710818509907295
I 0.49150680242325057 3.1870242550694368 -0.792470090410833
O -1.2627579119377936 1.549409590540409 0.9131142918779143
C 0.1823237490354859 1.5224675647847556 0.6514759283764727
O 1.826267794744813 -1.2105384656380762 1.870260811045059
C 0.6368987728862566 -0.9917362965925453 1.6899144186950454
