20
## STRUCTURE-ID: 645be7a8be22b81a705c0124 ; CHARGE = -1; SPIN = 1
C -2.180799544708736 0.8964543611259419 0.4718834964448605
O -2.96593365694229 1.6900703320187236 0.7732424372713167
I 1.7649997528392245 0.5940404402083952 4.832920941683789
C 1.293791551917279 -0.2688980770404506 -1.0166709353376824
H 1.8954965566956596 -1.0313200087402075 -0.5001565495715616
H 1.9653403852116118 0.5939715449228214 -1.159573453990413
H 1.094973581477344 -0.669547722577506 -2.0304294605306454
O 0.12946268042945058 2.091737974844592 -3.038749096050853
C 0.19150532126783448 -3.1041065477594545 1.9938721510689532
H 0.19066565594255738 -4.187750658040883 2.021123493427925
H -0.25442008669671723 -2.679729667588981 2.8871621121064917
H 1.1888002845241152 -2.7064658441478984 1.8401053029945014
H -0.21311537937253835 1.9393349241162985 -3.9414642133368023
Rh -0.5720294680489283 0.15675280410430284 -0.1632049242053556
I 0.5899348747783599 0.6199834693365438 2.1180845208841
I -1.0368171182136894 -2.501061526743509 0.2852512561424945
O -1.9697632002364314 1.605041669174462 -2.4057340155125915
C -0.8153024157553834 1.909018164431749 -2.111265801459838
O 0.02168513618221336 3.0443526040237803 -0.15445004183789326
C -0.3184749112909314 2.008121764331273 -0.7019472201908101
