19
## STRUCTURE-ID: 645becc7599ecc2468108f13 ; CHARGE = 0; SPIN = 1
C -1.2645376886154247 0.9214986661614342 1.248193558997829
O -2.0936604412616964 1.6981482243528272 1.381205299160598
H -1.2732994612830262 1.1952640974857294 -3.863349193000868
I 0.27353187287983394 -0.08408034813066748 -1.469772323884539
O -1.0066847315947418 2.0384539654473177 -3.424512661390778
C -1.17548976150148 1.8614876732358108 -1.9859113815060139
H -0.8532459761797669 2.776000526942139 -1.500742400792456
H -2.228401903133452 1.6841610530300257 -1.7972115214915265
H -0.04518391234294927 2.178226259737118 -3.5988432367427716
C 1.69408285241205 -1.871335912267759 -1.3987916745400615
H 2.6823655314955124 -1.6543116036248369 -1.7959602404623094
H 1.2857685042452798 -2.7603865041680264 -1.87302125892856
Rh 0.04322661472564058 -0.3513176711933691 1.107731555286799
I 2.46309021918202 -1.021496316641949 4.268767125689072
I 1.834286027858998 -2.2006345933768694 0.7619808322518923
O -0.699906843339397 0.45303107859496416 3.8261257016951546
C -0.1981375317474624 -0.41037249950330085 3.1184684293760276
O 0.17637845206055286 -2.8127911545900792 3.4263467659020903
C 0.3858181761395176 -1.6395449414904815 3.56929662438038
