21
## STRUCTURE-ID: 645be868cc37597a2c2fb1fa ; CHARGE = 0; SPIN = 1
C -3.075064872226715 -0.07149333991776947 0.18330360036314206
O -4.049724405606368 0.21081902526328689 -0.35442986687735234
H -1.7555420267657387 -3.1254631254403633 2.630668399897136
I -2.097395345559089 -1.67506075760226 3.2001531065039996
C 2.900588516465734 -2.644307416414557 -0.03179556786645741
H 2.5770247362549172 -3.340671212744477 0.7456621864012488
H 2.8277521503269756 -3.206588136153546 -0.9648424468515349
H 3.9181945505856506 -2.2966357045058023 0.14749620748129968
O 0.06761621598139221 2.3586785560960566 -2.928119458578344
C -1.1111140407088798 3.0161936022406604 -0.6342905477205218
H -1.697922483749412 3.4344275613154216 -1.4410993607184819
H -0.2071915040826384 3.5990511507759892 -0.5102241294426563
H -1.6800096062194194 2.967238169828676 0.28949666026727766
H 0.49560948686772877 1.8508483451226485 -3.615332149377141
Rh -1.4176769788566723 -0.11447817425464153 1.0468112496893491
I -0.16526633321508705 -2.277193707060327 -0.5115838146311295
I -0.5577745246686052 1.0656516209126572 -1.2017036845121365
O 0.8788939577947106 1.4347651076298666 2.1775685031017527
C 0.09213560355474865 0.6966141351614399 1.7821057638308881
O 2.054557818840079 -0.36129275219508433 0.06254065322463613
C 2.002309084986685 -1.5211029480578668 -0.07238530418500394
