15
## STRUCTURE-ID: 645bea0cc6c9f9712551c320 ; CHARGE = -1; SPIN = 1
C -1.9239495202868895 1.0024167818923237 -0.5511352918706434
O -3.009293011303579 1.3380492754315423 -0.5148863414861061
I -0.18763763021645188 1.7363349608063674 -3.3282268924498304
C 0.5763905314740154 -0.2628325391226098 2.2324961342656633
H 0.04593987669082227 0.5313049495722171 2.7642171147422565
H 1.5749361559028574 0.10673606391839432 2.00308362579108
H 0.63276580217064 -1.1442425490592802 2.8716811462401646
O 1.9438480601956851 -1.6754979496861908 -1.9556639075984228
Rh -0.12041599389089279 0.5682500404200209 -0.7041259224567126
I 0.42635437136883647 2.8026842832523795 0.5661365324445891
I 2.4274014854950683 -0.10663565179220258 -1.0296652852819221
O -0.8021413200184742 -1.7607375675945003 -2.503183385464636
C -0.44854813656953363 -0.9380001818393461 -1.8043779064959533
O -0.9266600555933633 -1.5786429846435526 0.9379648572680264
C -0.20899061541890762 -0.6191869315554411 1.0156855223526078
