20
## STRUCTURE-ID: 645bc3316c70ae44f65c012a ; CHARGE = -1; SPIN = 1
C -2.07271885535942 -2.664072504680348 0.9937515810700502
O -2.7300570978576837 -3.316317780539154 1.685812423854834
I -2.184395468754706 -3.5734090823293694 -2.0819628050073575
C -1.8234230492315848 0.30021233468403746 1.9185512020589954
H -2.853315504566871 0.3094089058722858 1.5659012380999509
H -1.7531991986446207 -0.42712116457990634 2.7287530711802255
H -1.5411993849562842 1.2844196594270942 2.2961852599947754
O 3.680413923212747 0.889634880277257 -1.551296293370492
C 1.7712827132251059 2.616989966824148 -0.4993043281397463
H 2.776898100385084 3.0035812670995012 -0.6043631254123046
H 1.3259125945852936 2.8739817811238435 0.4525506819854793
H 1.1411159819728838 2.9137775846366063 -1.3283218410779374
H 4.158506474218025 0.08359358984796249 -1.768370789161341
Rh -1.1414790154380787 -1.7418265333929115 -0.3252112189869193
I 1.4641001403783847 -2.8843377537464754 0.08213189951326269
I 1.9825693374528695 0.506500942816823 -0.538254769538204
O -0.6490611327369383 -0.0400739248016768 -2.7524478437534032
C -0.7788601710682564 -0.6879391488134327 -1.8000184348620734
O 0.10493865740921939 0.6771583558882855 0.7167142773232605
C -0.8780290442251819 -0.12416137561456127 0.8091998142289355
