18
## STRUCTURE-ID: 645bb6a38c5fe51843732d34 ; CHARGE = -1; SPIN = 1
I -2.1187531614244035 -0.8346779510801104 -1.5199792116700805
C -1.9147920832352312 0.21648276167462033 2.0080369159308167
H -1.6503385038106289 -0.17013613035732975 2.998385649177001
H -2.9312386923121356 -0.11345685494914048 1.7641144999005223
H -1.893453066503185 1.310475644173844 2.038433743421412
O 0.20006935503586465 2.612696748550508 -2.345658801070434
C 1.840452674767071 0.5956352949118175 -1.616863237527682
H 1.221717588157122 -0.04168028639810988 -2.2412864224753286
H 2.4461768625564164 0.009954694048979059 -0.9342348059046143
H 2.436918835811163 1.2696908663045636 -2.2186094174976647
H -0.5065937882935253 3.2642088974239383 -2.35745140272706
Rh -0.5787705627644644 -0.5573063865517969 0.5776401794896032
I 1.4590996606086464 0.7553418548956431 2.0778085192132623
I 0.5151771978589132 1.8302377062551662 -0.5070402108321684
O 2.0473418433207273 -2.02654517277362 0.31125954682545093
C 0.8208553873829537 -2.058902836332879 0.2729501884473326
O -1.1086411755834265 -3.479055877268099 0.8406631207934707
C -0.2852283715719057 -2.5829629725280006 0.8518311465061981
