20
## STRUCTURE-ID: 645be1bf407c4016726ee1d3 ; CHARGE = -1; SPIN = 1
C -2.0410394845198283 -2.139338919574702 -0.9037215213837715
O -3.0304086443677645 -2.7164545130875206 -0.8765015880754745
I -0.3232375929942966 0.13583493957304751 1.3003717862616422
C -2.0678398288176485 1.257829500775726 4.2493449283385125
H -2.0259112162086192 0.1940444251658848 3.964219960958384
H -2.3610800688209506 1.3783041114168684 5.29853315310118
H -1.0375870868197454 1.6061254309904434 4.081205821966381
O 2.6904557914157037 1.9403399380231576 -2.4516678685789457
C 3.114644580759561 -0.659797809200743 -2.2924857498252016
H 2.656454000205067 -0.5245426794905766 -3.270958352119902
H 3.3249089477435776 -1.7163816816747153 -2.118574075709387
H 4.027295979403601 -0.07902044486627063 -2.2520089194902746
H 2.396369090929059 2.843847913750023 -2.3047542132044065
Rh -0.45590178819526084 -1.2116848787586112 -1.0312295194580003
I -1.8651935181083301 0.9179720622895405 -2.19124708805502
I 1.819502442442592 0.06977863090898292 -0.8588150761637945
O -3.6271516938550117 2.468952675915251 2.7544231888177535
C -2.9067891913856556 1.9119222250532204 3.4072163366260257
O 1.216883383991939 -3.152600799239496 -2.5866746382180286
C 0.49562589720199807 -2.5251301279694958 -1.9166765657876539
