20
## STRUCTURE-ID: 645bccde5640e60c6e2fb20e ; CHARGE = -1; SPIN = 1
C -1.4471699433954441 2.4461544994763975 1.0052819084475308
O -2.354688769719721 3.08554448981787 1.341319212753005
I -0.9765777397392872 -4.539160899362828 3.816055110595655
C 0.35271065307119925 -2.8727287442292027 -1.066449998350341
H 1.0379376830534446 -2.4809079408763743 -0.31836105249701135
H 0.042204089570931275 -3.8667851229798957 -0.7530596005965667
H 0.8685720968020268 -2.9454273166129785 -2.0190697862616984
O 0.33480925741947565 3.294912461629689 -1.7471113560502574
C -0.8826537451340051 -2.016834008253202 -1.1770849413931102
H -0.6146663224919223 -3.0752349223150204 3.3981933228053545
H -1.571608517196024 -2.383474793500711 -1.9319541096181652
H -1.382348621476343 -1.9032466177026113 -0.2186421063245963
H 0.47129122901032816 4.142777070003845 -2.2156688758651106
Rh 0.1925399898478343 1.7088806133297927 0.5751599982241653
I -0.05389326100819765 -0.33984694276372995 2.222346203903449
I -0.4184157095333597 0.07671020329091383 -1.8183347142729518
O 0.7247761187371408 4.5492245007813 0.03926070324024594
C 0.4628798290868083 3.4324571987561727 -0.3990410817751492
O 3.1736526140196055 1.9615254166148413 0.6733266833376904
C 2.040649069075512 1.7254608548957056 0.5938344796978738
