20
## STRUCTURE-ID: 645bc8369b663f02ec732d43 ; CHARGE = -1; SPIN = 3
C -1.8633668933027059 -1.2516423207857825 -1.7405738710550251
O -2.591207469036402 -1.9999777194337807 -2.2273718246199525
I 1.4120254227542015 -1.526191279154093 -2.399245328422167
C 0.010932417824913103 -2.080243862291326 2.7612189869649466
H -0.6503093581495691 -2.8708958759054046 3.1213030421709465
H 1.0495050613758115 -2.326524734939897 2.9878310988318564
H -0.2213451122240853 -1.1343849943367414 3.2438452052920788
O -1.8129967280077655 1.309674337814166 -2.7575019599168176
C 2.402443197212453 2.403740447634821 0.18192811996777136
H 2.779181007110205 2.914693119106706 1.0589206635152322
H 1.6909838619900386 3.0107729137517394 -0.364689786371598
H 3.205837905521411 2.067718258833194 -0.4628645879688056
H -1.8973618376771948 2.181123506655375 -3.200762568244941
Rh -0.5998560772883553 -0.34608869061423575 -0.7606081012946516
I -2.6171151318226755 0.04549728084184547 1.2446872616465288
I 1.3231407410940916 0.6353768566741016 0.8634386376881019
O -0.2861853941436046 2.3600643896324422 -1.5237888892124019
C -0.8997333224461119 1.3356287720453566 -1.7757841047991656
O -0.36606518801627475 -2.767604047208504 0.45372562625716056
C -0.06850710276835453 -1.9607363583200048 1.2962923795709458
