23
## STRUCTURE-ID: 645bd0231e8624356639f294 ; CHARGE = -1; SPIN = 1
C -3.0104062205517175 -0.06480928106007913 0.8264691791881507
O -3.6575688688221613 -0.0062808316829430395 -0.14779863547490568
H 2.0988991064013383 -0.9756772856793252 2.5104234948294493
I 1.9836309866679618 -0.7555998218849379 0.9276859047949672
O 0.37001366415036613 -1.1866910848048606 -1.582091061213682
C 4.27047854180627 -0.9160002224280241 1.1438319571924138
H 4.696020962652057 -0.7755033461402216 0.15659085038377654
H 4.478709911659835 -1.9064135572117396 1.5352216534123115
H 4.56431022015269 -0.122789323821299 1.8236776042571217
H 0.38763041763588435 -1.5015438446773066 -2.506307800413058
O -1.0521559842614818 4.027679916239373 -0.6381066480578175
C -1.70508464634632 1.7217989063260168 -1.7278676595473492
H -2.3899540889410296 2.55082389603268 -1.8535003617690442
H -2.222219355264954 0.7841961985728169 -1.9121196191417464
H -0.869775887754659 1.8368061120361256 -2.410865304300118
H -0.6732699513193797 4.670906737978048 -0.03741726380028975
Rh -0.878596543264424 -0.7420045828673735 0.9035141762212688
I -0.40550202493532134 0.6580765829206978 3.1113211956731868
I -1.013609082820979 1.7872323231227105 0.2244983648845635
O -1.8135607635850777 -1.5922210766900033 -1.7231800587289159
C -0.8666247747737746 -1.254053714002528 -1.014541359117567
O -1.2750014158336491 -3.680493961703094 1.1723393688362678
C -1.0163642026514141 -2.557438738574757 1.2182220218909983
