20
## STRUCTURE-ID: 645bd96c85b93707dd099de4 ; CHARGE = -1; SPIN = 1
C -2.144973563598672 1.7720320347944285 0.6061277329337478
O -2.714012312997732 1.7091014994378833 1.609829327255543
I -1.1803513966080217 0.2926219297913455 -2.8569410853577737
C 0.6076062061763428 -0.8567489122614251 -3.2674068700685845
H 0.3404196449590135 -1.613342704046128 -3.995604342709274
H 0.9153895022697505 -1.2946149629364148 -2.322599279322112
H 1.3538071804274534 -0.16992695565388416 -3.6498199674384875
O -0.7393063138889205 -3.1431314909864425 1.1833605809559282
C -0.053299100495897346 -0.8040028882554656 2.374541569391125
H -0.28956358364136536 -1.7185835403380563 2.8972467890831703
H -0.5910654331074136 0.043583499461371585 2.7866515373991803
H 1.0149598377414477 -0.6159698985093164 2.3849025757876205
H -1.0133894536965349 -3.7658125377623906 0.5080911408002919
Rh -0.45748662926724304 1.5447710224984805 -0.3070263445558861
I -0.10311033404599657 3.9880705796798517 -1.3261018528301438
I -0.65131931439655 -1.0525054102033917 0.3689375358554582
O 2.404744127483034 0.38183834951075946 -0.2219758966658955
C 1.4160789466441432 1.0745165886506873 0.005228971505343407
O 0.9891612612195722 2.4119964715343847 2.133938318350027
C 0.8957107288235286 1.8161073255935152 1.088619559630626
