21
## STRUCTURE-ID: 645bee22aa2f9136e01fdaab ; CHARGE = 0; SPIN = 1
C -2.374144736684929 -0.6369750067489155 0.7796804870001746
O -3.4472282734288524 -0.5080508486008797 1.192541470728023
H 2.324689163722051 0.500747372082639 2.2559062241502015
I 1.0444483435299827 0.7312402442365151 1.0032953658447172
C 3.241619635219521 -2.1344651298574036 1.9916757553432167
H 3.2598664424238977 -1.3791004033538534 1.1867451565740115
H 2.2546826907805633 -2.0331616237688146 2.4693417954189116
H 4.02536996621695 -1.8936091845943628 2.721971217516309
O -1.4969727240828357 4.208627101051367 -0.9903198972779788
C -2.6986376072929152 2.0886906638710596 -1.8332782925986124
H -3.1032505280352303 1.1015260030216758 -2.0759185902651183
H -2.378023740262651 2.5938731767649412 -2.7419811698696064
H -3.4604770257377724 2.694005972262511 -1.3479942278459542
H -0.9196686135730998 4.837120014653556 -0.5572476189872799
Rh -1.0239031889042802 -0.680700456957277 -0.48623546872516943
I 0.01109699358906171 -2.9828972313332307 0.03755765485105757
I -1.0870519257147166 1.9704240067793355 -0.5688537417944058
O 3.5385268009104576 -4.419260545298167 1.0851581431435542
C 3.3908710205498167 -3.3825647274220256 1.4922343366807536
O -0.6050080002215625 -0.2035309190498057 -3.369711305915494
C -0.4968046930034455 -0.4719384777388636 -2.24456729397132
