15
## STRUCTURE-ID: 645be96d84dd0472f253afab ; CHARGE = -1; SPIN = 1
C -1.9697656857820678 -0.6753914113284543 0.6272425747849759
O -2.961684807463834 -0.5300336357490227 1.182445741472688
I -1.6400758232955133 -1.1614165978934792 -2.513803905319708
C -0.05428647691884026 1.8587780519874249 -1.6456077743522748
H -1.096381522508082 1.9819888693040468 -1.9441604750625656
H 0.46120188364192516 1.3623799479883172 -2.467175935459414
H 0.3950330345071078 2.83157627367366 -1.4465525453234176
O 2.81495347617397 -0.9061816637118552 3.339901100394165
Rh -0.3585810658252721 -0.9255057478344533 -0.20390229053187406
I 2.09216561437065 -1.269385542219881 -1.1201868836010458
I -0.6203968895759201 -3.487872072515855 0.8599973277241882
O 0.8101967721507426 -0.7371445882895469 2.2519854369958643
C 1.817445304954292 -0.8231370027458103 2.7938765067026465
O 0.30827310437188926 1.4395011334794592 0.68954416130801
C 0.0019030811989517967 1.0418439858554533 -0.40360303973223766
