15
## STRUCTURE-ID: 645bcbcd1cb6a34a85099df0 ; CHARGE = -1; SPIN = 1
C -1.4660771931310466 0.6254526284731124 -1.1385606649736615
O -2.5333741543576616 0.932826752523489 -1.4149618594476672
I -0.5664728121440625 -0.5478189739071995 2.1672305171327255
C -0.3841161308628646 1.364889179070565 2.877874057958811
H 0.45820171715555086 1.5486967879878608 3.518206278034387
H -1.3042156479935232 1.8820117475911735 3.075497232113257
O -1.1863506720167425 -2.069106046615993 -1.3460740228880772
H -1.2500838969112429 -3.0299857904866103 -1.5329126482779032
Rh 0.3292766699641925 0.2770976989816327 -0.759609446777069
I 0.5055010257660795 2.746491190919832 0.36372202142535665
I 1.040842746838207 0.6828713101067958 -3.4241251113044884
O 0.9690240933867962 -2.5252282617371464 -1.0582609165539334
C 0.07643316521629857 -1.6944105856477945 -1.074748515936068
O 3.209151236012768 -0.16316406222355193 0.003883639020093965
C 2.1022598530771934 -0.030623575036118383 -0.2571605595257863
