20
## STRUCTURE-ID: 645bc5c1f19abc79ee732d3a ; CHARGE = -1; SPIN = 1
C -1.3576169138445793 -0.743135339527523 2.7659085572368705
O -1.7666762974654004 -0.9868555483973097 3.8087000052936686
I 0.15563426134257924 2.641849535521704 2.9829981079461345
C -1.026284950600889 -2.009670161336383 -1.8472003682035467
H -0.936536863098054 -1.7169007839830093 -2.894560718666893
H -0.5167247370257816 -2.9654817521527357 -1.7130611012492167
H -2.073029389797003 -2.1372645490272624 -1.5729714463813325
O 2.946974615591885 0.12818900615008808 -0.005894845031883792
C 1.2953055420734918 2.464329442384727 -0.2578778117049955
H 2.2788866688190277 2.7542230164737296 -0.6099142554170774
H 0.7560643891260111 3.2991142674223615 0.17274491097752032
H 0.736298058695472 1.9871944689405574 -1.0549421106507364
H 2.4623593216743154 -0.3119442712529804 -0.7048564977727272
Rh -0.808615985972613 -0.7162829171414349 0.9554827977561375
I 0.5791632057559177 -2.9442036165949883 1.465467703749331
I 1.6478425671775971 0.9640783597120622 1.2243245010782087
O -2.6477362661502974 1.1733607935532417 -0.46142647615638527
C -1.997906453669238 0.45018428169184166 0.16228964405423246
O 0.6061190483677152 -0.34641878470825965 -1.4570519961582773
C -0.33351982100017113 -0.9843654477284319 -0.958158600699058
