20
## STRUCTURE-ID: 645bc35536efa96e77099dea ; CHARGE = -1; SPIN = 1
C -0.6447362168146197 -2.329711857828587 0.8533423032942732
O -0.6074715381360898 -3.1939282456400404 1.595517788228096
I -3.3660402688746953 -1.7690793697437108 -0.9889604042809415
C -1.7085901860701498 0.24486048123143772 2.0037067975976623
H -2.088972577414447 1.1783076957193832 2.4189508655975414
H -2.4753165622010833 -0.5259355069548075 2.081590059310105
H -0.8332404668608557 -0.07920238811892404 2.567336498173068
O 3.7676138345811867 0.842370863270977 0.41228733150316765
C 1.5865813500917259 1.6643641598294732 -0.9996248162416899
H 2.3771979079763272 2.304257902131456 -0.6338153097521381
H 0.6049359119733172 2.082277605134461 -0.8086025186493379
H 1.7237071529455996 1.440799886644733 -2.0511155088629556
H 4.3832541480942995 0.2436610099380027 0.835817724452196
Rh -0.7145952990730225 -1.1160507849838983 -0.5702021923973996
I 0.46551301369859394 -3.127976628890945 -2.097437728126541
I 1.7607865396185984 -0.15220630112553535 0.0909607175204562
O -0.7668332283682989 0.3733634131068659 -3.1777867596216374
C -0.7321253308575412 -0.1180054465837348 -2.147240439334005
O -1.4039325999681507 1.5665944663765887 0.05302548590456011
C -1.3277355843407115 0.4712390464868149 0.5622501056855154
