15
## STRUCTURE-ID: 645bd06ac2dfc213c65c013b ; CHARGE = -1; SPIN = 1
C -0.97335014232939 -0.7932129485659953 1.1506447261902095
O -2.047929660649482 -0.9913909930109434 1.5080080888548482
I 3.3211275572727255 0.051488726798484374 0.4124166761682669
O 0.20445007800810186 2.4086585807665806 0.8577265072372142
C -1.5406953555533118 0.6929427703544437 -2.472343925454369
H -2.1433360787443467 1.5593804824913025 -2.276327048952033
H -1.9128325076141972 -0.16065041256222437 -3.008614744592398
H 0.15387577919190484 3.2186831889358936 1.4077596782181796
Rh 0.7729983628341154 -0.4566896483432421 0.6874052421766611
I 0.34377802648592737 0.6361574379496967 -1.7577811840007451
I -0.10092314255052676 -3.1119507088751095 -1.8258669397788438
O 1.558869601100612 -3.3476005246596565 0.760028369035315
C 1.0907656509646555 -2.4060795042949708 0.24180843849279585
O 0.7252034000716221 1.3772222721312986 2.7635740007826515
C 0.5479984315116061 1.3230412808844128 1.5515621156222177
