15
## STRUCTURE-ID: 645be35f5f99922ed22fb1f7 ; CHARGE = -1; SPIN = 1
C -1.4649984910461422 -1.1102564021828243 1.3595582099121382
O -1.9149334111859002 -0.5804745223074284 2.3396161468358994
I 1.43787961057724 -2.1747744265474274 -3.484753975733094
C 0.5576614857164671 1.5246269390160914 -1.3945272285814978
H 0.5745256974713114 2.5870862637251433 -1.150201753364204
H 0.1992986516536042 1.4194922761881001 -2.419617272482258
H 1.5722015868841261 1.118481064784003 -1.3131611660490594
O -1.8069401957154028 -1.9943078911735028 0.5826482996815795
Rh 0.38302588948733585 -0.51661741293287 0.7475673889643177
I 1.5986150835628175 -2.4744645930497398 2.0954492791638004
I -0.17196685783093332 -2.142338915278815 -1.2723838147719513
O 0.5393588361201558 1.6148612506927005 2.836337109019573
C 0.5275564985194706 0.8213408230842522 2.0078305332909485
O -1.6145138813577873 1.0574781869307215 -0.48367058481850334
C -0.4167705028563698 0.8498673590515727 -0.45069117106772066
