13
## STRUCTURE-ID: 645bb867f8434b31be39f294 ; CHARGE = -1; SPIN = 1
I -1.6946001398833697 -0.06840249271118984 -2.1384730291509055
C -1.9204983715622728 -0.07240622127997534 1.26716215812481
H -2.634666219390953 0.7606977998784469 1.2614579313190522
H -1.5370916967156663 -0.2339740884835813 2.274244275598716
H -2.398092469396987 -0.9795445049671261 0.8967654690833942
O 2.4448105686551345 1.328947990260367 -2.955270136047006
Rh -0.3866769123171276 0.533820769660915 0.008012538205450443
I 0.8785704646669952 1.8906947398644034 1.8349842412671427
I 1.9379523025822796 1.5401261823532282 -1.2278286561591525
O 1.951648644349323 -1.3132892152386222 -1.7921792907596048
C 1.6619344826143376 -0.6361662227698384 -0.8478563836493356
O 0.8669682137712655 -1.8287599875224523 1.0989403218460607
C 0.8297411326270436 -0.9217447490445793 0.3200405603213852
