15
## STRUCTURE-ID: 645bd5ac34971b6217507c54 ; CHARGE = 0; SPIN = 1
C -2.300578818831468 0.08310214980642144 -0.8981967358758408
O -3.438769549363191 0.11839178640728641 -0.9749609501653219
I -0.04307249232470541 -1.9967299056820758 0.7019628881657236
C -0.34460340295987063 -1.0712478782080064 2.655792815745029
H 0.596948438421255 -0.6221664008374115 2.9515616952206503
H -0.6408607503837853 -1.8583249344895494 3.33965370961487
H -1.1244512139714902 -0.32543525381804844 2.545902924205134
H 1.3226659798692793 2.571572264535795 0.7112885845763277
Rh -0.4356495490437365 0.1393226374240316 -0.9639145925800485
I -0.242803097889432 2.4359150658997972 0.8801280060348879
I -0.17990874801361806 0.936154568096076 -3.598176918322524
O 1.527137985097728 -1.5733257560429608 -2.7581348515218607
C 1.4424210544131353 -0.44378834974794756 -2.4137052028803594
O 2.3520617859235404 1.1856394790541758 -0.8849948715044479
C 1.509462379056365 0.42092052760237353 -1.294206500712231
