15
## STRUCTURE-ID: 645bd55c609b6723045c0133 ; CHARGE = 0; SPIN = 1
C -2.4226367766478276 -0.05120104469663742 0.7086419550036713
O -3.3650557337192164 -0.20056687905191148 1.313323764626725
I -1.7540370394196645 -2.9143477428222466 -0.7876091094286755
C 1.7815279328705522 -0.8197120856957993 -0.2726237727428974
H 2.5597422026311385 -1.1847362313075287 0.4012277349185599
H 2.1388070359556095 -0.9053084318820785 -1.3019550097857397
H 0.8799054285705217 -1.443529635085469 -0.1461982386988066
H -1.8152424471602688 -2.512318829333952 -2.3095195141649683
Rh -0.4810215814034997 0.6584453829309722 0.32591852550360384
I -0.7531713818997823 1.06414344458721 -2.2646951778447733
I 0.0006801127480953779 0.11673987425528884 2.8756184934184947
O 2.3169084332206977 1.5192323946398791 0.06866639094896644
C 1.546240953166645 0.6219705312778212 0.02252354151799748
O -0.29438047997158606 3.5862151977557875 0.7730797396762854
C -0.3382666589414726 2.464974054428615 0.5936006770516967
