15
## STRUCTURE-ID: 645be50dcd5be961ed6df3a0 ; CHARGE = -1; SPIN = 1
C -3.048353528427953 0.5651346736797618 -0.4509084454051239
O -4.155230249459172 0.8399510556641396 -0.4552136537290139
I -0.9072674851856087 -2.3521128670336484 0.7492243966582727
C 1.6631007490671665 -0.6040962398777644 1.4853837769380367
H 2.0359942355347727 -1.5705118185888187 1.8336735130985655
H 1.012938314370376 -0.18997941769969376 2.2533314942221208
H 2.507321971156457 0.0643981014501197 1.311072146400942
O 1.7750632886241866 1.7999586216995236 -2.09624653541526
Rh -1.168123676428699 0.30700413499802975 -0.28598045468021266
I -1.4395258293612856 1.4388759169372916 2.080807564553749
I 0.8310428336876412 2.109442830420891 -0.5263211337846525
O -0.6394826150382903 -0.30831899626609816 -3.1566154988815587
C -0.9003101870873512 -0.11567984936346959 -2.0596833919232984
O 1.4471083734037544 -1.1352980528174006 -0.873610562329861
C 0.9857238051440019 -0.848768093202885 0.19108678427728115
