20
## STRUCTURE-ID: 645bcc68a697585fd5732d51 ; CHARGE = -1; SPIN = 1
C -1.921268344784572 2.5903731888383943 0.15002800886311493
O -2.7230977433956975 3.3798660060453334 -0.13336491707558182
I 3.3910779300155798 -1.2883888499486287 0.9406284465396966
C -0.6517506420691132 -3.21938013481907 -0.3633955266584048
H -0.29717017582722327 -2.9207548103683187 0.6198673333645659
H -1.3700860478521577 -4.025233981149972 -0.2322603501025625
H 0.18398243557828006 -3.575352552885897 -0.9571832760962559
O 1.1923015705341864 2.7129116209955346 -1.2267123963535884
C -1.358457539050335 -2.079928312224862 -1.0530807911094493
H 3.7577771682732344 -2.6226453492533883 0.17796628332219142
H -1.7060024966160041 -2.3494640671345373 -2.0460502068352153
H -2.172978777988899 -1.6893042951313442 -0.4485157055350492
H 1.7127408355372669 3.4375527397485963 -1.6287293787817454
Rh -0.46938497853872374 1.6252380028026558 0.7704843864552812
I -1.905484700459241 -0.08448944288090987 2.23030071352791
I -0.02006680906471477 -0.32336725466236954 -1.388839527215873
O 0.768180724446807 4.250535781440623 0.3126727443594681
C 0.5894906985210211 3.0965304177105093 -0.0686418567232242
O 1.9607769686096852 1.6087570991726403 2.5188710613650813
C 1.0394199241320694 1.476544193703591 1.8259549546917893
