15
## STRUCTURE-ID: 645be3d636c988150d6006a6 ; CHARGE = -1; SPIN = 3
C -2.8746726000083505 -0.12355430771241609 1.1199971834375568
O -3.465450565727614 -0.42956155909636984 2.047467158937173
I -0.9941704781483418 -0.5209846804226625 -3.1520697228197125
C 1.4467177338850459 1.2867842486937533 -1.663624320182106
H 0.8294514991599332 2.1228179824229874 -2.0090369189601156
H 1.9712165605770953 0.842402898723854 -2.5131852162435595
H 2.1791209831485996 1.648356465524407 -0.9401207897184103
O -0.2219037524721062 -2.6292430607442623 1.6870683161056172
Rh 0.1369797466977604 -0.1270286805388565 -0.8724241937310033
I 2.9996995588762063 -0.6680367316860053 1.2464334317757657
I -0.21840328868219028 -2.695215258551827 -0.1794024843855739
O -0.7348148293892822 0.6965661157089872 2.423694400571623
C 0.1842579164218292 0.3543423705245172 1.7554236515733097
O -2.317423046687039 0.1790482447061375 0.1624844281795025
C 1.079394562348482 0.0633059524477143 0.8872950754599214
