20
## STRUCTURE-ID: 645bcf9ae2d94c530a36ef44 ; CHARGE = -1; SPIN = 3
C -1.3128862245225286 -0.6150710319235516 -1.4304176056262037
O -2.4566411674922723 -0.5159691218478538 -1.0314085024067354
I 0.5129399183006379 2.541657028633206 -2.1120347820136653
C 0.6578953054294711 4.441850533656958 -1.0168836192330413
H 1.4675396591752228 4.335815830388888 -0.30321606118095185
H -0.281998281676563 4.583457011649925 -0.49409884051767616
H 0.8477142810897718 5.208314604596962 -1.760327405259456
O -1.266412308037331 -2.5626300552885595 3.181074203304538
C -0.38269230199065885 -2.888702878807996 0.6689105312433189
H -0.3766298415567362 -3.664688143249459 1.4188346189142198
H 0.5177181555887101 -2.911926688906709 0.06576717667293604
H -1.2602213961510176 -2.9777439908317467 0.03795412689527085
H -1.517199994555203 -2.13504159941546 4.000625727070251
Rh 0.27438396467813464 0.484352811969709 -0.3111777503469724
I -0.05722634637645942 2.0771134516885326 1.7906827957853482
I -0.49949873888370405 -1.0678573798349258 1.7053407672734906
O 0.6158529635101098 -1.6354530774074085 -2.505515063288455
C -0.07767898864347131 -0.9484630020210236 -1.7430835522875985
O 2.539119370064588 -1.3977296219473971 -0.024755289658113182
C 2.055921972049264 -0.3512846811021211 -0.13627147534047063
