20
## STRUCTURE-ID: 645bbe9e670102699c0fad2b ; CHARGE = -1; SPIN = 1
C -2.8441734140049624 -0.7596357719619559 -0.011377181516454138
O -3.9868456909903296 -1.1677918050951661 -0.2072195041958415
I -1.7637683858770516 3.691527944318676 -0.8754062337359145
C 3.315471498271968 0.8466878643117283 1.7532698635875574
H 4.395891778583725 0.7476420744145005 1.85677493181158
H 3.0203507550002557 1.883165311930055 1.5905591009355078
H 2.807520210423033 0.5335409801332526 2.6664284284358635
O -1.9116989473085042 -1.632500042040268 0.45287536564989034
C 0.6218956277836473 -1.0204191550616202 -1.1855489342467727
H 0.6568489592541735 -1.9687913686788439 -0.6635857048401598
H 1.5400941640580301 -0.8298621269970939 -1.7295604535633937
H -0.24163844864282363 -0.9726848136738777 -1.83740816303679
H -2.300616522738656 -2.5082000544595204 0.6489784532034052
Rh -2.255147895784983 1.0884332337734213 -0.3223999505052583
I -2.922341869252789 1.5037298301124282 2.2101049872912912
I 0.39257418506098923 0.5248610211620302 0.2929158776771611
O -2.377299053980722 0.17273391464623217 -3.1501178600548254
C -2.2461263089911414 0.5873978815399616 -2.0684861761490296
O 3.2657272381810163 -0.756150545451751 -0.0824939253040263
C 2.8332821209551153 0.0363156270778247 0.6616970785562154
