21
## STRUCTURE-ID: 645be8fcd63ccb384a0d4d50 ; CHARGE = 0; SPIN = 1
C -2.623775551099388 -0.24461388715790983 0.1886080101697248
O -3.6565813939872083 0.15335871137487572 -0.10995031975696885
H -1.530436012422327 -3.6762741828784256 1.8614397808049128
I -1.256961042165202 -2.352435271771948 2.7020820189962844
C 2.10458499806453 -2.1974572570211377 0.8857365661525528
H 1.3648072219296996 -2.834170380025171 1.3622109636328472
H 2.749484649726703 -2.830378941076219 0.2681515702513004
H 2.7188552264841896 -1.6982880226597972 1.6386281777288685
O -0.3043679876186439 2.4556923066597243 -3.1985353712146756
C -0.8066486789249809 2.8880828040761943 -0.5875669037886048
H -1.2338840655267063 3.5616781693941784 -1.3163323482444884
H 0.16155596717926507 3.2532978071845635 -0.2665473226515796
H -1.4674023990087814 2.739632889936789 0.2595238502704784
H -0.046140065800615526 2.0135444192930563 -4.006071271453621
Rh -0.7865998457693809 -0.472149918053687 0.6631854790917445
I -0.22113560671999286 -2.3408784278478754 -1.3678811298010831
I -0.531041242153686 1.0433692281364306 -1.571392449773963
O 1.2362825284599082 1.4347562743895463 1.8162335383056374
C 0.5311387938692479 0.601584824588674 1.443569166932024
O 2.048296218630466 -0.3249005019521673 -0.6614040725430852
C 1.5499682868527669 -1.1734506445896098 -0.0036879331078565353
