20
## STRUCTURE-ID: 645be2ae2571ba348439f2a0 ; CHARGE = -1; SPIN = 1
C -1.5164553843758455 -0.594295431655423 1.457786960540991
O -2.589660669130444 -0.23138021108840578 1.6188569512052287
I 1.4056016091378762 0.8072233632973665 2.559971981307144
C -0.5435276466465128 -2.188785444927022 2.57900570389304
H 0.37970718343641036 -2.77464422026932 2.7019149298723923
H -1.3593319014792853 -2.8601329854671906 2.3143357268709934
H -0.7630214006735466 -1.6647259360296531 3.5086240992153486
O -2.1693679134894497 1.554561475539832 -2.347532595330582
C 0.2686047496344918 2.6241315114207393 -2.035746152435498
H -0.4032794093746026 3.2501417095266487 -1.4644118343946517
H 0.1454139143932115 2.805292850236154 -3.0946615972952007
H 1.298314481701123 2.728767368149267 -1.7175697631544682
H -2.870590383350466 0.9256073712513301 -2.5223641673671553
Rh 0.2124653208657506 -0.9774264918694006 0.9818503443828684
I -0.2635157320628162 -2.7948141091969116 -0.9296657730178313
I -0.3042300346099053 0.6180576683399163 -1.6626114859675871
O 2.8554813596081887 -1.7139701825800895 -0.026604209198411055
C 1.9187619444629054 -0.943807040665637 -0.08384566444661201
O 2.5339387926870915 1.1891898351528092 -0.9050710835456579
C 1.7646911192657624 0.24100890083496268 -0.9322623711343206
