18
## STRUCTURE-ID: 645bb34964c2742d570fad14 ; CHARGE = -1; SPIN = 1
I -2.4876564853269447 1.5572239908415049 0.15017728567255115
C -1.2631957368041067 -1.774385963475745 -0.28694810077232574
H -0.9616049863100004 -2.5471840986411554 -1.0027723570424574
H -2.348706456427269 -1.6655137246838894 -0.36919637153733204
H -1.042312830518275 -2.1504989812611806 0.7164890047227628
O 2.054239577201801 -1.4661586802459243 -0.3037603310284721
C 0.40438531159957675 2.2006399783550155 2.6633064176500816
H -0.6601642309465258 2.412129841663692 2.6422204866348618
H 0.9443173442043177 2.8533826353512257 1.983869396156133
H 0.8034686051087826 2.2537707570486343 3.6694197256752936
H 2.7950681759970237 -2.001989701759048 -0.6537266157529497
Rh -0.2798516991246632 0.07408135273661484 -0.6256366581066587
I 1.286001409744712 2.251549034851863 -1.2598249309587615
I 0.6859418636522843 0.16043045392302382 1.9622995639583634
O 1.3932814928351576 -1.3997575346600315 -2.4255603075925087
C 1.2127055733009549 -1.0635312646083297 -1.2684136769004921
O -1.510438626142932 0.19047618837163025 -3.3145996113533047
C -1.02547830204379 0.11533571619208544 -2.277342919424831
