20
## STRUCTURE-ID: 645be2a7941d8a2d9e52ff50 ; CHARGE = -1; SPIN = 1
C -1.5592668175725248 -0.7711263760288003 1.3228242871411653
O -2.664027959540721 -0.4913237969002443 1.4257126802608253
I 1.181751839706416 0.7578948182508247 2.694619128768203
C -0.5471825780528243 -2.353176282802292 2.432028050852078
H 0.40579787772995196 -2.8802874359519555 2.5888684159258144
H -1.2942768837902616 -3.0634816123999182 2.0806290866627486
H -0.8631853832343029 -1.8949552042246536 3.368561922022819
O -2.1147325276911073 1.5154215224510537 -2.432659464859715
C 0.20625061375174322 2.740358905455376 -1.8862981965227823
H -0.5504422091055459 3.285716883561084 -1.3388792680720472
H 0.14611556544457158 2.9671112509602695 -2.941840563229007
H 1.199469064189268 2.902321464569583 -1.4865877787624215
H -2.7508996049884495 0.847346111465882 -2.6912933594111976
Rh 0.21998788581752168 -1.0104731965408154 0.949548994506141
I -0.010270149640001816 -2.754605015196788 -1.072308014995293
I -0.2384651701231814 0.6816588793422172 -1.6510030716326562
O 2.9659384465496865 -1.5113051879638737 0.07720928554376845
C 1.9838803796059865 -0.8013165928511015 0.00329099941218369
O 2.486201356906598 1.417005671503412 -0.6550802558151656
C 1.7973562540371155 0.41721519330074947 -0.7873428777954268
