15
## STRUCTURE-ID: 645bd04cf25f6560416006ab ; CHARGE = -1; SPIN = 1
C -0.9903745251009434 -0.6718846065033084 1.1974422244545468
O -2.071590250052766 -0.7923996900680332 1.568831643590194
I 3.3323607725420072 -0.0666158715501058 0.393781622060843
O 0.2852534044346736 2.440273920043865 0.6936854114033554
C -1.5195436650887575 0.6065348135999992 -2.500796476648811
H -2.0682472726681556 1.5177248863808024 -2.3573149215622844
H -1.9476215459011148 -0.2572400183049884 -2.975301846323314
H 0.25961631517376255 3.285360524871913 1.190424882620952
Rh 0.7667150682532241 -0.4460099814033352 0.7085031323053282
I 0.3690030123432152 0.48937456660624423 -1.8049307541526884
I -0.2691515344499933 -3.231319632720969 -1.59259255534136
O 1.432151056519654 -3.356345243429302 0.9738291231415453
C 0.9976006284989352 -2.4337342082789584 0.39581412074398775
O 0.8101722886573068 1.5221352388378067 2.6560331091066525
C 0.6136562468389517 1.3941453019183467 1.4525912846010571
