20
## STRUCTURE-ID: 645be2e1bfb9e702e80dd8d4 ; CHARGE = -1; SPIN = 1
C -1.4254503333642574 -1.9644687797610834 0.8134531560173549
O -2.2052768868761485 -2.7963233151718683 0.9140603157639754
I -1.7581128048892005 1.117202986157985 2.1658001341738555
C 0.5905881190443076 -1.562923024478871 2.547991855466608
H 1.2886506351535638 -0.851612553586777 3.0021355018214857
H 1.1340589422196419 -2.4721056427717083 2.2797173998279896
H -0.1740282478453808 -1.8142920215574012 3.2849088248637806
O -1.8576037048455507 2.0102785477214042 -1.7437065887552923
C 0.7488992942917169 2.271339298605842 -1.3919632969997813
H 0.5361564495626325 2.9088190619659255 -2.2403340357535027
H 1.7853334329943538 1.9627862713199828 -1.3841627216196575
H 0.4847032535687269 2.771125272549821 -0.46825953504746054
H -2.738494080200559 1.708833661842053 -2.0026848090094065
Rh -0.188647603059033 -0.6081538243922145 0.861475901523776
I -2.9070939481385847 -1.1294673471355987 -2.2794103032457262
I -0.4828612706549005 0.5610409501872263 -1.6093262862569737
O 1.514543682951448 0.5419682160604735 0.7244409625666083
C 1.661961089944586 -0.4599258011277901 -0.013201102873194582
O 2.234247072495578 -1.4556969067335308 -2.150587009039677
C 1.758426907647067 -0.7384250496938668 -1.3103483634247497
