15
## STRUCTURE-ID: 645bd605eaadd2297a315fbe ; CHARGE = 0; SPIN = 1
C -3.380304292203336 0.17852799876493317 0.6924241811924662
O -4.45307452499908 -0.24162510476558707 0.6101364212829531
I -0.6668034144377238 -1.4698330754692048 0.5638729446354508
C 2.952156145836525 -1.8944222030393123 -0.4021132869545837
H 3.998692396912457 -2.027941169054644 -0.7092071612937757
H 2.321171891832545 -2.650691487929811 -0.893047315094142
H 2.863059165847268 -2.0623029670336006 0.6800741702011418
H -0.7558194567587241 0.10201553334205794 -2.70669455718525
Rh -1.71654981649022 0.8940686726227174 0.9598345761809953
I -0.9711436097587188 1.5613873818754134 -2.118426090926102
I 0.5685197765817988 1.9173486962862447 1.803531136103497
O 2.188302560405016 0.3858916372444342 -1.018973791439076
C 2.5132836527733877 -0.643438999977578 -0.7224483775879295
O -2.9750612065705706 3.4670476031309523 1.809844446319457
C -2.4864292689706318 2.4839674840029775 1.4511927045649327
