21
## STRUCTURE-ID: 645bedb98e021d5d342fb203 ; CHARGE = 0; SPIN = 1
C -2.4965289258053818 -0.4648681919952431 1.0071745074542482
O -3.3386061477870386 -0.3950066236718202 0.21490490245839522
H 1.2410217854355723 -0.27491931347863935 3.7463608709812855
I 0.46994219373111856 0.5804896467492263 2.4643392010579066
C 2.820411754582266 -1.6161733985609181 1.2002899646713334
H 3.1288790401526647 -0.6964475579768548 1.725456679091105
H 2.235879672416196 -2.1997190096973593 1.925001215837469
H 3.7164908213665027 -2.196577281006657 0.9258394111204072
O -0.8866763144793922 3.918781334775233 -0.8764376004819959
C -1.7300889015219294 1.6193194869391148 -1.9547001153843329
H -2.5263999255955194 0.8941144057624406 -1.8138574047851557
H -1.0894122864767504 1.3240555105486584 -2.778537164880846
H -2.1402040200402843 2.6014538244327845 -2.133069388205411
H -0.4186401309021369 4.556875089024067 -0.34010291752130534
Rh -0.44326541292680244 -0.830014886587409 0.42325129256253563
I -0.37401980379796346 -3.3223626654050267 1.2985601014661288
I -0.6018207412722626 1.7606462753905088 -0.2241009170969148
O 2.193101731716209 -1.119370763301952 -1.126704772721371
C 2.168522832867329 -1.3026300856809254 0.00989054700064918
O -1.1215581103647956 -1.5429853917996559 -2.3882554565246195
C -0.8070291112972127 -1.2946604044602772 -1.3053029560992746
