20
## STRUCTURE-ID: 645be049c6298a46785c0124 ; CHARGE = -1; SPIN = 1
C -2.743199428903319 -1.2884116853615304 0.10847581787707462
O -3.656396523649761 -1.9440404396243807 0.3230890641757022
I -2.4208396558827148 2.231959227374988 -0.1592677792399865
C -1.372713991859392 -0.2249129661090903 2.6625984198252217
H -2.3332742548485195 0.2904021712035128 2.652044967285327
H -0.7945674926034934 0.0956802467699041 3.529103868808308
H -1.5623820631806817 -1.2966520077350154 2.7159994339361946
O 2.5049099469724156 1.9884919264839487 -2.6390491053314267
C 2.7088337647324376 0.22780371658704487 -0.5785994656165507
H 3.5395773458296924 0.7226859487570979 -1.0582685761027133
H 2.8599099701679767 -0.8442189352143523 -0.5182008414675244
H 2.5069753875670178 0.6497370874671874 0.3964984049274594
H 2.1686103523312523 2.494959196428931 -3.3794216211417334
Rh -1.3337640165117752 -0.2221212294247669 -0.43562478351285466
I -1.960556037802442 -0.4571667210075881 -3.138092616957555
I 1.033038727428726 0.557202400524336 -1.8324291991624335
O 0.48619258890646305 0.6136437910986241 1.4250489613145978
C -0.6072401250731346 0.09676841172424197 1.4114732620398618
O 0.8077589748231291 -2.3364025376929347 -0.678771195491896
C 0.16912653155610774 -1.3554076022501562 -0.8066070161650567
