15
## STRUCTURE-ID: 645bc54b89f5c45c427e8a8d ; CHARGE = -1; SPIN = 1
C -2.514868868653169 -0.4865523543580113 -0.4309358669683982
O -3.3901613212435153 -0.7239029109250018 -1.1238409630701098
I -0.10605048134088821 -2.5930755370784406 -0.42830600864563934
O 1.202692376205903 1.326078978262218 2.117010870854535
C 1.578727009604124 0.10786579622238972 -3.0435196918520333
H 1.3077355998222693 -0.8085259166740235 -3.5394202243960815
H 2.5532820665450884 0.14474044081075255 -2.5868451441418716
H 0.42707741654695813 1.8598454630028456 2.372466008122263
Rh -0.8735869067506365 -0.08574101379476637 0.48255512877245466
I -1.7421962077899888 2.4750099030935786 0.7978218385157911
I 0.09651645731667587 0.9787443137149853 -1.9452732555181138
O 1.9444290009133722 -0.21335843720517034 0.7502321632403529
C 0.9658096039200796 0.36380161230749825 1.1873800093840816
O -0.5549989423515477 -1.4959891964343635 3.1375049865039313
C -0.8944068027447244 -0.8489411409445136 2.2531701491988403
