15
## STRUCTURE-ID: 645be4549aaaac52940203c0 ; CHARGE = -1; SPIN = 1
C -2.4456303029171744 -0.23774064285865343 -0.12342953804925584
O -3.5406742671388587 -0.5544324607108977 -0.25402587602827764
I -1.6795385432128143 2.324447932035845 -1.7951088340499939
C 1.955133480773503 -0.6277139665103392 0.660461352053655
H 1.483222159558682 -1.5820398374355407 0.9100317326528968
H 2.0561563403678527 -0.06691375893109029 1.5901157760459834
H 2.9345610435457683 -0.8176636726056964 0.21906492459415336
O -1.948842382850792 -1.9598052463715145 -2.623751845460033
Rh -0.7962493369337603 0.6893351217980439 0.16546966569880828
I -1.0122804459231811 -0.206619087733301 2.6507642161051472
I -0.9803014758375836 -2.277473261282969 -1.0673580573089805
O 1.3726721681193652 0.297691458290749 -1.489079250759808
C 1.1368612211190021 0.09206867433723159 -0.34357201112746266
O 1.0507765936073825 2.915725521969793 0.8952882009321111
C 0.4141337477227634 2.011133226008346 0.6051295447009397
