14
## STRUCTURE-ID: 645bbbfca05fda1f516ee1c4 ; CHARGE = -1; SPIN = 1
C -3.387735919332673 0.24184147743793058 0.4520727682547
O -4.367230918583578 0.4613135066638145 1.0166628255780017
Rh -1.9623428672598306 -0.28595303425574087 -0.594494815026248
I -1.5111536982001337 -2.3010157489029135 1.1464175368481142
I -0.016634464545321064 1.647629386004536 0.45152933489671
O 1.483040299317652 -0.7874740602902577 -0.3889892455491524
C 1.7231160950511495 0.13954308898752257 0.2893640817301448
O -0.30241659855568853 -1.65238150533408 -2.6687404970888777
C -0.835884219020463 -1.0789693546313017 -1.8260027340599214
I -3.162015078162104 0.944364571076618 -2.693938605456818
C 2.8764500911265865 0.5763923627215379 1.0547524753802562
H 3.6802268781067724 -0.1500657689949886 0.936924812263785
H 3.185044504309508 1.5673657085002155 0.7198949947170622
H 2.597535895748121 0.6774093710171081 2.104547067512241
