13
## STRUCTURE-ID: 645bb8d5ec59dc4b313adfd0 ; CHARGE = -1; SPIN = 1
I -1.728193864298182 -2.6514345416790452 -0.9662315365271306
C -1.412503139596941 0.6948159207275822 0.35135676408587097
H -2.0187979280016064 0.8552866615510408 -0.5443854629857331
H -1.0530878083375843 1.66609976022398 0.7032660513358532
H -2.0641211718564816 0.2758504834445397 1.1232728890183428
O 1.3083162739907326 1.1820912378657111 -1.7793808713725567
Rh 0.1635299070362047 -0.6506926169251137 -0.08089940398529268
I 2.393034532594803 -2.185350522169464 -0.5387663550306276
I -0.0018510905378143541 -0.22319338369107058 -2.6461036749171902
O 0.6960379902137486 -0.7703535543245497 2.839096770648455
C 0.4576010714115254 -0.7310299038779897 1.7211387650685694
O 1.954310190605009 1.6093913113179015 0.2877950253481134
C 1.3057250367765898 0.9285191475364774 -0.47015896068667673
