18
## STRUCTURE-ID: 645bb684481d1c531a5c012a ; CHARGE = -1; SPIN = 1
I 0.2152574861821825 1.9453143029503763 1.1000388631136742
C -2.1211728724151735 0.7055919555007104 -0.9365763099347036
H -2.7755580793409442 0.8638923822881616 -0.07534700285868876
H -2.576594458733754 -0.0570061182544902 -1.5873767547170294
H -2.0757910893911005 1.6475681511743514 -1.492700823717093
O 1.670089472255046 -1.019548970302251 -0.12462340490547084
C -0.13884914319777533 -1.2388771671001453 3.1624496153122252
H -0.15716795454270785 -2.074350817914882 3.851992864079389
H -0.587647760083375 -0.3479273506050545 3.587356502826369
H 0.863438896812149 -1.0260312214998788 2.8057564990994583
H 1.7082332587638624 -1.9689874081040704 0.015724577237780174
Rh -0.2573020212415088 -0.07921871436173689 -0.46590023655359153
I 3.450813274040343 0.23272762666540336 -2.0810139717705067
I -1.3203132983834602 -1.7934579754357078 1.4254469210877225
O 1.7165541073305524 2.61277104171509 -2.0503051475592566
C 1.650675314200988 1.4214808506430348 -2.108858330872674
O 0.1782359445386402 -0.31272939001978983 -2.93283576626266
C 0.5570989232059507 0.488788822660977 -2.0932280936049548
