20
## STRUCTURE-ID: 645bc5c1f3d22227bf2fb1fd ; CHARGE = -1; SPIN = 1
C -2.401129804946894 -1.08494633143224 1.901902202145572
O -3.3826876710488465 -1.5289601368219463 2.2939579393683998
I 0.5553774845869285 1.3272542255203106 3.3227469762027817
C -0.581115221972121 -2.0843997015970546 -1.410710697871662
H -0.6758670586346502 -2.1076875983644063 -2.4963645517384183
H 0.3290074304714747 -2.595835193268498 -1.104404447414334
H -1.444198169854452 -2.600078736538033 -0.9873957087611673
O 3.4496468650652217 1.0254209092693882 -0.190198268739782
C 1.0760555491215846 1.9933120717396051 -0.882714081975373
H 1.8633780769742914 2.2566359587190257 -1.5741595457985216
H 1.0875404409694756 2.66216483009897 -0.029963168024508963
H 0.10285367167970688 1.9646289678996636 -1.3593005256857171
H 4.158385591525624 0.49336489818194873 0.17473945339375405
Rh -0.7848289239522467 -0.3554615992501279 1.351201484769961
I 0.4129122722624055 -2.61970462589387 1.9524219724140908
I 1.4891233214510282 0.04492369745314568 -0.1766313379193912
O -1.959843767445204 2.3316984531804086 0.7837528041457338
C -1.548862029592078 1.284793955175329 0.9995868738948283
O -1.1874269027439486 0.23252230846569014 -1.580490215080465
C -0.5583211539172858 -0.6396463525373661 -0.9879771573257986
