20
## STRUCTURE-ID: 645be1bf407c4016726ee1de ; CHARGE = -1; SPIN = 1
C -0.5649686771274187 -2.1929224196010506 -2.111770037409975
O -0.5939947677795657 -3.362256847020013 -2.0799064891584003
I 0.1324372990090962 0.41949072048153846 2.202079398435134
C -2.047221962468627 1.8346591742702008 4.631762226852792
H -1.9191691921252876 0.7428842844671585 4.667554483968472
H -2.4513201591869436 2.2272265207174544 5.569253295344988
H -1.0177983335822987 2.18480742689501 4.449784420486918
O 0.830905532987348 1.382880697314362 -2.7287528452721492
C 2.8442703721761036 -1.4856095419580413 -1.4424035914515716
H 3.0160464402987723 -0.7607498667429605 -2.249403602005093
H 2.3898545838597114 -2.3944367090649226 -1.868636065446629
H 3.8169673668022077 -1.7603504260178862 -1.0191971842552492
H 0.2713384133270025 2.1564304740651963 -2.597850396142921
Rh -0.07840243866441239 -0.4595160208054171 -2.3450013457100263
I -2.010060654557834 0.6433936414583776 -1.0076180772821504
I 1.577126842888658 -0.6436911960807685 -0.0056594518951883005
O -3.492191844185308 2.4490761088935593 2.716454379435923
C -2.8177061305276383 2.15670752885855 3.5623708156415788
O 1.30448117808074 -1.9162802815593127 -4.573219612651232
C 0.809406130775675 -1.2217432685710594 -3.7698403214852108
