15
## STRUCTURE-ID: 645be4efa3fd532e8d36ef4a ; CHARGE = -1; SPIN = 1
C -3.185183676501613 0.15356964278065774 0.1374565910906698
O -4.233913798474229 0.09303146113201788 0.5989833111630536
I -1.2847117615302173 -2.4362314093905244 -0.18613413740146098
C 2.475366310975029 -0.5871220816748552 2.105457603146892
H 1.8025505490606402 -1.1250213175315695 2.777441934303671
H 2.7807945264555527 0.31525043426575233 2.6361578459243913
H 3.3279933589816078 -1.2132693942115507 1.8417899385931846
O -1.5670168369171615 1.9983128375264043 -3.943433010751636
Rh -1.587200912957878 0.14885347140175134 -0.7949752023831776
I 5.403332226624037e-05 1.2431256050821557 1.3913014428203414
I -2.3256235112661856 2.3038592875866093 -2.24036322735425
O 0.4638734159196584 -0.1383090361387338 -2.949537593858441
C -0.2302144376770783 -0.00635376870582789 -2.0472791798094843
O 1.810226513539614 -0.5090003424036417 -0.2319737207654113
C 1.7530062270699895 -0.24069538971866744 0.9051074052816864
