15
## STRUCTURE-ID: 645bd5868c64e10f98732d3d ; CHARGE = 0; SPIN = 1
C -1.527107302753939 -0.4394948442443869 0.5212942041438134
O -2.452617632706421 0.0690104885002995 -0.0063344295344340855
I 3.272938346121957 0.6508253959780327 -1.1585244481250734
C -1.372632735187633 -1.342768706918375 1.6847281812010868
H -0.32374959780112395 -1.6253750859770852 1.8689882480204414
H -1.95266788188668 -2.24870866551587 1.4932928187304164
H -1.7815073390338854 -0.846600174696724 2.5682832839291967
H 1.9926805461344466 1.4421301611234805 2.506511876305977
Rh 0.30194980940927635 -0.046136882034106416 -0.1388735177289396
I 0.6241461367334666 1.8346938168312004 1.7873385609059669
I 0.2145356821551299 -2.195921803520847 -1.604211202800764
O 1.6134157155954882 0.6447016017401198 -3.617004808555686
C 1.5272140091848898 0.8715990803037328 -2.4590228855770504
O -0.46948625431944546 2.0508237582993245 -1.8155560525710868
C 0.33288849835447554 1.1812218601312339 -1.6309098283438705
