12
## STRUCTURE-ID: 645bb429c4f80c71422fb200 ; CHARGE = -1; SPIN = 1
Rh -0.6489634677441166 0.4855553609335541 0.0002981244662398755
I -0.61226790753098 1.5983524849949209 -2.4388125204711235
I -3.021772062800649 1.1303636427516335 1.1031720924169979
O 0.2050190227897839 -2.048701876138003 1.222531812574643
C -0.5722032923700364 -1.3628025319653285 0.6128092545628651
O -2.42866793014719 -1.7604074873535582 -0.9957072789891345
C -1.547782695756215 -1.233477406398625 -0.37724874227940375
I 0.819435675082553 2.0522193236530106 1.6245193792847346
C 1.7584902212005544 0.40355088464487376 -0.06734287758757526
H 2.297000880851378 1.1663083942280736 -0.6154905552864662
H 1.3837293425709727 -0.3638453232973152 -0.7610999430759922
H 2.3679822138539417 -0.06711546605323351 0.6923712543842171
