17
## STRUCTURE-ID: 645bc06eef48bf315a39f2a8 ; CHARGE = -1; SPIN = 1
C -0.2439029153325229 3.7674567863562327 -0.1014814583773088
O -0.794071596177419 4.785795452080733 0.00046577346478839186
Rh 0.7254450571336385 2.229106454672654 -0.4224392612846031
I 0.18642932334150428 1.1402729919072474 2.0673135727557748
I -1.4343428531087024 1.041091420908502 -1.6010817309955936
O 3.183542150960825 3.783522684653809 -1.226121268232433
C 2.225974524293614 3.198434530601082 -0.9167938399105479
O 2.7479872793622575 0.5949347693725321 -1.8027333039478382
C 1.818551856681906 0.6215187520046009 -0.9817046397553808
H -2.2075500657744027 -1.2872146281226051 1.7851317673237879
I -0.9661796831025052 -1.8970134883876784 1.0141772684586197
O 1.4892135594508287 -0.6071538992713262 -0.4556067351547012
C -2.079309967455475 -3.8038411416880735 0.8869266986290769
H -1.4051861971244148 -4.534821441942237 0.45143929432382424
H -2.9370680889315848 -3.6367178521648174 0.24278160661269876
H -2.360376502643895 -4.083910924708115 1.8974212079562789
H 2.050844118426336 -1.3114604662725506 -0.8376949518664331
