20
## STRUCTURE-ID: 645bbf8084a0b96b40732d40 ; CHARGE = -1; SPIN = 1
C -2.720486198088563 0.5397919219509797 -0.05926898644850499
O -3.8274291121639115 0.25651721154247686 -0.19374765294700053
I -1.3361652523935987 3.4803114383852423 -0.707844584693483
C 1.808864249288776 2.4729000510164747 1.1539001880539497
H 2.496641898301954 2.6140436851411843 0.31779340513646137
H 1.0256450598739835 3.2259799112897634 1.1190088247303538
H 2.3582677911348737 2.5845625946381565 2.09173053596298
O -0.27785628233781917 -3.9880962035318315 0.4489884165278317
C -0.6678408095257047 -2.3152831909583416 -1.6558906439913805
H -0.9439887314872499 -3.3590480602439943 -1.6776815093294213
H 0.31411209259557044 -2.1747779468649657 -2.093450892328466
H -1.403062159486019 -1.6912764545923282 -2.1545040972878735
H -0.10924291652502213 -4.275948291446853 1.3454623036690412
Rh -0.876449517456377 0.8995248335344284 -0.11137833601783018
I -0.5503548978995947 0.98942542037384 2.7222082770186775
I -0.5790468853137751 -1.7260638017876182 0.3816603749782741
O 1.4645677622389865 0.5663377027265349 -1.9552121509844034
C 0.6263522493496562 0.7668507111442201 -1.180889060140877
O 1.8915229027628038 0.048145659747765295 1.0962377180034504
C 1.3059487571310227 1.0861028079348722 1.112877870088222
