21
## STRUCTURE-ID: 645be88494b6b8167d39f2ab ; CHARGE = 0; SPIN = 1
C -2.5582327841673536 -0.38030109568113246 0.45138763723404984
O -3.456153869470312 0.33040943609401013 0.2504951819449206
H 0.05346301592353775 -2.7291522406098747 2.0791941225045347
I 0.1985690160437225 -1.2666789564579952 2.7383636811338197
C 2.6387378376076347 -3.9232082178681336 0.43816134487002784
H 2.0718966993025454 -4.503041160230958 1.1775653973208284
H 1.9285116317455162 -3.307783919079635 -0.16439779060481993
H 3.1335419491751177 -4.612004530615087 -0.25966358836212194
O -0.6733314924166567 3.063380290391793 -3.3897042180041503
C -1.8033481332921422 3.303956813026492 -1.0207021128195024
H -2.1994584859667956 3.6737417399595818 -1.9564471164170294
H -1.1932297158064047 4.076477193623538 -0.5544668668666196
H -2.6191374056965158 3.0149910406657554 -0.3589005379441065
H -0.13296718605607163 2.7648419336895107 -4.121266037145053
Rh -0.638597246747355 0.41814529316778004 0.812669473682193
I 0.5844252556017464 -0.9698656411197297 -0.985844697012144
I -0.6254934605974345 1.6851169903253436 -1.5065198865612348
O -1.435987643037577 2.989478117094825 2.1114032496697983
C -1.1245101058204907 1.9579697317665572 1.6714337071049985
O 4.307060444539613 -2.4682474593187402 1.5462671006633952
C 3.5442416791357902 -3.118225358823932 1.0409719556081334
