23
## STRUCTURE-ID: 645bcfb8e6352d605660069a ; CHARGE = -1; SPIN = 1
C -2.2244835086568138 0.06959129550351906 1.4931751326460705
O -3.0157197151311115 0.6185495530159119 2.151910320206378
H 3.5777905171028674 -1.510351483571546 2.833286402741241
I 3.0212953388305395 -0.35341917008686063 1.6692297743389461
O -3.986762041814301 -0.40664163938012055 -0.5354985378470049
C 5.1751416877239 0.22044336952394597 2.467470439709671
H 5.444939491026428 1.1414914611287683 1.9533093789372078
H 5.817113913742535 -0.6188646051247686 2.176427273311296
H 5.0555239295018914 0.36674352718295145 3.547204949285762
H -4.686759486030547 0.212565184706575 -0.7912225667141591
O -2.594299730696753 -0.03822785426483923 -2.364310261071755
C 0.12824361666830078 1.253346456347742 -1.9610788489316078
H -0.7301299875699189 1.8158419629496612 -1.6101121907640457
H -0.21350657816174684 0.41401292371886717 -2.56712063606787
H 0.7669306286387017 1.9001910335301435 -2.5581005294335477
H -3.2288873356358407 0.5598286817987341 -2.7824063311059604
Rh -1.2927182957667076 -0.8788501140773476 0.22245729281219837
I 0.10879182013675488 -2.294381067484153 1.8669252378103236
I 1.1042692343199416 0.5181468277951778 -0.33729066821328146
O -2.695843950583062 1.5092499398706556 -0.6554441937710347
C -2.6857318086916697 0.21363486734902398 -0.8635974985314281
O -1.5193769923150369 -2.699036692208578 -2.1453484365819784
C -1.325820746638318 -2.0138644582234377 -1.2098655027654412
