13
## STRUCTURE-ID: 645bb37788ae935abb6006a0 ; CHARGE = -1; SPIN = 1
I -1.8447765146225388 1.8802933072370527 1.5434884550342178
C -1.5260033505821258 -0.7159774763865949 -0.9081981253568642
H -1.2853814467456681 -1.6253418208846855 -1.465513075765771
H -1.9513893147520645 0.004320997163010085 -1.615341899476601
H -2.298677451240671 -0.9729238075925254 -0.1781093071671312
O 3.318191003980642 -0.1675771437673095 2.0187585717811736
Rh 0.13379032815345376 0.1731385054462538 0.04288646405341909
I -0.35478767576201076 3.1053170147453035 -0.4612315295368279
I 2.2980081083564294 1.2431777865015008 1.3163021245338855
O 0.46973933722589756 -1.8654709799401332 2.205699500277912
C 0.10632977215120752 -1.0547804513126011 1.4697358098334088
O 1.8659702190381815 -0.13837563020402407 -2.378088159790813
C 1.0689869847992735 0.13419969899471976 -1.590388828420007
