13
## STRUCTURE-ID: 645bb50d47e1ab4ad936ef4d ; CHARGE = 0; SPIN = 1
I -0.5354246728318824 2.3624542644999145 -1.0723131869090075
C -2.1044200003417126 -0.3989688540411381 0.2686509859688915
H -2.4957223033340856 0.5535111211285907 0.6250902503933192
H -2.160081334154795 -1.1404316716288998 1.0662339111340742
H -2.6761251899689693 -0.7360061419760733 -0.6063031359532054
H 1.3765480966474923 -3.2369248321742963 -1.0542449871144526
Rh -0.20147169817927424 -0.22083789420071537 -0.48621520844368404
I 0.17539436809142078 -2.8332984067237623 -0.09491287599969114
I 2.399780454653656 0.22669281059835344 -1.6412677958016222
O 1.3891861003470267 0.17240316008533385 1.79518655856703
C 1.0552269665726244 0.6176805048897922 0.7300338460764355
O 2.246441542743505 2.7717055462298172 0.3437984370530367
C 1.5306676697549921 1.862020393313072 0.12626320102887517
