20
## STRUCTURE-ID: 645bcb88843cb079f45a483d ; CHARGE = -1; SPIN = 1
C -2.553515588030733 -1.3132032193043908 -0.537792963337502
O -3.6004170856831017 -1.7497193413488954 -0.8086349356821663
I 0.004201580538677717 -0.9026171113636562 -2.7303723442748518
C 4.137197532269264 -1.0580725449595332 0.3830909434628262
H 4.323643887062633 -1.7651114448646494 -0.42642072285791
H 4.747435707618676 -0.1649275417562309 0.2571820982251639
H 4.372478022647908 -1.5709364556297818 1.3145907625238642
O -2.5814038731820506 -0.12435209764015213 2.1280940512404576
C -2.183341431679214 2.4635782994786606 -1.6849569458545814
H -2.884787368617049 1.6989719511870376 -1.3625596326553238
H -1.8724424157908073 2.2875773534457173 -2.7084576201544124
H -2.593898710024342 3.4568848688483067 -1.5595813113728818
H -2.564145470584423 0.12848936958144846 3.0733392314212256
Rh -0.9023768605604913 -0.6014500800647501 -0.22413008413368807
I -0.42617241866630645 2.297525538325083 -0.4323155125739306
I 1.362069263520209 -2.415994911036657 0.720194615348835
O 2.1840682049452957 0.353398194655637 0.18904796388540343
C 2.7222930597130497 -0.6829017441371409 0.36546641537357966
O -0.36880354926693815 -0.07458756229033106 2.4018356129700154
C -1.3220824862302991 -0.26255152112564306 1.6423803784458284
