15
## STRUCTURE-ID: 645bea1a2aff6e6bbe108f18 ; CHARGE = -1; SPIN = 1
C -2.3054249913386244 1.3604769430949584 -1.7007239619405896
O -3.2773604603627433 1.949314213475706 -1.4986492888732645
I 0.7282988077736431 2.810501482171685 -2.5026757511735087
C 1.1345439818061362 0.04817466645205038 3.8295387620343635
H 0.4289496138841153 0.7054769497508331 3.294804474066811
H 2.0800234178284676 0.14760073456260253 3.278384529377602
H 1.2585331575727086 0.3736730330546238 4.869903610573354
O 1.4863099066014533 -1.5683162307551335 -4.393405252225026
Rh -0.7878511589616733 0.43589136622765945 -2.1519539959084604
I 0.24824271745647214 -0.05349680733438987 0.24564299548747026
I 1.2395055278995597 -1.1270001460918357 -2.5911030235807395
O -1.7441326487234068 -1.0895241093414278 -4.554618121384641
C -1.5006997568934768 -0.4720772668668576 -3.5965525062712413
O 0.32401585547754236 -2.290166247337096 3.7249450580665853
C 0.687046029979853 -1.2305285810634072 3.7464624717512978
