15
## STRUCTURE-ID: 645be31201f38b0b78315fb0 ; CHARGE = -1; SPIN = 1
C -3.0920640096559078 -0.3538503809013768 -0.345785501652766
O -4.224279369839075 -0.3050544525102704 -0.4730479533890419
I -1.6693152357440537 2.376528370249333 0.18685334043710566
C 1.8677216159813055 1.2731276832544405 -0.4667934497620983
H 2.4444768993043073 1.3490905315872432 0.4560223844856387
H 1.1770757132253271 2.110404935686259 -0.5440667192162599
H 2.549337192378257 1.308196595489551 -1.3202753060115562
O 0.9714250423459251 -1.3518604139193175 2.833036105620852
Rh -1.2223130522116061 -0.2157269150449095 -0.007882190039101952
I -0.07019438553973265 -0.06357045709936482 -2.6270337408632956
I 0.08616209275757794 0.19834281755253025 2.3191600066336626
O -0.7302897488304364 -3.111631834464196 0.5129927126091598
C -0.9614983005163508 -2.021272955167939 0.25595374421448486
O 1.6628291079504065 -1.1385874534896925 -0.27969437679419845
C 1.2109264383940617 -0.05413607122226384 -0.4994390562726074
