15
## STRUCTURE-ID: 645be6bf8cd19e70086ee1c4 ; CHARGE = -1; SPIN = 1
C -2.0453878583168237 0.6122005311417107 -0.8669596677886088
O -3.1388445974551145 0.6196565643330626 -1.1719710579221332
I 0.4471549341351735 -0.24476767359372376 -2.7916926036947367
C 0.43142586169296593 -2.264984107801865 0.024721865209022736
H 1.4429011690322158 -2.044998755332007 -0.31744161122391523
H -0.13079409480859785 -2.631599893137856 -0.8370884770137095
H 0.4525109486746147 -3.0297705101203154 0.8014785327771845
O 2.6339404991968465 1.763107349096608 1.6085431528623002
Rh -0.2203742471035054 0.7616071856429952 -0.45502207325261196
I -0.4238169004650912 3.5032495623210886 -1.3780233694038806
I 2.3756805201774696 0.9891984806733318 -0.06494060398653655
O -0.3739940945896651 2.3481986954080174 2.0908954721700597
C -0.3804611834306313 1.7179318045550236 1.1453400811881194
O -0.8267418878794658 -1.0390882210929138 1.6302572350998836
C -0.2431990688603818 -1.0599410120931887 0.581903124979579
