13
## STRUCTURE-ID: 645bb92aaad0e54cdd39f2a6 ; CHARGE = -1; SPIN = 1
I -0.7359037347204352 -2.992415301438438 -0.759181309867441
C -1.7839578180419344 0.7020807240266597 0.2703001110703308
H -2.548315466360655 0.2656672485371957 -0.3805477339957993
H -1.7488673107643766 1.7830767795755091 0.10020960969518403
H -2.071146513401266 0.524283736156417 1.3082721994755868
O 2.4656751977460876 0.18621225574047587 -0.6702591336426785
Rh 0.05835018458356157 -0.10519462568696307 -0.29519970544311513
I 1.9509420046542862 -3.181191571877838 -0.5901384173695873
I -0.2879904316165624 0.47984164716745925 -2.804593572164001
O 0.7975349432173551 -0.5565989911047565 2.5527740438027777
C 0.4334308992957301 -0.3932366764808121 1.469760885394757
O 1.7148658582633494 2.2129455578925614 0.07152197994144546
C 1.7553821871448574 1.074529217492528 -0.27291895689746026
