20
## STRUCTURE-ID: 645bc98059b812295a32ebaa ; CHARGE = -1; SPIN = 1
C -1.5543870060208351 -0.9906302779772002 1.5365691259561456
O -2.3626291048240025 -1.7879196816741048 1.6962522805957188
I -3.098679031931206 1.7217311055034685 0.5710249240077849
C -0.11678436303991337 1.7325933003159195 2.6735795726726415
H 0.8102297977302558 1.7185586581571348 3.2514724017490804
H -0.8230775916526959 1.0372791221017128 3.1189151628742016
H -0.5343546644653743 2.7396418216689025 2.692569413355988
O 1.463434309495288 -1.966508064453036 -1.1252840686843986
C -0.4116256311896799 -0.7268131831179204 -3.2337121164684617
H -0.32877956715935774 -1.791058980621193 -3.042358266493237
H 0.5728210286466074 -0.28025800956600133 -3.325017031165394
H -0.9771322652145183 -0.5545410879165388 -4.141194591252209
H 2.220438221785275 -2.2088014252959804 -1.6919549509332972
Rh 0.014250633942047156 -0.4571718966302507 0.5415422196088814
I 1.7463079386677758 -1.3788002269815258 2.287945738320326
I -1.439007252165622 0.21868301498764703 -1.5964620991980984
O 2.3422316299463617 0.09373664054278526 -1.195513219643429
C 1.504073566988917 -0.6584172359659755 -0.7397409867885121
O 0.734658687284005 2.120493595650783 0.4512676666669645
C 0.23801066317666583 1.418202811271397 1.2700988248193554
