13
## STRUCTURE-ID: 645bb5ae15df662a265a4843 ; CHARGE = 0; SPIN = 1
I -1.4299129230433558 -1.0743665486760743 2.2174165754726984
C -1.2564636727477416 0.28953052469980534 -0.694131550607578
H -0.8388303679148854 0.8673856422804055 -1.5221753789302375
H -2.0493985488168853 0.8423167164791543 -0.19351287874260556
H -1.6620211151159192 -0.6554640643282038 -1.0549834284147788
H -1.013000330175648 3.4245056539030636 0.3755959126275224
Rh 0.3924471119598503 -0.07728965310450336 0.6203226243063662
I 0.40277568841937467 2.8594592512087402 0.8283968746719718
I 2.7617554913136124 0.02384616846189077 1.8893331464066134
O 1.2041174618364874 -2.979456693567729 0.5059879189130596
C 1.0288126774575592 -1.882037162488872 0.0930584890288987
O 1.3382404622275996 -0.6393081472170101 -2.0838599813358676
C 1.1214780645999474 -0.9991216876506486 -0.9814483233960499
