19
## STRUCTURE-ID: 645bbac4733ee9238932ebb0 ; CHARGE = 0; SPIN = 1
H -3.9773238497171812 -0.23607560446740003 -1.0801697801440522
I -3.058193442402771 0.8272245203114116 -0.3224173683751163
C -1.8740164244055537 -1.9174008464864596 1.571914270774617
H -2.4422933634461717 -1.341211550081366 2.3013573168241583
H -2.558780102279148 -2.506078376691392 0.9637116052253136
H -1.2019555891540412 -2.59324395854759 2.1001750758788926
O 1.9071274534336382 2.675620207787425 -2.699568995214795
C 2.4299967568344063 1.357041045660327 -0.3668203002815241
H 2.932437111475289 2.2547187034533867 -0.6967770342857115
H 3.032373247534088 0.4837826717708062 -0.5872822573560326
H 2.177684659050258 1.4034811302604338 0.6862191731843303
H 1.4838177835380426 2.9056238839716735 -3.5255489257314188
Rh -0.7431822777833039 -0.5650398513308529 0.2433863604807167
I -1.0856701622216203 -2.167568214705508 -1.8602870287461457
I 0.6364787410057212 1.2403666486267426 -1.502451658078962
O -0.03383575665454718 1.1698519833167167 2.5802017313368015
C -0.33663464124339704 0.5153848345538831 1.6963128496526176
O 1.8555382292748872 -2.030480607907382 0.2387497587030051
C 0.8564316271613951 -1.4759966194947591 0.2592952061533866
