20
## STRUCTURE-ID: 645bdbd0e6d00905ca36ef5b ; CHARGE = -1; SPIN = 1
C -2.339214953925037 -2.375586720333113 0.8133835847948812
O -3.332642649017129 -2.945035304329764 0.8744355520862073
I -3.0226805140260824 0.8019931168257924 1.6907352504410755
C 2.3993603541628366 -1.6980039036056378 0.27226200936405054
H 2.212482474374988 -2.6630176512969825 -0.19856818435756654
H 2.6499040415089454 -1.87870695820572 1.3189880503062674
H 3.231112685548639 -1.191302521151952 -0.21851490979440819
O -1.96864751242903 2.995939763291991 -0.8006263752496201
C 0.5540981847929243 2.6245550403124045 -1.7525748809686648
H 0.45304273938272155 3.684111457391031 -1.5602046044228128
H 0.16537703567012796 2.3644994333746188 -2.7285945033202506
H 1.5711046551027945 2.2828378148232136 -1.6275944104195101
H -2.801434578987654 2.8652579607252497 -0.3348688283175049
Rh -0.6651901914390318 -1.5566291415302695 0.6000292942713127
I -0.8247035196147131 -1.9132336075184404 -1.9932552282874498
I -0.6227571843797913 1.618023307016225 -0.300628364439306
O 1.3515409873136146 0.34733433285039395 -0.13411566804191005
C 1.151524065030481 -0.8440761973872303 0.23004573817432641
O 0.07559855167068531 -1.1619244086828648 3.4706919743256965
C -0.23787467074036828 -1.3570358125688675 2.3789745038551486
