23
## STRUCTURE-ID: 645bcd8dc8a84f048b5c0130 ; CHARGE = -1; SPIN = 1
C -3.0923315485920853 -0.7342179004482401 -0.04403317101845112
O -3.7175520755582427 0.12246153295129762 0.4419879044829053
H 2.0676526901271464 -2.6805403399964405 -0.4355167237906821
I 1.9289964967423243 -1.1989383882577658 0.16582304545230106
O 0.5006710531500095 0.7589185434022536 1.875261021696609
C 4.2166129089448585 -1.4836726478140794 0.2505059953097896
H 4.545406223975829 -1.61296038537091 -0.7753088181697859
H 4.408936619158183 -2.3536306693354554 0.8707477292237221
H 4.625779689035335 -0.5806871333822232 0.6891958574549625
H 0.6062649985909899 1.5276017326699496 2.4689345869709842
O -0.36924582518227944 2.4434961991868054 -3.192156717223585
C -1.985872194639246 2.2047317594409193 -1.0861187958703433
H -2.8623999890918053 2.0844530983227196 -1.712846356838073
H -1.508919932845808 3.1501653281998605 -1.2977452201551276
H -2.255302907863921 2.1244995112153036 -0.03936307989126046
H 0.22627888678104188 2.1952137702949535 -3.8997838736823582
Rh -0.9981762850992719 -1.0810045093620286 0.3544286345203557
I -0.6717098270353496 -2.919310338600687 -1.5407535210984864
I -0.6291543835089707 0.6938516202241363 -1.5699627147036845
O -1.6639979009451236 1.2498222147601121 1.9911705193407605
C -0.7940649199716794 0.5001074722586846 1.5496835652202587
O -1.4064934703694028 -2.3770880705230226 3.0077727865601633
C -1.1713783058025111 -2.03327239983606 1.9280773462090284
