20
## STRUCTURE-ID: 645bd159a537bb3fdc108f0a ; CHARGE = -1; SPIN = 1
C -2.8945858334003014 1.2901802023082216 -1.1452513642963513
O -3.7734813324872136 2.0534199412809278 -1.2590651914031752
I -0.47185489456219615 0.442471197505959 1.8542391054081795
C 2.5469405755557055 -0.24692181988673345 1.7858702082306104
H 3.5930155779610606 0.04846293963400234 1.72775757086415
H 2.343991841769647 -1.006169617751157 1.027336796923732
H 2.3025747549670443 -0.6781752479027239 2.7549247457766897
O -0.7211354350823833 2.5703092187568184 -2.768238490343838
C -0.8135695499767905 -3.2961165234611074 0.3492935205989266
H 0.10884803882773228 -3.2150225545553606 -0.2171717626113357
H -1.1619819044322814 -4.320371308617515 0.4010539936761566
H -0.7154662984914214 -2.8528045030733398 1.3349207759740493
H -0.3914215925643228 3.4858996968130445 -2.854424548983229
Rh -1.32856107893714 0.3517929283101446 -1.0981343227974556
I 1.039416012635602 -0.5618716653977698 -1.8398618914460965
I -2.3365625807528376 -2.1441826976581764 -0.723213443833825
O -0.29326116325474194 2.968942305393977 -0.6188339028639737
C -0.6878005419468595 2.1617516125081067 -1.4608600336704929
O 1.9521405444272966 2.028802076301204 1.2195850281712237
C 1.7027548597444022 0.919603819491455 1.5300732066260567
