15
## STRUCTURE-ID: 645bd7482bdd9857722b1b73 ; CHARGE = 0; SPIN = 1
C -2.6909768796639146 0.5641407685909483 -0.5880046832705278
O -3.7844187513467187 0.5158499683846256 -0.8970686416328624
I -1.1704905667818837 -1.8048624470697905 -1.471331025620505
C 2.059071954020011 -0.9937137870382275 -0.30777498562258954
H 1.8697281231233227 -1.7845513189485582 0.42452461499880223
H 3.1198755757735195 -0.7339908799590729 -0.2656050844172752
H 1.809591548211924 -1.3651462854860166 -1.2981507829128922
H -1.4086184061556517 -2.37432589055011 2.0675354765705656
Rh -0.7989645263290613 0.5583314705837159 -0.31454134930941446
I -0.9739911008234515 -0.9235229320902495 2.530896526361769
I 0.9028080824410519 1.6094391382732371 -2.219186818003747
O 1.5136252343686099 0.9590522204136436 0.9932278213800767
C 1.3042951454499476 0.2006467644065041 0.09987440684939217
O -0.8974531037844011 3.3151520175091314 0.8309493209450088
C -0.8540823285032934 2.257501192980165 0.41465520368424647
