21
## STRUCTURE-ID: 645beb8411c79b029a5d492b ; CHARGE = 0; SPIN = 1
C -2.4694835034126728 0.333313463376526 -0.12359485537144956
O -3.577919180429962 0.31243772795660807 -0.39071545654338147
H -1.5437118785429376 2.185873237707523 3.4963465980105433
I -1.3740907517762857 0.6269000222336079 3.246805362319816
C 2.3540124376434775 1.3231339209516348 1.4537281639299697
H 3.1634592681509206 0.6833418590349539 1.8049924997247049
H 2.040211393247928 2.021527334548625 2.2305043061075116
H 2.689246391489158 1.93021039525177 0.6106723161910015
O -1.065422161286871 0.8123669492868284 -2.381690651394965
C -0.14951584271889035 -3.161558099333882 -1.3672568780721834
H 0.5443344637095392 -2.3313067967393164 -1.3057006094773622
H -0.7853845525877218 -3.073342435771083 -2.2392641676593383
H 0.3822676534487247 -4.103906713576396 -1.3665010695546174
H -0.7384414606236078 0.8487895133024421 -3.3053577990636955
Rh -0.6580504143975948 0.6223271917465613 0.4022855821135589
I -1.4051044062476563 -3.1148151731832776 0.37102725401587244
I -0.6242579703893791 3.2859136116303227 0.20743599077086367
O 1.0822755172083685 -0.6797238477249893 0.9088633515570594
C 1.2096755854084573 0.5180015541033237 1.0094100211808963
O 1.0403967420003792 0.36539562797223574 -1.76592596876529
C -0.11449732989334896 0.59512065722601 -1.4960639900195356
