17
## STRUCTURE-ID: 645bc297bffc464230099df8 ; CHARGE = -1; SPIN = 1
C -1.6457182793220688 2.630780957400507 0.14877275918157745
O -2.7466920204334335 2.89252573308108 0.41978374912483046
Rh 0.11910504929484536 2.253598222276356 -0.2199025900615149
I -0.26747488777601774 -0.2829632259703935 0.37426287978945155
I -0.447710227448747 1.8197712014843281 -2.938525194867362
O 1.648964478276631 4.538721650067059 0.9976771161074802
C 0.9562529418915314 3.701915902697229 0.5591445120113524
O 2.7883156718667887 2.3374216278126023 -1.4227558636352096
C 2.0712226140384176 1.9302798489694415 -0.5034085744194542
H -0.7039742208738864 -5.148399410107981 1.8398595005624265
I -0.4377597081259132 -3.544685796606199 1.4519564739823025
O 2.722415428165841 1.2328404343567694 0.4942926154596305
C -1.7916347057759434 -3.854717215895338 -0.19605710474315327
H -2.7577898484434225 -4.107150309979449 0.22762873116679294
H -1.3692561826021883 -4.6367181548486425 -0.8185420664172128
H -1.8118014596537233 -2.898763428939758 -0.7049590177361642
H 3.6735353569212634 1.13554196420243 0.29077207449423104
