21
## STRUCTURE-ID: 645beb1001f674451452ff61 ; CHARGE = 0; SPIN = 1
C -2.2321284438280737 -0.555562426503406 -0.08234737046275965
O -2.9006566979141906 -1.4893124101285067 -0.27797709941410803
H -1.1482823872110732 3.5621550847273578 2.2224962609680703
I -2.106785148477137 2.2964613300000307 2.0985185675515154
C 2.7283331255858907 1.158747875138986 2.4568753307109437
H 3.4483456681424123 0.3324260905882366 2.5376439972469806
H 2.721711065574043 1.7187852692701282 3.4027925349430155
H 3.0527995083951938 1.8328412993506882 1.6470208942520113
O -1.93562684387334 1.1861816172686863 -2.6484294613455077
C -0.10776022559847664 -3.2360561313441476 -1.4037736921775081
H -0.31429053177143784 -2.7323518748501496 -2.3389133601194647
H -1.016587122488095 -3.351085801333244 -0.826119441304094
H 0.3792869595680921 -4.188424680913804 -1.563850455170533
H -1.945876865074923 1.021134895631064 -3.6103057875772735
Rh -1.0812995259756484 0.8648034147075686 -0.09731339415767352
I 1.2067570439586834 -1.9957144626477945 -0.3121070308522873
I 0.7545417429363892 2.6363429704154333 -0.6226466267230727
O 0.44387180311249474 0.30431176756103173 1.900057598637014
C 1.482308201050644 0.6650652330782106 2.1760726815036415
O -0.39896749522665337 -0.4276087024417894 -2.654019090247761
C -1.029693830884794 0.3968596424254218 -2.003675056261172
