13
## STRUCTURE-ID: 645bba04ea61fb33c06006a3 ; CHARGE = -1; SPIN = 1
I -1.1885557250486554 2.1305266437140635 -1.1253154908757999
C -1.1489899908610817 -0.9362338756549836 0.5869355092427403
H -1.3657433615232473 -0.6475735109015784 1.6237985568259836
H -0.8487599341762001 -1.9818220572585996 0.5393995048973705
H -2.0164801211159324 -0.7691188929168442 -0.05097997141314762
O 0.8918010059023359 2.0265119679454804 1.4105076034358746
Rh 0.4049049266429679 0.3890798175203181 0.08823187297007136
I 2.081438157756455 -1.0763632096981495 1.4687452552322782
I -0.3988702321465687 2.2380623549878593 2.8350398896084053
O 2.5067076390068634 0.447464430269109 -1.8297679281583143
C 1.3804481530206896 0.11035329751297579 -1.6655130602725123
O -0.5129383921038304 -1.3039434366981224 -2.2790411127747348
C 0.21503787464617466 -0.6269435288215348 -1.602040628718178
