13
## STRUCTURE-ID: 645bba202df0b26cde732d40 ; CHARGE = -1; SPIN = 1
I -2.0378588879616566 -1.4949179860924717 1.0636138526158196
C -0.5891134413336561 1.4918826433738912 0.5472653255651819
H 0.024721722310364798 2.367597566203515 0.34633973083442104
H -1.5753033879620344 1.637008263539453 0.10828484824033409
H -0.7066429496142064 1.401597627806205 1.6416176105426292
O 1.119251720534301 -2.2587074696713665 0.9502536566516869
H 0.5162135062967739 -3.0095422729569594 0.971129874031392
Rh 0.30727520586907164 -0.5024432480198343 0.41001956856241445
I 2.73696178299212 0.4773172162693374 0.7475836513287938
O -0.3986207678962334 -1.6142251519185256 -2.216545248889133
C -0.11876670513763458 -0.7239162081643176 -1.477685602518323
O 0.5354105772994824 1.5904064913422493 -1.8710097279272093
C 0.1864716246033057 0.6379425282888311 -1.2208675390380048
