18
## STRUCTURE-ID: 645bb7c0a099ca4c65108f04 ; CHARGE = -1; SPIN = 1
I -2.779178377558871 3.1310913089997654 0.10035393162787236
C -1.6508724528618286 -0.009836166296205942 1.356524502685424
H -2.6357477700752154 0.04342132428343455 0.8788957875701346
H -1.6057002187959888 0.7351434478035888 2.1608437064638633
H -1.5407591995860896 -1.002075751798274 1.8018542910100224
O -0.40857189541855843 -1.4272927807577984 -0.7992006156143415
C 2.7754565437112015 -1.9783021425016314 -0.02751930668196991
H 3.4847588592784184 -1.3263343688564886 -0.525122425692751
H 1.9543733114033965 -2.2357554571169 -0.6883726617293029
H 3.2500446915059165 -2.85535206391316 0.3944060126809084
H -1.286283563068915 -1.793997483827 -0.6722200982379907
Rh -0.11034471152013688 0.3925896086404725 0.02854475656049307
I 1.614778666387446 1.2863116157643226 -1.9291031033314585
I 1.8963429829749876 -0.8580934251670986 1.6031320655421244
O 0.08764471105262676 2.495474311012207 0.5596638775953094
C -0.7974506851409698 2.35453971540555 -0.3031723802002153
O -1.4733763423394368 1.4803272245699317 -2.4633012396766274
C -0.7751145499479841 1.5681410837552512 -1.4762071005715058
