21
## STRUCTURE-ID: 645beab7d21069524c53cd2b ; CHARGE = 0; SPIN = 1
C -1.8190643451103 -1.1797011855534065 1.5046255210396067
O -2.8546578690935713 -1.2587787945180906 1.9767105613617406
H -0.4499047841378609 2.5168899484558143 2.662069972416088
I -1.5262421680745961 2.327734140854723 1.5274127860088753
C 0.5562633542935677 -2.3910189508214295 2.0241609112004033
H 1.4831330663291191 -2.7811612477807515 1.5942880697350164
H 0.7739932476378504 -1.8242347309788078 2.9301075828521457
H -0.10791817790820633 -3.222628942376782 2.2543803703743737
O -2.0207356226455624 1.7504011928330048 -2.0767449869999726
C 0.6328866912343936 2.324134173032104 -1.5618491729259245
H 1.2484335916803446 2.435380887247497 -2.447787776063363
H 1.23472427868696 2.2718551622516867 -0.6598277832151539
H -0.12813130845049475 3.0946243513074854 -1.4969364981084285
H -2.7693116484960187 1.3170275927199195 -2.4985993405319364
Rh -0.21869543650824189 -1.1234109523082485 0.5665727498385064
I -0.9301167673970097 -3.019709211974402 -1.1875790389367682
I -0.42562530362884693 0.5026768876905893 -1.750830786233112
O 1.4179057048316996 0.16929148100443628 0.7976949513927919
C 1.5773831797772002 -0.5522785516570461 -0.20343114687622718
O 2.479482162542489 -0.8798857446701756 -2.4416213579986272
C 1.8461981544370814 -0.4772075047581091 -1.5128155883300352
