15
## STRUCTURE-ID: 645be8e29f2638065c6006ab ; CHARGE = -1; SPIN = 1
C -2.0020251162611737 -0.6458603840025282 0.55421376451053
O -2.991782112066423 -0.5042220285003824 1.114305862527063
I -1.6346811126001566 -0.912549586564641 -2.618659926928635
C 0.03137166329733747 1.9777147823038062 -1.4939513210663062
H -1.002300449002949 2.150341384968511 -1.796500147468712
H 0.5477233170129392 1.534920131154085 -2.345141793790879
H 0.5012837496925197 2.919732811358843 -1.2120507039922472
O 2.7498878854037687 -1.2256203870681373 3.254376457145698
Rh -0.39067702956247224 -0.8977282295379304 -0.27664590019534835
I 2.0578288612812905 -1.2742654214895754 -1.1857634753698036
I -0.7712017196438374 -3.519070041719784 0.5899394578020245
O 0.7359819429257043 -0.9406745653172933 2.208242812763363
C 1.747779344853714 -1.084315264341624 2.7291249395955424
O 0.3700605436027893 1.3589822892371866 0.7999112760884977
C 0.05075023106694759 1.0626145095194663 -0.321401301620789
