12
## STRUCTURE-ID: 645bb430c0abfc4648315fb3 ; CHARGE = -1; SPIN = 1
Rh -0.3757310588992388 0.7362006894097556 0.23610210406075285
I -0.15517984679708224 2.3226461778769254 -1.8247663108885683
I -2.662421106645289 -0.2841002013217455 1.612317346299677
O -0.4205974352536159 -2.2588737787094084 0.8085056311362063
C -1.1141817516330033 -1.4521246393965626 0.26237744836654797
O -1.6822376002237427 -0.7918442067412537 -1.9959926595652417
C -1.180112645126472 -0.6536803992724574 -0.913177277356672
I 0.2991371911066698 2.499399942343675 2.069458965345273
C 1.5760224399816891 0.0670476318357999 -0.04760691952472781
H 2.2837503568770328 0.8966374136323851 -0.059228651171787064
H 1.6709063558333859 -0.5062700741570567 -0.9716490913145418
H 1.7606451007796655 -0.5750385555000661 0.8236594146130852
