20
## STRUCTURE-ID: 645be09252b4c5506974b44d ; CHARGE = -1; SPIN = 1
C -2.3080401443548904 -1.9293078637732939 0.29825294092698124
O -2.80239688115487 -2.9007646944288115 0.6703201852408955
I -2.216916036253656 2.255987033559579 -0.42881739979614214
C -1.6324636065676323 0.24584653836905576 2.686079442283438
H -2.6686221216765365 0.5205029197775258 2.493800797509736
H -1.1685337609059705 0.9670555592510627 3.358511472454637
H -1.612430658205059 -0.7387804664837047 3.156344231635224
O 2.532326877124521 2.260878358367819 -2.3013004832789377
C 2.872023269162793 -0.10915931321828903 -0.9547203533110104
H 3.6796464844369177 0.5212120687474666 -1.2976723344667105
H 2.920604620766569 -1.1075547002508723 -1.3716704693515802
H 2.806913070150482 -0.13772803046810533 0.1264194584598563
H 2.1309497279589897 3.0229106599715774 -2.723970801011571
Rh -1.6579854762625725 -0.3351341603078233 -0.3404538216549882
I -2.2646425001781116 -0.766486872680189 -2.9801676481576522
I 1.0828731225241508 0.7928116415534803 -1.6544515880565887
O 0.3664656565275716 0.3980067003858224 1.3945167496768491
C -0.8264371648821017 0.15717171405296418 1.4172490463480854
O 0.6647426872786645 -2.0727262412250886 -0.6967265085566581
C 0.1019228345107195 -1.0447408512001344 -0.8515429168938631
