13
## STRUCTURE-ID: 645bb77f1583f304a5507c63 ; CHARGE = -1; SPIN = 1
C -1.659065180863555 -0.3470995725450383 0.5694134475949768
H -2.3010565571798622 -0.7308356847306482 -0.22338081061792395
H -2.0080004777047544 0.6538183500776431 0.8476168859964399
H -1.7538883131622385 -1.0092910440084308 1.4403228645191688
O -0.2670306984376002 -1.3981403792882559 -1.55161193060416
H 0.48669386516626584 -1.5736956312984836 -2.1239799723363855
Rh 0.303677746287941 -0.3088674249736777 -0.010394458946104785
I 1.1028794045672796 0.8454901956580484 2.107468893135598
I 1.107368235917701 -1.0883156284689783 4.106024979102588
O 0.0843591314716494 2.546357335950868 -1.7499692762457855
C 0.8630874761709051 1.7623023966753635 -1.242051212490593
O 2.452937405838091 -0.028058493005502526 -0.809554851961289
C 1.5880379619281813 0.6763355799571087 -1.3599045571465245
