13
## STRUCTURE-ID: 645bb4b44c6c8b192b507c63 ; CHARGE = 0; SPIN = 1
I -0.3538982385737507 1.5207326291046732 2.5202547432332785
C -1.6971482111567937 -0.43518355529067676 0.13525126672034946
H -2.3717068393847667 0.3585145969841005 0.4459854286830504
H -1.7931707871472107 -1.3095022748406386 0.7973145953393358
H -1.8987512309062298 -0.6955079179248085 -0.9017516889999818
H 2.0033964279190544 -2.886862274364032 -0.9435579159012769
Rh 0.3543248027091771 -0.05973502255669665 0.5120338858649732
I 0.9738665129332386 -1.8546955232321476 -1.575409167933301
I 2.1976588580184657 -1.2257980783382902 2.039786298453454
O 2.333857697108897 1.9188504460263094 -0.28771804521472033
C 1.2457066426634056 1.4943960281368731 -0.39597830940405154
O -0.8962604359601364 1.827053310257968 -1.5445265433158264
C -0.09787519822335608 1.3477376360373596 -0.8016845475252866
