14
## STRUCTURE-ID: 645bbba9cd4c2c6be0108f0d ; CHARGE = -1; SPIN = 1
C -2.640149276761698 -1.3527667406111135 0.012494256863009583
O -3.781322244546965 -1.2949715128763217 0.10685550097206348
Rh -0.7738051647588322 -0.9873717408178615 0.00607521663512021
I -0.8419259541585 -1.0569066620483827 2.635308463390448
I -1.8412151164295985 4.523119339453829 -0.0816585376397401
O 1.6879390485742711 -1.8637185777181042 0.0795259001799526
C 1.2005940089487555 -0.7385732111401163 0.15670031750902721
O -0.2172751746962626 -0.777256298653489 -2.9310184754136395
C -0.45431223653048164 -0.878187820670466 -1.810634600388974
I -1.250525090282448 1.6586318209277888 0.01757610588995687
C 2.073533478551538 0.4662449659698229 0.40674156883070095
H 3.113028700762672 0.15461423103971686 0.5066107256622384
H 1.9723668555503435 1.1700296748556762 -0.4202039586872668
H 1.7530681657771074 0.9771125322891108 1.315627516197109
