20
## STRUCTURE-ID: 645bcbc2dd468405fd6df3ae ; CHARGE = -1; SPIN = 1
C -2.1064091151518354 -1.4778316585127775 -0.22421147290167381
O -3.1190464676392673 -1.9141068499807152 -0.551398058636653
I 0.08538888556052075 -1.1888532759514767 -2.660363660521659
C 2.909975401680142 -0.35573876928554815 0.15617822897390524
H 3.200120542900112 -1.1188360183750568 -0.5664874878428496
H 3.4327443640897495 0.5823281189195261 -0.030429205743785548
H 3.1590891497278433 -0.7402767892399506 1.146626450653304
O -1.7178967330290116 -1.1448572853796892 2.5342486783630807
C -1.406875277505422 2.4124678157297534 -1.8537818102251034
H -1.4594566667023279 1.6964349799891936 -1.0380681511674514
H -0.9482979305910219 1.960537353218291 -2.724340646643035
H -2.392147106339378 2.793528805077711 -2.0873596331980493
H -1.7528531819758697 -0.992464379980658 3.5021657588892943
Rh -0.3063889237641928 -1.006931476615215 0.0579681643129694
I -0.18496829480115165 4.0428074247050105 -1.2238989956944875
I 0.6365122607632485 -3.4228824129424806 0.7653466735308857
O 0.820115558524476 0.8828036599298765 0.043398086770705134
C 1.453571005401847 -0.14907269932796216 0.10902926068223334
O 0.27412132100464137 -0.1446346811540999 2.6488617605646327
C -0.5772987921532933 -0.7144218608237717 1.9965160598336738
