20
## STRUCTURE-ID: 645bbe6dc07fac0d6d099de7 ; CHARGE = -1; SPIN = 1
C -3.011360989908725 1.9537284382964104 -0.45830676305470175
O -3.857766554143255 2.7158171611973465 -0.58722630131946
I 0.7264501014407446 2.392531338009923 -0.7240740708050467
C 2.1015300834796466 2.2724899917697168 2.0774104782692544
H 2.6213350924997463 3.1545392819048446 1.7032498292166793
H 1.1466646419327884 2.6151927519438356 2.4853540916435057
H 2.6703872652873937 1.7682081372957925 2.857303762894586
O 0.6643600158456648 -3.7689588110066685 0.45396936998830134
C 0.004611987923437099 -2.35054263225168 -1.7684938817280742
H 0.7916081413772464 -3.083108970565704 -1.6769467767948159
H 0.30810683528534155 -1.527363880255667 -2.408318053084523
H -0.8953393214742853 -2.8195424104824682 -2.152320531969047
H 0.7718822382195774 -3.972039397482607 1.3829285498465802
Rh -1.7571686359115575 0.5775990637442746 -0.32959862161168907
I -1.4540160125604533 0.7490681309787923 2.264511026150501
I -0.3854692598220657 -1.6184086519415841 0.16776233964832218
O -2.3144924776814593 -0.5476826920760465 -3.046060576866606
C -2.087574456767774 -0.07159660554255545 -2.016155825271327
O 2.098331812069647 0.21579282382667678 0.7797818146415705
C 1.8579194929083247 1.3442769326373487 0.9952301402060161
