14
## STRUCTURE-ID: 645bbbb79fc524479f5c0138 ; CHARGE = -1; SPIN = 1
C -2.482615868228484 -0.7433956565071518 0.0025709181485184
O -3.115634908742807 -1.4184939408786748 0.6892652536499063
Rh -1.472863905577101 0.31494815349074246 -1.0995896823783373
I 0.9626906251262475 -2.0029013583211817 2.2612622688274455
I -1.4770139237772764 2.121451288874361 0.8027404091807959
O 0.7506220710935962 -0.5978876144249426 -0.28751615909957695
C 1.2822001497833913 -0.44066223333767435 0.7708814758693617
O -1.6698509465186286 -1.671203246009263 -3.3185182723484656
C -1.5968269647305666 -0.9118379727029938 -2.4561085795683755
I -0.20681435209402085 1.8380233672242647 -2.8209796750695175
C 2.110468264441795 0.6661685641685393 1.2632135999609668
H 3.031183005979076 0.2893826897593926 1.704462387520845
H 2.3215142966509665 1.3551705943986512 0.4451662924487463
H 1.5629424565938232 1.2012373642659298 2.0431497628576762
