20
## STRUCTURE-ID: 645bc9f67cf83c793f3adfca ; CHARGE = -1; SPIN = 3
C -1.9787628800221786 -1.6884425971110102 -0.16093592664395556
O -2.995690034128065 -2.322226683751367 -0.29060838873940426
I -2.5060605771100195 1.7750052967972056 0.8609134399956624
C 0.20716843900124535 1.118918822822916 -3.3110547305111737
H 1.0982461479026453 1.069212837801192 -3.930901093163363
H -0.6861211902992777 0.8681293236138925 -3.8738217901905827
H 0.11746083615873604 2.1349112965612305 -2.927640026322938
O 0.266265124323424 -2.3439701807709077 -0.8339636572343719
C 1.5515587261961874 1.048201349741295 3.6919911169931994
H 0.9959595483824588 0.2643147063248496 4.1951379610514605
H 1.0823742759741029 2.0124260115835146 3.846012758418571
H 2.589029172437692 1.057292703542743 4.000153495196237
H 1.1344626415125971 -1.9029805600411644 -0.9347021028133251
Rh -1.0591379444267282 -0.46062726447672375 1.0360099507618235
I 1.5007036553875377 0.6217279853595785 1.5621635449734175
I -1.5481183725942702 -1.6099348427293574 3.385010513917078
O 1.3716099778652784 0.032515188313261695 -1.4953293527402844
C 0.35917643178128583 0.19361502606469347 -2.152916909269858
O -0.7734658180715126 -0.482838939626211 -1.876148850972112
C -0.7266581602710895 -1.3852494800196289 -0.789369952706057
