12
## STRUCTURE-ID: 645bbaf9e393be7fe132ebb0 ; CHARGE = 0; SPIN = 1
C -1.435387822787371 0.07382402230442568 0.45848813083385287
H -1.5327918776069813 -0.49348858698439835 1.38513168846162
H -2.1408862327052307 -0.27669410419443957 -0.2988851557456069
H -1.545343532396175 1.144463351416859 0.6339771890406939
O 0.8076381643160314 1.6969953477372492 -0.26313719573240985
Rh 0.4834797173284591 -0.2622894079440312 -0.35559311541358696
I -0.16388624281649591 -0.2946104715535285 -2.8549370305060773
I 1.4214123802160132 2.8786281162330303 -1.6944140178118274
O 1.728087638522782 0.2682775921681859 2.308032164989638
C 1.2065403727006836 -0.0662525824919327 1.3624866433353426
O 0.03925558897442276 -2.43180093034026 -0.1945153389112655
C 1.1318818462538764 -2.237052346351202 -0.48663396254032254
