20
## STRUCTURE-ID: 645bda71b744a1280f5a4834 ; CHARGE = -1; SPIN = 1
C -2.0513148976055273 -0.19682585585182108 0.7683611494987581
O -3.203458563786733 0.009957266707241015 1.1249525510040923
I -0.45300507346479235 -0.44989678179345327 3.6164663620234365
C 0.36429427762365024 -2.24230049282253 0.04339073509785551
H -0.05430788590158963 -3.2340196815592575 0.21568702856826055
H 0.5504475858312903 -1.7820952393048841 1.016003394437701
H 1.2954280300803958 -2.325195056074747 -0.5091125090011283
O 0.2866745160557308 -2.2600464640301903 -2.722520349662083
C 1.915614260457568 3.8723822714016016 0.956576252695609
H 1.9681329453413312 4.95398927446542 0.9323793685100635
H 1.6855841482092364 3.4533982172136533 -0.019252372603083073
H 2.8239870358718155 3.439254783518838 1.3581084264456997
H 0.18751935826474872 -2.4082294261437185 -3.683201066858538
Rh -0.7888542540772561 1.0649606089082555 1.4161986449988915
I 0.3044233115016544 0.7201561877389505 -0.9668474840079974
I 0.2870193318831418 3.324982266972674 2.303559529598577
O -1.8279711698398406 -1.5400048905790444 -2.79922018639545
C -0.8071284406119028 -1.7523532058799494 -2.1800363082755405
O -1.8502163500124589 -1.2279141302614223 -0.1399572043109649
C -0.6328681658205765 -1.4201996526257106 -0.7315359617641104
