12
## STRUCTURE-ID: 645bbaf8e393be7fe132ebaa ; CHARGE = 0; SPIN = 1
C -1.3383880381810294 0.23375011520962904 0.3686773752333574
H -1.5594449451639578 -0.268243816898657 1.3119374336474199
H -2.052576750454458 -0.05260461852944323 -0.4083863985535233
H -1.321086924975219 1.3178124042823807 0.4971037022734156
O 1.2772795841177984 1.4556538820999014 -0.4059332111761284
Rh 0.5528255676381872 -0.3787242372956026 -0.339888027394031
I 0.03862526709881583 -0.40595862750424117 -2.8682997567804884
I 0.5994068417094578 3.0049145475371697 -1.3853533385652506
O 1.765872615185867 0.14736617405753968 2.339528633674799
C 1.2350585801751623 -0.1827509630039243 1.3974160675373422
O -0.14065186646869823 -2.4453322997157225 -0.06407946594103069
C 0.9430800693184824 -2.42588256024013 -0.4427230139554851
