21
## STRUCTURE-ID: 645beb263e98536cda315fbe ; CHARGE = 0; SPIN = 1
C -1.7929277093217353 -0.42993056597028867 -1.3026421358578464
O -1.840787381635143 -1.2185638284236462 -2.141729828674738
H -4.023195322532934 1.3734794539573336 2.425804064845857
I -4.133483335809143 0.5934760137752731 1.051465817968197
C 3.1825712059308016 0.5018803302354873 -0.1124481023607977
H 3.6640197317417615 1.0922683537405606 -0.887463073400926
H 3.6482793822806383 -0.4731086757972168 -0.0073896858583897855
H 3.2793316614596817 1.0446794144332923 0.8293051169607965
O -0.4361063596413895 2.6857502850941546 -1.7518431168670676
C -0.6643571609747883 -3.130498809061615 0.8137031484247441
H -0.04433704087859204 -2.817935689413537 -0.016655638437968058
H -1.6743523076865874 -3.349986103270874 0.4898803902008833
H -0.23024377178218627 -3.972197144224139 1.3373682169981167
H 0.3360356402442564 3.1952278242375316 -2.0873491267313082
Rh -1.5386990193803871 0.8092027293475038 0.019878122006350762
I -0.7510768543075036 -1.4848242146786033 2.182820236684085
I -0.8500825873300902 2.6878039045513504 1.7417524081056797
O 1.0574513312931868 -0.6303505377411224 -0.24249960065878304
C 1.7397036759002904 0.3443278601807649 -0.4034859877744346
O 1.2055031026545318 1.5012985827115202 -0.9355905328314341
C -0.1332468802246295 1.6780008163162603 -1.002880692740989
