20
## STRUCTURE-ID: 645be1003dcaf11b515d492b ; CHARGE = -1; SPIN = 1
C -2.667139244872246 -1.3983710296918717 -1.2574235255001553
O -3.5685528779354416 -1.9771940709674654 -1.6485419327495248
I -3.386140597775807 1.0654267167099103 0.6376023888052028
C -0.5876111375174906 0.022713656993207182 2.7482271797064404
H -0.8840391346779016 0.8475482081398416 3.395443026350009
H 0.37862273705201605 -0.35164130065646493 3.088893223193057
H -1.3291949913276957 -0.7768368827986691 2.8067089675244747
O 2.2765427449181357 1.5102397554145672 -2.7578119560311993
C 2.3510030903418393 0.23672662117869597 -0.3756120738962437
H 3.19531560530239 0.04201086291922175 -1.0218860563981484
H 2.151419328182509 -0.6019579402915373 0.2771245552828636
H 2.506559991085828 1.140649592117985 0.1973943247060978
H 1.9351647318325085 1.9073517403831066 -3.5635839998155094
Rh -1.3861864691297916 -0.4675284995892394 -0.10179790375367563
I -1.9861147172288018 0.6304592709656439 -3.41581772184251
I 0.7119243195996197 0.562793194954832 -1.6692975864714579
O 0.25928047629514617 1.5583826615132406 1.147997982740249
C -0.40320043584750986 0.5502240890874087 1.3295177890750707
O 0.5933624831010871 -2.682350155084811 0.15192600745094684
C -0.16101590139840286 -1.818646491297598 0.030937311624015033
