18
## STRUCTURE-ID: 645bb7d84b693366b13adfca ; CHARGE = -1; SPIN = 1
I -5.232824755577938 0.9132550639667663 0.687062958174452
C -1.787387855301446 0.334824841426845 -2.3487427197065127
H -1.211416754498334 0.24995789762024348 -3.272927471266941
H -2.623812948192266 -0.3784846329253444 -2.3777492398794964
H -2.190925683266943 1.351423716600664 -2.2673233989055697
O 1.8851769232477262 -1.613606436770908 1.4562495760429905
C 1.700756064800378 0.83716924531876 2.36464807446538
H 2.23142353717862 0.14135067508970187 2.9977321935501804
H 1.483312522664189 1.7727802489569977 2.86527163787398
H 2.259977488437863 0.9853800545113661 1.4485407130045045
H 1.8214363040235013 -2.465119889035516 1.0243418262339026
Rh -0.7194608188807959 -0.12571241232245756 -0.649828991955922
I -2.539681047620903 0.5091427308994264 1.1889996242927376
I 0.0010358359613424786 -0.19414416557956055 1.7996267484356647
O 1.9687613611758068 1.029075734720123 -0.8748384669556579
C 1.1722989943800963 0.11127654072210483 -1.0576105302767986
O 0.9910836763852882 -2.317412607041494 -1.618338065940255
C 0.790247155083809 -1.1411566061577219 -1.3651144671866335
