15
## STRUCTURE-ID: 645bd63894a429560a2b1b6d ; CHARGE = 0; SPIN = 1
C -3.3777168334701777 0.5855582284675123 0.4589496519498202
O -4.323313135651818 0.6380828181179452 1.1011900244329018
I -3.3368945393825546 -1.3940899891057388 -1.849157025602715
C 2.9199510847345436 -0.8647510166297975 1.0363146103827925
H 3.7479822415678297 -0.1768556697527151 0.8674751769042951
H 3.0600438911987458 -1.7806396202582853 0.45921387705792877
H 2.8720437056544736 -1.1678461716389013 2.082724503607695
H -0.6369733466700113 -0.5079120709542373 -3.7216573680052925
Rh -1.8955745866080653 0.44867293899170635 -0.6253903408234425
I -0.06664944535914404 0.4912986484692563 -2.6242693749124064
I -0.11376203633687233 -1.5984645336097534 0.9714139862376254
O 1.4093795761712709 0.818345087148333 0.17545560659255932
C 1.6723653897022386 -0.23288253790966873 0.6405997193480436
O -0.779253394816415 2.828732860473767 0.801848401191191
C -1.1516285707340352 1.9127510281905655 0.22528855163905442
