18
## STRUCTURE-ID: 645bb7142ea2e8657a099df3 ; CHARGE = -1; SPIN = 1
I -1.3200863222473738 -1.5770210161890021 -2.244817892256251
C -1.7989015502973706 1.0277086849349972 -0.08394122924772418
H -2.5805400290946263 1.3088798959468937 -0.7973627774542322
H -1.7079763114990258 1.8496626204981694 0.6372311776245663
H -2.157443023505319 0.1425444146443632 0.4615745891848275
O 0.9207395409197631 -3.5153445077722356 1.8403065354382804
C 0.7800863634513965 -0.8849323939523871 1.5418034134142087
H 0.3046444283768745 -1.0835464288131786 2.4944664549617963
H 0.4937420537613632 0.09383995411914875 1.1348738307580633
H 1.8584206282186047 -0.9899414803064192 1.592831975315611
H 0.9699645071354016 -4.457438386894702 1.6428136020253
Rh 0.004118416174736095 0.5563980989272885 -1.0678640819335694
I 2.4409995364190826 -0.33953114657526084 -1.7414216724775833
I 0.14176437559694988 -2.459861082782858 0.2783150053648071
O 1.1297664335541546 3.0836182431032344 0.12075665676142747
C 0.6240802181237247 2.3445417249001204 -0.7162736697195813
O -0.20633510963379417 2.626466798955682 -3.1037159099883835
C 0.10295584454554789 2.2739560072560776 -1.9895760077716158
