15
## STRUCTURE-ID: 645bc6a86f0eed44ad36ef44 ; CHARGE = -1; SPIN = 1
C -2.7698649935492785 -0.2187839992047764 0.4301331012943136
O -3.374002180990948 -0.8941535762978854 1.1446143826651174
I 1.951724375394253 0.20067763848018613 -0.5981557909416783
C 2.646142570795411 -0.21289114264339803 -2.459518867197855
H 2.795821457377013 -1.242261629926567 -2.7255120341099355
H 2.5030174212240226 0.5286198153401381 -3.2232031064794424
O 0.792488740604559 1.177901209210131 1.9523664142537078
H 0.9249621753449654 1.6344043106418127 2.8097416458330744
Rh -0.8296956896799185 0.008358539611316093 -0.06336625680469501
I -1.2051890450517324 -1.232639212179638 -2.4879116776087487
I -1.0483338509825613 2.513158217197079 -1.0003457577480777
O -1.347373049270339 1.0715087042007736 2.5492239715342895
C -0.48659664601845465 0.8620491496314685 1.7155498629849764
O -0.15363248951307226 -2.595882085812297 1.237082496834048
C -0.3994687956839461 -1.6000659382484084 0.7193016154908938
