14
## STRUCTURE-ID: 645bbb50ada44c3d317e8a8a ; CHARGE = -1; SPIN = 1
C -3.2392185229750865 -0.7056302337624776 -0.2886516515455296
O -4.112411168262784 -1.442031638512157 -0.1273998629253067
Rh -1.8872421894684646 0.49153061042392215 -0.5930755619800548
I -0.15523457318406172 -0.19630650771049427 1.952415778959118
I -3.4132003393879153 2.255589327486181 0.6878894500232774
O 1.2573030895798893 -1.1250162839058317 -0.47745162757815174
C 1.544418065651525 -0.511963150357898 0.48772107789033353
O -0.7841328241744313 -1.3380569199038008 -2.6734491188435974
C -1.1422976388771149 -0.6522208007175937 -1.8188384440711975
I -0.07192884162789544 2.282840147476463 -1.3088125618078135
C 2.7784865475395057 0.10669946952804377 0.9488742745453079
H 3.016954063151927 -0.23566169723514774 1.9554308339181086
H 3.5805753706120145 -0.11669157307286296 0.24675392608754268
H 2.6279289614229024 1.1869192502636534 1.0085934873279507
