15
## STRUCTURE-ID: 645be3b385bd984682014f00 ; CHARGE = -1; SPIN = 1
C -2.8606640118906355 0.42696563393708575 -0.13919798588794322
O -3.9461025616962737 0.18391766873331958 -0.41446671458868994
I 0.39228331674906486 0.7759023926727716 -2.215737494117947
C 2.2473566525822872 -0.8213455194600193 -0.08108155614432734
H 1.5981017827609583 -1.6473343267693954 -0.3697984368660373
H 2.7076532923200127 -1.0346490984650507 0.8860388434015688
H 3.028086874000539 -0.7084321994248758 -0.8383341136043758
O -2.4882026958293255 -2.2341677543068585 -1.8464919070765509
Rh -0.9911505313223812 0.4102196015412566 0.2681926762978054
I -0.025698473474703616 -0.6262097234664745 2.600927292441792
I -1.4050020980888451 -2.1228060396810187 -0.33614545844929583
O 1.8652035577125794 1.5179007662684372 0.4622785292160751
C 1.5611157364455825 0.4696110018826862 0.014361116318412309
O -0.8155705066193705 3.2476431009928275 1.18344890478412
C -0.8674103336495075 2.1627844955452837 0.8260063042754667
