21
## STRUCTURE-ID: 645bec47c22a3f0a722fb1f4 ; CHARGE = 0; SPIN = 1
C -2.9366768346437215 0.28224036921317747 0.2156879318578516
O -4.045215771034008 0.15984737365801918 0.4405927342272261
H -1.749287297145679 3.5633514650126026 -1.8125973519612584
I -0.7755275617065434 3.2263778080050876 -0.607419231066003
C -1.0434481742169412 0.5660389471904972 2.706131937897181
H -1.7187420027780482 1.422133143962847 2.687309917132233
H -1.6465120983116937 -0.329343319752617 2.8550388339972845
H -0.33328436585733034 0.677565155266738 3.5257828167467653
O 3.185713247217331 -0.2731395166793237 -2.582424974890558
C 2.423555979058582 -1.5212018294336187 -0.30665869615449937
H 3.3165903123118676 -1.8342794949795216 -0.827900397716931
H 1.863183150546707 -2.3676275778884524 0.07183189412617969
H 2.6633138478102363 -0.821541185917594 0.48239902654796557
H 3.193117043925455 0.21983984904252052 -3.404351753502939
Rh -1.1730406088613141 0.36430669850148045 -0.3974687890611717
I -1.7944426259589388 0.2588601385585302 -3.069728734450068
I 1.240416919997579 -0.5388134914394231 -1.7509332090737355
O 0.8939145968590266 0.5210848282794853 1.3015112986737718
C -0.3054692090417643 0.47142713501332956 1.4135974782932885
O -0.7096664330494314 -2.5911813802690067 -0.35281369059661444
C -0.5484921151213324 -1.4559451153447964 -0.587587041026004
