18
## STRUCTURE-ID: 645bcd00bc82ec032a5c0124 ; CHARGE = 0; SPIN = 1
C -2.4407013499839945 0.6606930320953704 0.022453969649024786
O -3.2168055896879677 1.4823288490600253 0.17940553725365338
H 0.6895806501903027 1.2046838745607154 1.7135033978039602
I 0.8315141266713542 -0.37678408300977007 1.6544763078133755
O 0.3879338112799734 1.7694517715911502 -0.7382351788925805
C 2.615796155510587 -0.21216240976356426 0.46352299171664574
H 2.349435827684302 0.12690834177177027 -0.529275815014525
H 3.0668398768708 -1.1954877878036856 0.4070433949965774
H 3.297288272194594 0.4811833377421914 0.941205668847585
H 0.6918516476485265 2.5851309687793815 -1.1849179611424614
H -2.7122722526318896 -2.310374316149805 1.977518303524911
Rh -1.1383822706365676 -0.5634074245563215 -0.5402297620238037
I -2.3619961912170626 -2.794732588505927 0.5014872146561847
I -1.517901308514035 -0.07027298790589152 3.5214377891845836
O -0.7543879318013135 1.4605247236485204 -2.6188212795822623
C -0.4797898799037892 1.0619453781149049 -1.5023686168293988
O 0.6875566567305866 -1.8558008383054714 -2.547807002696677
C 0.004439749595672708 -1.4538278413636314 -1.7203989592649211
