20
## STRUCTURE-ID: 645bc686c84a430f536ee1c4 ; CHARGE = -1; SPIN = 1
C -2.3810121099983452 -1.2042472073271708 1.483595390144465
O -3.4193056611706036 -1.2029435911789077 1.9569147154298132
I -0.6417384845448203 0.7865346330931845 3.4885367946656727
C -1.147953068584246 -2.4563112748707927 -1.3705103793646505
H -1.7052130498289013 -2.407950834980286 -2.3060411095497915
H -0.2646389163173783 -3.0782825954795157 -1.53334862444562
H -1.7432080072443126 -2.9133686113834334 -0.5838360178016646
O 3.822026744526046 1.4985984594545858 0.02960455913349295
C 1.2963803647112677 2.3763981483330654 -0.43395227175949996
H 2.2151368540392915 2.8084252094152284 -0.8005064125673979
H 0.841433498388837 3.017400052825044 0.31326007237289216
H 0.6095523783889318 2.166878521664371 -1.2463930920634088
H 4.539282169130237 0.9547654026217137 0.35497916084814185
Rh -0.6780800502890428 -0.4403184688288144 0.9128284415007347
I 0.8972539564515274 -2.4748030080926653 1.574710648220177
I 1.825214298217427 0.5408307906551847 0.4612845027170334
O -1.823828206956612 2.2334424524141854 0.20191467971175386
C -1.3652275668008809 1.2012986774336534 0.4105253892441031
O -0.22236758485650193 -0.32600386471107085 -1.875891876904014
C -0.6537075572618941 -1.0803428910575714 -1.0376745695322718
