15
## STRUCTURE-ID: 645be96c2f6f912b85014ef4 ; CHARGE = -1; SPIN = 1
C -2.1396854154187834 -1.2604392129538242 0.8913468007797936
O -3.0083938976076556 -1.0375909026675676 1.5935857087537684
I -2.362832817407013 -2.321358170727083 -2.1066620497253346
C 0.9410240737890386 2.3663935692686127 -0.6017984554712866
H 0.2744733959270766 2.850371937661177 -1.3114432374854945
H 1.9110784923628015 2.2051325079094535 -1.0812445252053242
H 1.124474225521843 2.967248891867251 0.2874158810723328
O 0.627190908666083 -0.7911155146566847 1.3092837847852585
Rh -0.6886030250860925 -1.666681731112034 -0.18062020805566856
I 1.4535149642310747 -2.202356493476744 -1.6353703599969711
I -0.7853975090795101 -4.07705219595726 0.8816050932324859
O 1.6436777117162535 1.0961535495460684 1.8809332400521466
C 0.9735877034348535 0.4158580690829587 1.119010953848091
O -0.396504928009508 0.4093368945620985 -0.8472209743303508
C 0.4323961169595857 1.0460988016535986 -0.19882165225345105
