12
## STRUCTURE-ID: 645bd829ede99b6e2b099de4 ; CHARGE = -1; SPIN = 1
C -0.7169463923982431 -0.9713974201247003 2.2364270741223895
O -0.9328349867657796 -1.2451868302504472 3.3217520039516324
I 1.9108304695388596 -2.2405894615070863 0.8877798418000978
O 1.3679424502139552 1.1080313516177362 -2.51336394918063
H 2.1156367865739836 0.8380372867613844 -3.05144390035289
Rh -0.24926598189702054 -0.6221267295356477 0.4690314996607809
I -1.7401644935457157 -2.5287493882048184 -1.1180787964732528
I 0.1560036781389511 -0.4464859664615274 -2.1190116414550686
O -2.09845068648885 1.7338355106674463 -0.1498297063658172
C -1.1258633095993882 1.1345405355401068 0.24478675861250035
O 1.1231658335457841 1.954159974280908 1.0717618994095568
C 0.1899466326834626 1.2859311372166444 0.7201889162707085
