15
## STRUCTURE-ID: 645bd78ccf4eb64084507c6e ; CHARGE = 0; SPIN = 1
C -2.639690703000789 0.47934135916390447 -0.21492632284588328
O -3.758265440814088 0.49303035761423486 -0.39941522857549633
I -1.2672818480679269 -2.0733953940803898 -1.3267963392037285
C 2.4088530610356327 -0.44006388105333216 -0.8727672160897559
H 3.1912660992556043 -0.9457162220971917 -0.304577333273289
H 2.7313483684301945 0.5563741275788731 -1.1824625680336158
H 2.196137730522067 -0.9840757789774685 -1.7976736096955954
H -1.5732977129832462 -2.1023629661382657 3.1611941803208636
Rh -0.7062046333464774 0.29399745132740607 -0.2597470038348018
I -1.9057160898595804 -0.5668349499412507 3.232638534081959
I -0.16330652220558342 1.5290630573526793 -2.6099329246446916
O 0.9139242018932844 -0.7447107072773532 1.0235816386460357
C 1.1897834425780256 -0.3522226756318059 -0.07466229092515236
O -0.2238334226373798 2.932807721686424 1.0589069071017567
C -0.39371653079921165 1.9247685004732626 0.5666395769716394
