21
## STRUCTURE-ID: 645beb680e2957457224642b ; CHARGE = 0; SPIN = 1
C -2.673401567067381 -0.47296745417852504 -0.7463536014206583
O -3.583137694701607 -1.1070649199670808 -1.123863276703284
H -0.6732252770280537 2.3920634220165016 2.4548734759583004
I -1.3059067807219185 0.9357710791138641 2.211526097672507
C 2.6545501165579912 1.8081353866276706 2.917262742276803
H 1.9533726045791593 1.955596074883429 3.7522204670459622
H 2.4342657848202207 2.539264196527471 2.1206594733348783
H 3.6790286583097043 1.9889315229463973 3.2750219352149963
O -1.8304549954711795 1.370731722801663 -3.039598546282273
C -0.4823920038366696 -3.14857660369549 -1.2552848727273507
H -0.5669993823163847 -2.5917964057492475 -2.1803600717569034
H -1.4628837209287924 -3.3003231269004454 -0.8189801761900871
H 0.023585151822774122 -4.091027901582119 -1.4139065745982924
H -1.8046353915272184 1.2826287334125235 -4.011077831278801
Rh -1.142178516673399 0.477513796117965 -0.4692343882025163
I 0.6652363189022689 -1.9970597982692861 0.0752539102123024
I 0.9202353388439679 2.065805143722287 -0.6378738533415378
O 2.4491472410951327 -0.49961709257028164 2.0227842806058494
C 2.5379003287275212 0.545956094159261 2.418384659353156
O -0.6448640681576763 -0.5164574600381325 -3.128940858218629
C -1.1472421452284816 0.3624935906215401 -2.422512990954445
