15
## STRUCTURE-ID: 645be99ef987e93765507c5a ; CHARGE = -1; SPIN = 1
C -2.1873647048197564 0.0190152356663427 0.6981427059630153
O -2.972826566865565 0.31766152634363176 1.4700233878012845
I -2.3971925139348276 0.31552931232095327 -2.4061470982193454
C 0.6931658919339453 1.8110405745934988 -1.2317384315453135
H -0.12853002761755022 2.4687569335750372 -1.5303116276249125
H 0.968921620299888 1.2145868117405276 -2.1025005351528323
H 1.5422625013775246 2.4145763777378546 -0.9084626530090187
O -0.148405356348221 -1.7998421222461525 1.2303356433508184
Rh -0.9238770641304278 -0.6110536560627706 -0.48827609254798227
I 0.6247355140701839 -1.9812631890478076 -2.0351776879471863
I 1.1295858175715219 -3.1452067706460602 3.4202374749969593
O 2.0534102894652593 -1.3482306746481054 1.27023645182026
C 1.0139578746525642 -1.8253903959052187 1.6053873947682302
O 0.49076006543756306 1.1577804626346069 1.0802335960878358
C 0.24139665890791778 0.9920395739436796 -0.07198252874181547
