15
## STRUCTURE-ID: 645be3a1616c4761d40203bd ; CHARGE = -1; SPIN = 3
C -2.491921880816709 -0.3293943370614735 0.22127972009372948
O -3.1060577041633306 -0.6715401650552515 1.1340475678498003
I -0.4244648032737456 -1.1013583286197648 -2.596368491067433
C 1.059516099511386 1.9522254969607795 -1.2900754801790582
H 0.8644612245103815 1.9653587936864303 -2.3665146293130643
H 1.8258203970028322 1.19672935656683 -1.0946286839017134
H 1.4087670514490573 2.9375777808367998 -0.9796853241114858
O -0.43655386925531636 -3.1735016560494422 2.1664151657264235
Rh -0.48032984834122633 -0.28926631455133905 -0.11482224909796113
I 2.915458967430946 -3.883089041323235 1.0507430317400928
I 0.009217063644867072 -2.8769707799760567 0.4130504229957683
O 0.22284108372739148 0.07531488900992576 2.7716587946589377
C -0.0223998351945359 0.06822128775307029 1.6514075948884641
O -1.099558454171815 2.459023075008814 -0.3510477349885419
C -0.24479549206019083 1.6706699428139022 -0.6154597052939744
