15
## STRUCTURE-ID: 645bc51ea2681a07a839f2a3 ; CHARGE = -1; SPIN = 3
C -3.0299583594850614 -0.5195743405735652 0.171226718690432
O -4.097865301327161 -0.5831119633335619 -0.23271136761172725
I -0.8496451315423809 -2.1142447312311 -1.4147392389390294
O 1.2817167865045342 1.1090303695808168 1.5289416215798908
C 2.055063931742134 0.34002908611168065 -2.6504469631492107
H 3.0271094245245775 0.5782904650061481 -2.268862101148136
H 1.7676609536521146 -0.6790037159484031 -2.8181376468730415
H 0.6013649082074968 1.7221013252023298 1.8668222436788262
Rh -1.1860970064024732 -0.28931369101455207 0.6124350322662995
I -1.8726830245257944 2.312528506382091 1.0401296909485838
I 0.5482051753717075 1.6493701674170835 -2.1807367109499167
O 1.6364176074936116 -0.6721439989344827 0.313623952600492
C 0.8017445128904858 0.04837173225272807 0.8303872960047048
O -0.06796807970352377 -1.7276635641704343 3.025529843129071
C -0.6150663974003457 -1.174665646746709 2.176537629772676
