15
## STRUCTURE-ID: 645be9d1aa0d0426e87e8a8a ; CHARGE = -1; SPIN = 1
C -1.7362262129319914 0.9152655723201126 -1.175156716456208
O -2.7645117058099284 1.1361586077402035 -0.7180125053496891
I 0.19760993553044748 3.0470181826471405 -2.6752688984819697
C -0.0034793210960181184 -0.10929294015597821 3.148093059652544
H -0.009075269001844818 0.9361183236047145 3.4607991730598493
H 0.9594665912638121 -0.5144668221474368 3.461168821227603
H -0.8273725860348167 -0.6579380295962001 3.6030855327041107
O 2.363129434443464 -1.761027866637744 -3.4781124333628513
Rh -0.10827181112011428 0.5496789628898916 -1.9634287106964052
I 1.5612667702358198 0.9320839680009441 0.6551658285083766
I 1.982825847613401 0.08105082656813416 -3.4471114397845315
O -0.3252436502278299 -2.420552669258865 -1.745333219240779
C -0.2837128759770015 -1.2740188578739073 -1.7933762231615433
O -0.8935234585705655 -0.6842780800899128 0.9700982960377773
C -0.11288168831681206 -0.17579917801113118 1.6973894353436634
