20
## STRUCTURE-ID: 645bc35636efa96e77099df0 ; CHARGE = -1; SPIN = 1
C -2.4369360402063016 -1.9690649967548746 0.3912934609271323
O -3.348046625277263 -2.5378135986384946 0.7905333515955957
I -1.8697203457187925 -2.887436981699334 -2.6198260164548204
C -0.7374339386864444 -0.025136495298568203 2.235803263432579
H -0.4243650696780631 0.884696160760764 2.747919768978759
H -1.662102794219349 -0.37992589371686936 2.6951621099144716
H 0.019252194211370387 -0.7981546613255274 2.3513489313647296
O 3.4824898013354844 0.9401660143716801 -0.0233454721212833
C 1.22540842574774 1.9570707779132144 -1.0617976888781644
H 1.9130150197166322 2.5969058975624226 -0.5275241221691944
H 0.19423180041865004 2.2181559703118205 -0.8571835241232446
H 1.4305435277987875 1.9718656254061067 -2.1249609421650923
H 4.128680340469399 0.31372387755867676 0.3144711810111702
Rh -0.9936746127073586 -1.201080553544286 -0.6127325275822059
I 0.8410314662451173 -3.0772375317237017 0.5229053192356746
I 1.5851716616282752 0.012509023040859385 -0.33825787777896277
O -0.4020209991786408 0.4251512549320351 -3.0585771064447065
C -0.5636836372378768 -0.16664626184026937 -2.0743526105229986
O -1.3516507289757236 1.4264428610417967 0.46180723481938313
C -1.0301894456856655 0.2958095116424826 0.7873132669611971
