13
## STRUCTURE-ID: 645bb94e30b0bc07456ee1d3 ; CHARGE = -1; SPIN = 1
I -1.9379385329285173 2.239692956420662 0.22423139982736479
C -1.4852401257459509 -1.6348348156872015 0.4438404750329595
H -1.8857239470941696 -1.0656873725160056 1.2935976067964612
H -1.199849532911825 -2.6331115912885514 0.7841380506587913
H -2.2568676817400393 -1.728775124578717 -0.3233983751839842
O 2.0774270960247643 1.9099444515938595 -3.0519058134293777
Rh 0.1389232364056314 0.6722415114551973 0.7527748749950584
I 1.2001892006359527 -0.44846856994103396 2.825645840683146
I 0.6478856159425928 1.9939121690067214 -1.9005648952812222
O 0.37868561410150686 -1.339624049615607 -1.1078046796318075
C -0.2851941847223435 -1.0080823348000028 -0.1774453493307947
O 2.8616356793147295 1.6882271594679612 0.1712176505726159
C 1.746067562717665 1.3545656104827182 0.06567321429079133
