15
## STRUCTURE-ID: 645bd57787944b0c52099df9 ; CHARGE = 0; SPIN = 1
C -2.2582129271037004 -0.41270263399222795 0.5126031912400164
O -3.3922723173348572 -0.4716428889052317 0.5788174038865147
I 1.2340284393704506 -1.9601138413309487 -1.0920047899850147
C -0.17089602461501663 -1.542211835682811 1.9437790491312246
H 0.8903910439134848 -1.476491975987696 2.191345513568081
H -0.44262217792295966 -2.5828133322236164 1.7646153724558673
H -0.7719476774146335 -1.1290938426360848 2.7525587004268046
H -0.7005885633111357 1.9084337519768189 2.687401785360287
Rh -0.449918320947646 -0.44801329363985126 0.164658109743963
I 0.22827422196848066 1.8752163795086096 1.3832311702468127
I -0.9545762111912457 1.1098257469780979 -2.3747194344919134
O 1.8691044907546774 0.6418432369354077 -4.2940166260670605
C 1.6710864495344449 1.2096379896046818 -3.2784155397568826
O 1.7624108871975883 1.9263197119846576 -0.9553896874238419
C 1.4857386871020626 1.351806827410204 -1.9844642183348735
