13
## STRUCTURE-ID: 645bb56bb4d4b2226a0fad23 ; CHARGE = 0; SPIN = 1
I -3.719263004556396 1.6272048332554083 0.12620599579271996
C -1.0462330217585607 -0.006057610762429942 -0.6521024783842185
H -1.495108189550537 -0.0935690610174731 0.336410619749903
H -1.3243992754964287 -0.839083702645709 -1.2979054671782533
H -1.1853627145649266 0.956776948230408 -1.1515008954923855
H -1.030875429745849 2.434720647654683 1.2219392235176665
Rh 1.04237482244923 0.13402149248713435 -0.29225915938958325
I 0.55301472865061 2.3307802258312353 1.3862194932686172
I 2.412218170364808 0.1857539679337254 -2.433759913616835
O 0.458569746696578 -2.781757663348813 -0.3022446340979599
C 0.9863100946046082 -1.8111736737958875 0.12187051828559589
O 2.5469127506043283 -0.9909664680863199 1.9213933397998277
C 1.8018413223025167 -1.1466499357359874 1.015733357744915
