20
## STRUCTURE-ID: 645bc33f86649e2255315fb0 ; CHARGE = -1; SPIN = 1
C -1.902462571502295 -2.409425062499631 -0.08177436679573998
O -2.605331374021521 -3.2745345669709573 -0.32151514969905104
I -0.02094309059565552 -2.13292121605597 -2.740914341243882
C -1.7879264814051254 -0.006912344202793035 2.3480074981976906
H -1.8349422132804474 0.7513865129542893 3.1299271092804686
H -2.7520459891148588 -0.11559036238527881 1.8541462142658984
H -1.5271647168485991 -0.9633612399966306 2.812435160385522
O 3.8367465603493014 1.2099019476718256 -0.9346629375985617
C 1.2962713982829954 1.5354724364525323 -1.8293788624822194
H 2.158530398121485 1.9687319685899534 -2.314904635376343
H 0.8089902572895598 2.267436173785268 -1.1939922317356884
H 0.6005080882910594 1.1236178358367883 -2.5533121180555622
H 4.588554403160579 0.8263623667738941 -0.48265036480453344
Rh -0.4049324781792637 -1.1728862644760318 -0.2192900229738737
I 1.2339505281894025 -2.8459025633240396 1.1183224237751812
I 2.0140026914531806 -0.02718821997492786 -0.6009223071612955
O -1.9349624938910093 1.3883504456407445 -0.644709424586388
C -1.2894784366330214 0.44998668891035937 -0.37892093019784234
O 0.22174032092605991 1.0815207145599104 1.6512909566401266
C -0.6991048005918474 0.3459547487106789 1.3828183301660446
