20
## STRUCTURE-ID: 645bde13bfef3d0e4939f29a ; CHARGE = -1; SPIN = 1
C -1.8624444767271249 0.05272368891519999 0.15789378075735294
O -2.888308093454102 -0.1484457419949497 0.629371452761528
I 2.4493186620510974 0.5879104706697775 -1.1086779882830513
C -0.38376604928336483 2.1751082713238024 -3.041985500107716
H 0.6392021328315588 2.471135678384086 -2.8177739734409153
H -1.0390039940593432 2.926602834559537 -2.5975185815891053
H -0.5456386635601198 2.1401508109064227 -4.11882721086155
O 1.1475185852337995 -0.6500372631960012 4.433819059501894
C 0.6568553281596065 -2.1758245796332267 2.2172415003611614
H 1.5270942952173179 -2.434231417556076 1.6238712957358188
H -0.2478825727025183 -2.5743251795455717 1.7690526104549817
H 0.7738157734192561 -2.513342392225055 3.235710695003914
H 1.319719292918638 0.1312368609814668 4.958238718732218
Rh -0.13701024759640953 0.33678453217539833 -0.4662078470301863
I -0.4088385039807748 2.801586173237033 0.5165779995362154
I 0.49409662029252155 -0.05550550656818693 2.2832070599517307
O 0.42404699512018734 -2.506190704365857 -1.2142813697309969
C 0.18260958573955002 -1.4191242456886626 -0.9430898090644431
O -1.3688143147877443 0.010663629844655057 -3.0597881357274264
C -0.732570354832027 0.8431240797762009 -2.456833756961424
