12
## STRUCTURE-ID: 645bbb0f8b1a8c10cb0203c3 ; CHARGE = 0; SPIN = 1
C -1.7155114981417947 -0.1796336981246883 0.35596822693488117
H -1.9224147396067413 -0.9124317867313578 1.1378946085482347
H -2.3484405252342633 -0.37924922526765725 -0.5253632719761983
H -1.917576433980933 0.8239044855846592 0.7342681874347391
O 1.4258028729044288 -1.4502378530250273 -1.6960856754674267
Rh 0.1548266148897935 -0.3442363671415917 -0.46144542488948226
I -0.18025604817167315 2.558187112696254 -2.1150593143445664
I 1.3877871721810147 0.2205854100451481 -2.6282019966225314
O 1.338109448691743 -1.790047401794633 1.8443208373299216
C 1.1085399726769831 -0.7883950428739137 1.2467823598063208
O 1.512973759425839 1.684792781127355 1.125264676653685
C 1.1561594043656058 0.5567615855054479 0.9816567865924256
