15
## STRUCTURE-ID: 645be3df135cc84e8b2b1b6a ; CHARGE = -1; SPIN = 1
C -3.0998228326546835 0.7552810757664883 0.08615815108867057
O -4.1098696354355795 0.3611640951985671 -0.31290726822674353
I 0.6929733054214599 2.0830769379286607 -1.09984279957747
C 2.4828672144347705 -1.3253982622342573 -0.08841000988420784
H 3.4168475063136623 -1.5315635967745602 -0.6141675620256033
H 2.3074694252563823 -2.0329618388748747 0.7235591666268862
H 2.552371577338235 -0.3402148145112887 0.3830412026050497
O -1.575016330622377 -1.9645412977722259 -1.5607819131537193
Rh -1.3388133535328721 1.1501338399597874 0.53386436069791
I 0.3582912186098575 0.24050868864077807 2.524880318695014
I -0.790054764456803 -1.3267059320155261 -0.04892490598620791
O 1.2434497351396014 -1.466432315047397 -2.1880248170180123
C 1.4034117853957788 -1.3542008012970026 -1.038530983828137
O -1.8607883733322934 3.911061468999642 1.5361072596018264
C -1.6833164778751544 2.8407927520332463 1.163979800384778
