20
## STRUCTURE-ID: 645bd124b7b964369c6df394 ; CHARGE = -1; SPIN = 1
C -2.293081651475258 0.7407626792134462 -1.3818155427550542
O -2.9120354061608453 1.3063253488852185 -2.1740506665004706
I -1.905682675999077 1.6830940687185325 1.9698335175999442
C 1.6344744692646336 -0.06684324471321394 1.641591775061965
H 1.8342223987596924 -0.9814560835757535 1.0841652701860751
H 0.9666738554666585 -0.2963350790842231 2.4722926533786715
H 2.568679652366602 0.33899802322040423 2.0292151192492116
O 0.47002446508491486 2.426450985720113 -2.0552874425227965
C -0.2850216803589305 -3.6460796997220006 0.23468572762307438
H 0.23486095593876602 -3.344386057954088 -0.6695797615066508
H -1.0098926449137977 -4.42524060090108 0.03105171710011155
H 0.4084530347065111 -3.943122588713255 1.0129813332121986
H 0.6098297296063627 3.331054948415159 -2.401022081923718
Rh -0.7318470311202225 0.6121993627269927 -0.2358181789612845
I 0.7424469450726013 -0.6587381132768232 -2.0513654107720756
I -1.3892497616410024 -1.9034496263149074 0.9723877573225029
O -1.0409393816905808 3.3908014581461976 -0.7499232893823152
C -0.42672458495994975 2.3952344636030545 -1.0692455149086615
O 1.5296495092694975 2.06418713224063 0.6019747452505297
C 0.9951598027834181 0.9765426233656145 0.7379282732487562
