20
## STRUCTURE-ID: 645bc3f194c7bd6f4b315fad ; CHARGE = -1; SPIN = 1
C -2.4953702055621374 -2.0763561566692927 -0.053813395367938874
O -3.5040923841292733 -2.5913970793791603 0.12419456618319119
I 0.4742222548238677 -2.1894598842810558 -2.842836140220848
C -0.5939078714388216 0.164942743068411 2.5070750415743857
H -0.6496106374087182 1.0886698757756705 3.0831346471402057
H -1.4872760526678588 -0.42155061343585615 2.726130913467903
H 0.28845716283799233 -0.40217962001477064 2.795894766577441
O 3.4841691797681866 0.5404450077612973 -0.7561371797331731
C 1.1643551076042968 1.7295322526859203 -1.2512584066014567
H 1.9791437113881203 2.4256211292163603 -1.1137732167505427
H 0.2050481238783277 2.1633799264186804 -0.9933600478461846
H 1.1720326928757665 1.3395595210767373 -2.262494206487544
H 4.162121056528415 -0.08268625314106531 -0.49068429867139096
Rh -0.8399610634039814 -1.306390641600114 -0.39315419361702997
I 0.2746954902537836 -3.0385249583987077 1.2442585023090706
I 1.4977005963027885 0.10906210723173453 0.06356416298877025
O -1.9190363371399497 0.6113549990210294 -2.4133109123864083
C -1.5452599338996085 -0.1300016152992133 -1.6245944533434236
O -1.1248061613407736 1.5247730711986038 0.6010693955229692
C -0.5426247292702165 0.5412061887649396 1.0500944552619798
