20
## STRUCTURE-ID: 645bdba0b7752c7eef5a4840 ; CHARGE = -1; SPIN = 1
C -2.436249985883802 -0.7434534551135735 0.011059995122589919
O -3.5013544335550697 -0.45909769888998686 -0.3361749386538649
I 0.046747149861936586 0.41369367692198444 2.918876141815895
C 2.7230697684821865 -1.3889757977007016 1.234226500519509
H 2.171170061991134 -2.305844691783685 1.427976468818889
H 2.9813988585022257 -0.9014661800153903 2.1759199669682747
H 3.6383442689177956 -1.6382484382657394 0.6907359762086249
O -0.9701635467277925 3.7922909615109783 -1.0426149894092156
C -1.4838250469599716 1.3979048680077704 -2.1069808348220764
H -2.4725081705136946 1.8300186336912079 -2.198161412353468
H -1.4968142815845866 0.33917268998256805 -2.3461854924076184
H -0.7966396828550323 1.9381581018311889 -2.7437337517165536
H -0.688214570573721 4.4590508976965175 -0.4178126456038007
Rh -0.6389680272785098 -0.8875384148487707 0.6190626377406442
I 1.1290490522226055 -1.5605371128573347 -1.521151049599427
I -0.8450395931835889 1.6727429457465055 -0.10716838486754035
O 2.1204658650580264 0.7319017962848885 0.20357765800139282
C 1.9796610566127957 -0.424068913223934 0.41149112686776973
O -0.8045573287042391 -3.6535275684431703 1.7930049568991053
C -0.6555714138286737 -2.6121763005313188 1.3340520704708803
