15
## STRUCTURE-ID: 645be122639171407b0abd03 ; CHARGE = -1; SPIN = 1
C -1.2512049222363386 -1.2360661810625386 1.2402521043708787
O -2.124735122590879 -1.9946371403176844 1.2984718195203844
I -2.6828683307635735 4.226486803085946 2.1264222097958476
O -0.20557537770177137 -2.5567404254510984 -1.40613590442991
C 1.7060409332686108 1.1425040762561345 0.5272783370964391
H 2.6571207212053403 0.7521003784781188 0.1524241817903677
H 1.698809582639327 2.2272234158915047 0.3889949077423728
H 0.36669064880648605 -3.253861922423084 -1.7797464319127558
Rh 0.09224954478810662 -0.024829789102541536 0.8456259183302708
I -1.7818351232352572 2.1427094455185562 0.540932272134742
I 1.7373994117766831 0.8271578854023142 2.7297320263617144
O -1.300894852881152 0.4834718691411587 -1.572666370106915
C -0.45852710104763444 -0.2358178883413659 -1.0150529867682814
O 1.276925670841468 -1.1688716019083283 -2.376799547634391
C 0.27040431713058666 -1.3308289251670677 -1.6997325362907947
