19
## STRUCTURE-ID: 645bee8d8ee37850f90fad28 ; CHARGE = 0; SPIN = 1
C -2.8694409461603856 -0.6675231381701464 1.4083543492823478
O -3.6715157934884908 -0.7860294207888737 2.2085445134691852
C -0.9576302113983363 -2.3052876348473705 0.28222632013143106
H 0.1184690178151703 -2.2699879366189166 0.09251787678566817
H -1.4621253418848377 -2.8974147209980847 -0.4894499079229336
H -1.141573603359704 -2.7232749258576083 1.2698275434454438
O -2.0950421044379786 2.1716940325583427 0.34306649550275814
C 3.723783388081062 0.097516381196769 -2.012946386874617
H 2.834001874829443 0.1218520967073394 -2.629428385990612
H 4.297796159088333 -0.8020789033541207 -2.192238176087042
H 4.32742778754254 0.9820499096858873 -2.1672684663983333
H -2.4050309751905616 3.076345539982956 0.12501367687401127
Rh -1.6435542995430599 -0.3759253210249434 0.05668961924471485
I 3.1004972609738717 0.08014296682937615 0.049826722458223394
I -0.5571687717648236 0.09507884600460961 -2.174347902452299
O 0.30485957453260604 0.30285322344185145 2.0291643965575403
C -0.5584873528923052 0.6691950291351666 1.302559725357748
O -0.3670909429849589 3.092318884945857 1.4431365421027351
C -0.9781747197575841 2.1384750911719244 1.0547514445140362
