15
## STRUCTURE-ID: 645bd6558709a87bc739f294 ; CHARGE = 0; SPIN = 1
C -2.7265087308611577 0.17602656131284403 0.6829296922238506
O -3.5464980590301245 -0.1036134464739291 1.4101262716363472
I -0.992173543126663 -2.4231746107703795 0.07278319968739114
C 2.2937824628238004 -0.684708594479852 0.4521578622062516
H 3.1129175477554374 -1.0081039309552153 -0.19099083888109428
H 1.8948169087663769 -1.5275029811445 1.0125963133606901
H 2.6723033385101087 0.04140460121656799 1.1753352285644294
H -2.316812836198852 -1.054833648332893 -2.985850264913896
Rh -0.7188301259122725 0.21512730409584463 0.11085823412267183
I -1.5416903756875706 0.3177095833300911 -2.8218639286848273
I -0.15663368136877534 0.372870675271532 2.7363968788635895
O 1.4695500766396423 0.4630762548148151 -1.4715012691568867
C 1.274677091953398 -0.004559879072219723 -0.3871124222201882
O -0.2602612938623819 3.169174800109068 0.10263451793979501
C -0.45863878040096945 2.0511073110781655 0.10150052525194043
