12
## STRUCTURE-ID: 645bd7f678b0405acd0fad1a ; CHARGE = -1; SPIN = 1
C -1.5333607319671647 -0.3263153393225587 0.8325594747413504
O -2.658630805029938 -0.4496382046931965 1.0031860678661844
I 2.8940581690699645 -0.2550314383584094 -0.15795349328557898
O -1.0754531608575097 -0.3900758887119491 -3.4968252821564354
H -0.9042550859916598 -0.9434005141894131 -4.26766027818835
Rh 0.2929946383453231 -0.2539037727003948 0.5235086357160369
I 0.08112570736301063 -2.9802676186699184 0.8217671001850427
I 0.5385480909331812 -0.35014361661329435 -2.299800442125929
O 0.4602374175748632 2.769545819374289 0.5664704746281188
C 0.49044243995661213 1.6449113268569169 1.0029457094771173
O 0.7887786610533777 0.6954298283352668 3.3251467670503607
C 0.6255146595499389 0.8388894186926664 2.146655266092074
