15
## STRUCTURE-ID: 645bd70d21508267f1315fb0 ; CHARGE = 0; SPIN = 1
C -2.8306255160847105 0.36986532122657007 -0.5097758919511443
O -3.8722680742612305 0.34308069647901795 -0.9569831564053582
I -1.1054332433675234 -1.6942706609231695 -1.8555249058074381
C 1.95573677186331 -0.7636215677038796 0.3234510920377183
H 1.9198059274248733 -0.49557823052003425 1.3786509319070723
H 2.9917455667082256 -0.7887354544345953 -0.016380143037086962
H 1.525737246270596 -1.7592545428384603 0.20046615972436044
H -1.2432300616852805 -2.544477491674116 1.6279214592766578
Rh -0.8545901903201194 0.4865420709471311 -0.19860049698721394
I -1.1098889392425932 -1.0427472071881707 2.1447120427742012
I -1.110874179265124 2.47552452210821 -2.049826409967564
O 1.6882946708182156 0.7838598215655181 -1.4712183784637243
C 1.2206988906868983 0.2294373977732526 -0.521845015480219
O 0.7208864663836441 2.605887287227089 1.2106190674673016
C 0.10400466407079256 1.7944880379556698 0.6943336449123824
