15
## STRUCTURE-ID: 645bd57987944b0c52099e01 ; CHARGE = 0; SPIN = 1
C -2.2713964484090536 -0.2344531725258292 0.5499815280839345
O -3.396008462775398 -0.14391766299458023 0.7008180641010425
I 1.674048745408151 -1.520289859733128 -0.8485128023169518
C -0.356831145269419 -1.6104148508550513 1.8853707698001736
H 0.6707395209545772 -1.575667024339617 2.2481661608010457
H -0.606671209187858 -2.632248036420631 1.587320181948448
H -1.0360705448904473 -1.273648748274834 2.666727356308851
H -0.2655962941233699 1.5804921701839738 2.7968466569818826
Rh -0.4888649655066874 -0.4571282467337483 0.12541135587139665
I 0.4427731192274645 1.7903177545079045 1.3776068310127445
I -0.9873216650739989 0.8865144389809235 -2.4723017138321763
O 1.9571550484807694 0.3842431486973784 -4.173340169911771
C 1.6685400414556635 1.0743114330344394 -3.267954224224284
O 1.5721437717887483 2.2538933330278317 -1.135325521213934
C 1.4233604879208972 1.4779953234449341 -2.04081447341044
