13
## STRUCTURE-ID: 645bb922e425b62d746df394 ; CHARGE = -1; SPIN = 1
I -2.168406030819451 1.3756521452188524 -1.094574373692827
C -1.1613766366212834 -0.9530501692362653 1.2360509309859251
H -0.5150813239438374 -1.3147670386988903 2.0359968514337003
H -1.669345385560983 -1.8022657432616331 0.7781370555043933
H -1.9091022577214987 -0.27901802993853403 1.6553927113593774
O 3.1737842041747926 1.8254672348765033 -1.481788463928107
Rh 0.001601019079080969 0.10110047443073156 -0.2356733683739516
I 2.213836125783487 -1.2480890929123671 0.459295531882979
I 1.3940366551644032 1.723136149553109 -2.0371025033169916
O -0.4088593972295919 -1.976857688740505 -2.3632688314383263
C -0.2976536169379122 -1.2105404063778218 -1.530414451756198
O 0.8794291009518049 2.3062704400256635 1.6049897918380764
C 0.46713754368100624 1.4529617250611566 0.9729591195019514
