15
## STRUCTURE-ID: 645be1b220c32e358b53afa8 ; CHARGE = 0; SPIN = 1
C -2.3857754301372815 -0.5922836751314139 -0.23776888579712582
O -3.409582527083891 -0.8660479494875711 0.17026938734377065
I -1.3306353261481092 2.3081991537709614 0.015833868580156233
C 0.1410642008101386 -0.5014908947413768 1.7830491644155086
H 0.7063888792305845 -1.2483267241622682 2.345188012220419
H -0.9217979116349401 -0.5762330702010076 2.002276513897065
H 0.48153791938685686 0.48972151424564114 2.106959098545901
H 2.765871968024651 3.4280818256747545 -0.005007136990256914
Rh -0.8506294779918672 -0.0043402354601094414 -1.116196092512377
I 3.155153322782403 2.1210183247805356 0.765192968040042
I 0.648189995980506 1.036294332990212 -3.024712902535912
O 1.5098770244193402 -0.9966356711709405 -0.1347108000277845
C 0.5029041191034685 -0.6439104423243003 0.36399727294597667
O -0.42184114473438694 -2.4148244983049874 -2.868041786081615
C -0.5907256120074335 -1.5392219904782944 -2.1663286820438503
