15
## STRUCTURE-ID: 645be540c26a9e097c5a484e ; CHARGE = -1; SPIN = 1
C -2.8747592969440485 -0.022444764846494183 -0.24381606038436984
O -3.9374008440114263 -0.0407458190820047 -0.7387384117811436
I -0.09712063826105558 -2.248080499899356 -1.0119402405101774
C 2.8340797054092075 -0.3050189790965886 2.765880809912917
H 2.6091877973947177 -0.28358020371403875 3.8393934578238658
H 2.2567967133096043 0.5085808277538526 2.278805937251591
H 3.901078697892658 -0.11029635733491415 2.601601166725047
O -2.640792120355908 2.9908154056585783 -3.300066679086395
Rh -1.1816561424748184 0.09812401197366838 -1.4389490853791134
I 0.32174042202345615 1.3274221118959397 0.3085397581086522
I -1.449738004656621 2.624803052372342 -1.9044489528336719
O -2.4441926495128343 -0.31101764708587776 -4.100792155094464
C -1.9427346077229157 -0.2514910333219779 -3.0478752849244937
O 2.180041277702251 -2.4840822434990772 1.7782530155127836
C 2.4654696902076902 -1.4929878617741208 2.214152724658957
