15
## STRUCTURE-ID: 645bd65ba8d64e0f392fb203 ; CHARGE = 0; SPIN = 1
C -2.735798043240454 0.14775899006001672 0.6203381267451809
O -3.8425592589726407 -0.06369163776627551 0.7749230675344301
I -1.1793794246373368 -2.31535129688414 0.1708663919909268
C 2.07470963950501 -1.0003446879058286 -0.14923625873880572
H 3.1277408422062694 -0.7550365823825308 0.01037181966580056
H 1.9412895184932468 -1.273455912420885 -1.2004860756925777
H 1.794688258237205 -1.84790784329837 0.47069166002772034
H -1.216282001828243 -0.8562259316643304 -3.1133140273073776
Rh -0.833026674595689 0.29590866175837954 0.5176949039412478
I -0.8048554615798988 0.6113467908780632 -2.682716584688372
I 0.726655552207391 0.1418582660977157 2.7926964500518965
O 1.527522838121647 1.3452257405785542 -0.2119870617431474
C 1.3004983329052933 0.22229128806440604 0.11100330134434075
O -0.9695148582072264 3.2304362124376227 1.0576912848678166
C -0.9116892586145949 2.117187942447595 0.8314630020009464
