13
## STRUCTURE-ID: 645bb56feec32d022e6ee1d3 ; CHARGE = 0; SPIN = 1
I -1.4170099046279407 -1.1845295559348938 1.8735091675712903
C -1.623400514808691 0.2112679888659694 -1.1464442050477728
H -1.2096466561345556 0.7568330061900247 -2.0024613291710773
H -2.5141265523761116 0.7073433905244846 -0.7590908432159422
H -1.8548670198338486 -0.818653287526133 -1.4170604336027797
H 0.4505426627189706 3.383062816998979 1.7614209473139153
Rh -0.07670852279384688 0.29245739161831846 0.21013918417559468
I -0.3035466158057826 3.0668915515788595 0.4035786268375433
I 2.4953529922363984 0.15980522866986488 1.707505143993283
O 1.909828984327339 -2.7240181431623114 1.0541858507687931
C 1.8013997811154199 -1.6520612841304412 0.5792974155793743
O 1.2607239100749776 -1.1388737293455893 -1.724555822170984
C 1.0814574559077028 -1.0595253743471331 -0.5400237030312061
