20
## STRUCTURE-ID: 645bc6997fe4b24adc732d43 ; CHARGE = -1; SPIN = 1
C -2.854539425946159 0.8081670015986729 3.1129179267103333
O -3.6488726643475133 1.01542193293125 3.9332792850763223
I 0.3633638975355004 -0.09472453188096215 3.749710183646389
C 0.5150658847981419 -3.027797077737255 -1.767871553395442
H 1.1162841093003153 -3.750541463798664 -2.335989990012631
H 1.065582383604779 -2.708607898747496 -0.8754117243500645
H -0.4113466482973232 -3.510965552618538 -1.4078993360481764
O 1.9969537565892517 0.17585248601589715 -1.747248195695901
C 1.3350038968481999 2.224261597913797 0.1462997367962442
H 2.154377023132262 2.2439082096372442 -0.5567250871992032
H 1.6919823431512668 2.3020825675559484 1.1696978582616053
H 0.6357764186721683 3.0281636925214586 -0.06382269548084057
H 2.8167903056859926 -0.16517230548488004 -1.3877819885655647
Rh -1.5371353752182133 0.6216246906050512 1.8388833808313196
I -1.9616757212949096 -1.8833261644507204 0.7535922660501223
I 0.303918891553364 0.40117921763891234 -0.04251631893143343
O -1.8469200120724496 3.2240020294843865 0.3549765572892047
C -1.806195328415047 2.210106720491132 0.9410391310125817
O -0.12089652416569302 -1.1583481590791598 -3.2694595270782174
C 0.19248278888606882 -1.9552869925960785 -2.545669908916645
