21
## STRUCTURE-ID: 645bedff403a394e24014f0b ; CHARGE = 0; SPIN = 1
C -2.329199879455126 -0.5295616677186049 0.6493576688562497
O -3.4089826961345033 -0.33501736315934577 1.021945064520171
H 2.58966920420923 0.599168352714675 1.9104336037605645
I 1.1487394743906831 0.7624012798707445 0.8374408483174216
C 3.157152235905937 -2.1183859021415428 2.139341346708927
H 3.2142722392100302 -1.6095434752688385 1.163151533552357
H 2.2360977212137785 -1.7437652775646546 2.613343466170629
H 4.021758431492338 -1.824510643317553 2.748276114333646
O -1.5098493494429517 4.204908349505644 -1.087841982308561
C -2.6908234284241908 2.05547534591979 -1.892376066011757
H -3.0879066272800375 1.0583513642134326 -2.107347898016406
H -2.4192928061486354 2.5554364338677455 -2.8199202183265006
H -3.4419557192077246 2.653692562089041 -1.3820405556754367
H -0.9188018957471521 4.837399727530418 -0.6798695295050902
Rh -0.9423140119989383 -0.6657144521389953 -0.5671372414377225
I 0.015108134549398723 -2.9683677221881033 0.08436244221398775
I -1.023681369361167 1.9819569572441478 -0.6967758234032788
O 3.072648599703565 -4.576935358418561 1.8580186108226413
C 3.097975164028763 -3.4604812337929727 1.9773564801038321
O -0.4255474373336096 -0.3335586549085259 -3.454257703159888
C -0.355065984169674 -0.5429486223379323 -2.3154601615157904
