20
## STRUCTURE-ID: 645bc222decf9c40092b1b64 ; CHARGE = -1; SPIN = 1
C -2.1441209237473458 1.4163111179540986 -0.48118235917095126
O -3.0588977621548334 1.4476248424400833 0.21261030904257644
I -1.5085331504504451 -1.2610844625049793 -2.5110927862418584
C 1.4937019665043476 -1.3107495388292907 0.2698652839966308
H 1.0003381091913672 -1.7823154686526483 -0.573488467983183
H 1.6220299818608486 -2.0071025755015954 1.0876852723430985
H 2.447061119493128 -0.8864942605481491 -0.02173977204498813
O 1.0467541821817095 -0.7201985484299351 2.9222262876263776
C -1.3291819859299323 -1.2627559736496154 1.3028996912904307
H -1.03140882730371 -1.8192611314231473 2.1806894297034085
H -1.3839561078338813 -1.911041545746072 0.43797997983827724
H -2.281259388619679 -0.7744831881671007 1.470834485164861
H 1.1294434388053274 -0.06606613694492446 3.6143043422648073
Rh -0.5748932696224875 1.1514465956815858 -1.4370295286616754
I 2.547622445958945 2.0316311854415328 0.7362230960276059
I 0.17631852761940342 0.19918681197661198 0.9927345336133198
O 2.0912801181866656 0.3557461435547628 -2.5626933712378253
C 1.102647278173989 0.7312298474756129 -2.1270997553860593
O -0.6710261843144867 3.7334577511651568 -3.0376492963754513
C -0.6739195679989429 2.7349185347080107 -2.476077373809402
