20
## STRUCTURE-ID: 645bcc5bd7aea264e6315fbb ; CHARGE = -1; SPIN = 1
C -1.5075635306470234 2.1853855467945524 0.190555136358083
O -2.1852782663277974 3.027546700367388 -0.24092792973855665
I 3.5682270950689605 5.019243234387646 -1.8403801972336866
C -0.830601220071799 -3.5188070732128067 -0.20185312115411885
H -1.0763332443881553 -3.1554497164828925 0.8586622473657064
H -1.8095528714284979 -4.054608918434371 -0.0699756284223004
H -0.43979692192257264 -4.392869892969625 -0.7847096072041828
O 1.647556684418358 2.4793024291049006 -0.7662097143562906
C -1.0450421334753726 -2.3331266736963663 -1.1620307307060427
H 0.20169856822228335 -3.4913314008795364 0.2474462102818067
H -1.0087368852370129 -2.618699618801551 -2.210730448138985
H -1.9644902934493735 -1.7968551412265938 -0.939730207957697
H 2.1928551750141954 3.258307252868357 -1.0876075189167786
Rh -0.14195189132873204 1.2223518679757799 0.9728847321188422
I -1.5248780676989155 -0.6603671684758846 2.1335633991039975
I 0.5863938929533066 -0.7037616306379921 -1.0169528704974162
O 0.9039595196385554 3.937656921111967 0.7579648616878076
C 0.8841446251918975 2.790713115402015 0.30778188978533144
O 2.23325051130472 1.5580015419766489 2.7504587166493
C 1.3161392541629682 1.24736862482836 2.1017907809751915
