18
## STRUCTURE-ID: 645bcd7daaa1f22371108f04 ; CHARGE = -1; SPIN = 1
C -2.5635281660931097 1.4167075297609157 -0.3794783702424435
O -3.674992140279474 1.708437261624431 0.08021103974788817
H 1.167205683651482 -1.2119102290237946 -1.0308748588143288
I 1.2669500392484245 0.16426990728454238 -0.2412294131718773
O 0.42562177774445853 -2.103840503456816 1.4453263350723866
C 3.3479428013147867 0.16151358724976522 -1.2071063854248665
H 3.1851031774357854 0.17934829874100636 -2.2789531982953544
H 3.8590729086911826 -0.7316737970495705 -0.8684170106291617
H 3.851707612437201 1.060095976211304 -0.8725626009807997
H 0.562613736431647 -2.889892570849855 2.011205025332563
O -2.4079054034301772 2.138370100334079 -1.5769763984096545
Rh -1.4237899794637077 0.02549584942002752 0.5239296731897147
I -1.978098494653887 -1.6202437227903483 -1.4273655897854867
I -0.8904073380992642 1.9255183017572417 -2.7578843455978936
O -1.1894083832508069 2.1000029627019736 2.654332714013331
C -1.1895278269988476 1.2518283933077399 1.8583312799580185
O -1.553545636729371 -2.041659464613712 2.4509401548998153
C -0.7950143679563136 -1.5323678806089485 1.6165719491381627
