23
## STRUCTURE-ID: 645bd2f680d8544ea532ebaa ; CHARGE = -1; SPIN = 1
C -3.1201206135332713 1.0088245907776041 -0.13474828637459546
O -4.017767744866187 1.7465635307696832 -0.2122743493446141
H 2.602838076165804 0.017995672767972246 0.07977633770500286
I 1.1611254078024977 0.6998085149417621 0.4652409079953528
O -0.4447467860335358 2.1099897888839685 -1.828547524575641
C 2.354941480333338 1.3946905367887366 2.187880391189368
H 3.1855064429310933 1.9721270267202848 1.7980871203757747
H 2.700176716827091 0.5198495365172687 2.727093933592177
H 1.7284735440304595 2.0111688021740375 2.821217647440269
H -0.35251340050427865 2.7334015312965123 -2.5757616764599427
O -0.743025221952058 -1.8847652152068608 -2.5572041274231108
C 0.3405365363226684 -2.6905513847352194 1.5121733627103024
H 0.28501671379408305 -3.763172304435997 1.6575212835566502
H 0.7767343158530637 -2.1942751552140303 2.372292053628971
H 0.8730858204630558 -2.4387739376996476 0.6013814777059245
H -0.011275205943603143 -2.2214064391905035 -3.113464095783522
Rh -1.6709812391443106 -0.07327013142008706 -0.5608710947663954
I -1.1195441974681661 2.2937506376518155 1.9681213471061119
I -1.7086110580763194 -1.9394574121111074 1.2913451760649637
O 0.9410676783040419 -0.7775188091326651 -1.6577416755588428
C -0.2968187517903667 -0.9855969958559901 -1.6438237898519301
O -2.024631381977743 1.2727457352067555 -3.1411024242656667
C -1.4394671315373566 1.1878718805057071 -2.056591994666612
