15
## STRUCTURE-ID: 645be94cb59b1107d6108f13 ; CHARGE = -1; SPIN = 1
C -1.5847618344345085 -0.6347840862002878 1.0096543007432237
O -2.390080762778157 -0.5725286516340417 1.8220106403570424
I -1.5698171624327502 -1.2099858583080616 -2.3331621934312397
C 0.12498138241330253 1.9039835085638066 -1.4509798038042192
H -0.878621137686682 2.0489417830121344 -1.8581784525209861
H 0.6993060507706991 1.3216494078359993 -2.1695656465282447
H 0.5870504592123161 2.879190272152749 -1.3006854615764782
O 0.8945634881629979 -2.1898998966206 2.055771842194473
Rh -0.12997539451815363 -0.7853331584898681 -0.11399780052227611
I 2.280057161608918 -1.164519408096541 -1.0873925794207604
I 0.029618672517500527 -3.6929997096868616 0.6693132410616409
O 1.280170199486108 -0.028861404692679424 2.2845513122356556
C 0.830845563182076 -0.9679569600053788 1.6585387025186256
O -0.14685592830638378 1.8446272792858995 0.9228168277283552
C -0.026480757197282562 1.2484768828837012 -0.10869492903481862
