15
## STRUCTURE-ID: 645bd5694e35804ed339f2ab ; CHARGE = 0; SPIN = 1
C -3.6616541622390364 0.6404700845553737 0.6568889604136474
O -4.814764330937953 0.6017157151643003 0.6091763967766265
I -1.7436047188523391 -1.8703384111520445 0.4642568297207927
C 3.2856038969002888 -1.3430979007308466 -0.10390884962204444
H 3.5550213107399995 -0.3419110611088045 0.2653098889204613
H 4.118577194288985 -1.7600966699517429 -0.6870368236693242
H 3.1038373144491613 -1.9729787315789318 0.7786213382072202
H -0.948052122199222 -0.3210058405706357 -2.744300361422685
Rh -1.841239217870683 0.7356352539596775 0.8498340479698389
I -0.9729242248474881 1.181446505696286 -2.240936379862423
I 0.6868642554948687 0.864586573991134 1.5334477732922183
O 1.260268204316438 -1.2217433560768087 -1.5327870030159227
C 2.159602918327957 -1.2659675821490588 -0.8672806649005987
O -2.1744209237486234 3.580952196659625 1.6847466329572647
C -2.013115393822317 2.4923332232924285 1.3339682142349767
