11
## STRUCTURE-ID: 645bb3412893f0299d3adfca ; CHARGE = 0; SPIN = 1
Rh -0.6588986407827558 -0.10263146987608553 0.9540069950776969
I -1.2458035199350384 2.3997868797262316 1.0500781724312116
O -3.362177536039666 -1.177246770528096 0.39002664505116136
C -2.3214246527549487 -0.7656786732484538 0.5941889160479525
O -0.36169122587811303 -0.4034774221589081 -1.8109117773371735
C 0.21384110271187876 -0.04948873729441233 -0.8499215664777184
I 0.4614033660003186 -2.2695471426073333 1.7690875052388688
C 1.5573982886711737 0.4885935061951832 -0.5648518064564876
H 1.681655454549457 1.422544764048388 -1.122636642270529
H 1.7327086632540236 0.6878050784726227 0.5094059398870546
H 2.3029887002036764 -0.23066001272913056 -0.9184723811920392
