20
## STRUCTURE-ID: 645be2ad2571ba348439f29a ; CHARGE = -1; SPIN = 1
C -0.5208373231305488 -0.6889910406510319 1.633582827121954
O -0.8239905045916218 0.41561288536696805 1.2793178654196578
I 2.595178411962406 -1.053503566878257 2.9481375031969526
C -1.2135463530568424 -1.591394852461244 2.6088736144523583
H -0.6635479236573777 -2.5283027184641056 2.7742195301738137
H -2.202417443861476 -1.821745450068462 2.208859687758697
H -1.3231114511870536 -1.0632491197093432 3.5566402997903888
O -1.9964642101344858 1.0057220078241873 -2.978806425637522
C -0.12015025593131537 2.581936030733246 -1.8299212875946336
H -0.7961896932666813 2.9786364893209827 -1.0837199060167315
H -0.4208958437310998 2.8794392251223715 -2.824797645814719
H 0.9044905497297975 2.8439235539785694 -1.603725654918534
H -2.5332241344547337 0.24539171930158396 -3.212211239288701
Rh 1.0398880050662447 -1.602430982238023 0.9488269390139814
I -0.2774906493824629 -2.968510759325238 -0.8210047809146903
I -0.2737999197813115 0.4733970935187331 -1.7643052503558356
O 3.036310250566422 -1.3797315775200183 -1.002047881248328
C 2.1844898064806113 -0.7837487029025643 -0.39232668941307886
O 1.8429308277275862 1.5531812571812567 0.05373180153821422
C 1.5623778546338278 0.5043685078704754 -0.49932330726318713
