15
## STRUCTURE-ID: 645be9f3945efa5e75732d34 ; CHARGE = -1; SPIN = 1
C -2.3002388686860957 -0.23803418200294066 -0.3124268717800821
O -3.390903376777882 -0.3858311834047881 0.024125761686571674
I 0.14699620400239397 2.711557855744956 -1.2197162995897568
C 0.20493112533915042 0.5825056284923218 2.109511810294627
H -0.2394332415542227 1.545722927226441 1.867280981211931
H 1.2916610135219164 0.6780882432565324 2.13558053717916
H -0.12428559314305358 0.25484933509324526 3.0949022991747595
O 2.1138381423810784 -2.4212736398427532 -2.007060692153033
Rh -0.5217967420646822 -0.1652691061488308 -0.8541186284986372
I 2.5285780200839416 2.6934177371515102 0.021361412920344335
I 2.0570423136794584 -0.6837215401011039 -1.3124172005850592
O -0.7333534410148959 -1.6366413911290794 -3.4316641185364576
C -0.7371215851782895 -0.7689960255918187 -2.6705054394750216
O -0.15096744314088123 -1.667324865629222 1.4582371309889337
C -0.1449465274479102 -0.499049793114454 1.096909317161722
