23
## STRUCTURE-ID: 645bcf3a8955bb624b6ee1d8 ; CHARGE = -1; SPIN = 1
C -2.805804060953782 -0.7158253981966273 0.03351103493985788
O -3.7409064670073384 -0.5051059996685219 -0.6234038000395917
H 0.11094918542877054 -2.437778332686419 -0.45325829827786895
I 0.7260848706937462 -1.046230530781796 0.05458324436234664
O 0.8617572527632694 0.24954218578188658 2.816532336438472
C 2.476708547658517 -1.8912867329356713 -1.1899333170059463
H 2.7749537595978886 -2.822078755093659 -0.7250859563016138
H 3.278700932741098 -1.1655763354109114 -1.1491407453048827
H 2.1231908937105035 -2.0425127074685423 -2.2027947872578104
H 1.2709691665204663 0.672929773158107 3.5957133582666243
O -2.373496097687955 2.193185278462045 1.1520247500893703
C 0.9355723363861902 1.204634905551524 -2.72680486705902
H 1.8477589959593377 0.6263618705707521 -2.782274158825336
H 0.7704655300462696 1.569694067780205 -1.7205177001366037
H 0.9300921096049232 2.016606456249973 -3.442008850179331
H -2.2005136338275433 3.1253168051559004 0.9113399141055378
Rh -1.5329420932513746 -0.48004524237602914 1.3723149508612833
I -1.5614905120653457 -2.8777362221346805 2.5055179020745206
I -0.6905551397890759 -0.10711721936319264 -3.212268014305082
O -0.3596973132322572 1.9176719027944475 0.24994226871418562
C -1.3220400295108572 1.3924429547901134 0.8105581663481708
O -1.0143257478835632 0.8428355502953516 3.8523635273320136
C -0.5054324859018651 0.2800717255257199 2.873089041160712
