13
## STRUCTURE-ID: 645bb84540ebd171a72b1b6a ; CHARGE = -1; SPIN = 1
I -1.8954773461348149 -2.1055917011648204 -1.460840385914384
C -1.6266336468723328 0.8703457013646353 0.20805894087134294
H -2.59228198324666 0.38020474253120695 0.3409141830245557
H -1.6901497862132309 1.560645465630841 -0.6347269680455936
H -1.3829369311762896 1.4254083937988693 1.1174079371160388
O 1.2968707224696912 -2.3724339191760464 0.09983686928161392
Rh -0.1629055085235452 -0.5863543031764746 -0.19107653714010206
I 3.411459505984561 -0.09405489612148996 -1.0542775223263863
I 0.2096401388721984 -2.406805772247572 1.6799932260779236
O 1.3748820934741468 1.2018121982575019 1.6805852813365285
C 1.0514669777374717 0.7440798996503196 0.6330840498281752
O 0.5955926323117413 0.6898517709972292 -1.6837326386687848
C 1.410473131317052 0.6928924196557985 -0.7352264354409033
