15
## STRUCTURE-ID: 645bea192aff6e6bbe108f10 ; CHARGE = -1; SPIN = 1
C -2.5662615411222003 1.568292874559894 -2.044111727597119
O -3.5535640699027624 2.0745000482745524 -2.3601691716726885
I 0.7255611488478098 2.7121657484621378 -2.9405475951417666
C 1.3446547880010549 -0.3712224506998851 2.8874921788267938
H 0.6993564667998416 0.5195880703435276 2.7828581710618536
H 2.3186249283641684 -0.07608811108078471 2.484024782439636
H 1.4290532892745849 -0.6273776692061049 3.954050139558744
O 1.6597717040489308 -1.9015044715424945 -1.621709198360401
Rh -0.9649786647670627 0.7982534193552647 -1.5873968203032114
I -0.8746303521529446 1.9541182564465442 0.8191917195475578
I 1.1111374316870293 -0.45462495974071054 -0.5954833260256961
O -1.2396799710143473 -1.6246463814049419 -3.329434645324561
C -1.2141067847347562 -0.6767150602644866 -2.6648950610470488
O 0.321938211017757 -2.4505337574916832 2.002498884667615
C 0.8031234156526561 -1.4442055560108995 2.2136316693714893
