20
## STRUCTURE-ID: 645be2a7941d8a2d9e52ff4a ; CHARGE = -1; SPIN = 1
C -0.57239595754205 -0.8067460233171675 1.5583623777156472
O -0.9293598491613905 0.29195200136410576 1.2370384777932555
I 2.469610172277717 -1.0303529987038818 3.0636940512230875
C -1.2624183563311393 -1.8014645182618374 2.4415211313840683
H -0.6626167326351889 -2.7087536285904266 2.597483352945643
H -2.206799273219581 -2.073459256012134 1.9671577940245835
H -1.4659792295727176 -1.330651331252485 3.4038496611075177
O -1.8651087166519653 1.0144446342185598 -3.0574180862529876
C -0.19289178380414895 2.6584177366176363 -1.7070066997118591
H -0.9522309216165611 2.9648994475812267 -0.9994723054674404
H -0.4391619441560816 2.98646513540592 -2.7072462822416377
H 0.7885919488923173 2.9807964640907207 -1.386876920171646
H -2.3193369476705104 0.22975093331398447 -3.3715545206229858
Rh 1.0901353195586267 -1.5755742537659567 0.9377258666961183
I -0.0009656465781827272 -2.939791782894358 -0.9817941674250555
I -0.19020758528704523 0.5436800304323188 -1.7539291011530167
O 3.1883283034468795 -1.1070957619930755 -0.8581667896849395
C 2.257444791829069 -0.60704806650971 -0.2785620040300283
O 1.714968282513091 1.6724596529138642 0.25877876377011066
C 1.5503941257087304 0.6380715853623958 -0.3635845998984614
