15
## STRUCTURE-ID: 645bea86b2e02d594f1fdaa8 ; CHARGE = -1; SPIN = 1
C -0.9814869386782369 0.33182614216015704 1.2385701107196176
O -1.8036007361522859 0.606893998464489 0.4910553954270792
I 1.8212641131823828 1.5967654759591305 0.4797190415839686
C -1.0905952531699974 0.9228109327319015 -3.4342489293770133
H -1.7156969371482804 0.4352690662216361 -4.1711931631031804
H -0.19885852553901776 1.3388769611497078 -3.885758400497622
H -1.6354889063871056 1.6714582867499745 -2.874952613868982
O 0.3835456334553996 -1.7269971779237705 -3.2045055889753837
Rh 0.5606054367314544 -0.1702748113746978 2.1542011902139544
I 0.48081616277756295 -2.5791294432545766 0.5901695218856217
I -0.44816525149084646 -0.5805124555595534 -2.0422560171709416
O 3.334906661706943 -0.8166644104897499 3.0974098778118098
C 2.2542516182172716 -0.5823760352042927 2.817606181632702
O -0.7264011232640192 -0.24020175301061997 4.888416882579163
C -0.23509595424116617 -0.2077447766197419 3.8557665111393304
