15
## STRUCTURE-ID: 645bd5d4eba85608a1732d4b ; CHARGE = 0; SPIN = 1
C -3.1824130672130426 0.5487841604383423 0.7003899411159967
O -4.278307233717805 0.604157918912542 1.0222326957295087
I -1.8425408746217546 -2.1902228927806537 -0.028648880506168
C 2.836868190644065 -0.9005551008359355 0.10429574104653264
H 3.627689805847435 -0.37125798064443605 0.6360820394697947
H 2.968068940838816 -0.8121358264724263 -0.9738971054903633
H 2.9080001965967583 -1.9506092854259853 0.39888914903610356
H -1.5294078300569067 -0.7471501327559393 -3.3851183627271015
Rh -1.43144985663628 0.37388627780691847 0.19511372151511785
I -1.372950609401241 0.7753122370279781 -3.0032717524610875
I 1.1152187906073625 -0.33420515537537904 2.635091004077193
O 0.6399709473310728 -0.007952972205403551 -0.22757780544676015
C 1.5226793249025827 -0.3874084861628018 0.4890364756604498
O -0.8869974686321902 3.245275930246896 0.855367228379847
C -1.0944292564888811 2.1540813082262806 0.5820159106009221
