13
## STRUCTURE-ID: 645bb8f56b568a5fb6099df0 ; CHARGE = -1; SPIN = 1
I -1.399051692472236 -1.1365753446409999 -2.0399773540812944
C -2.24187836999031 -0.012917628887528603 1.0119753139965249
H -2.607124998946544 -1.033511316045003 0.8871478175074444
H -2.966719134258503 0.6975390245375751 0.5913103176156322
H -2.0829884011632442 0.20110644562175947 2.0700552798145826
O 1.620087047222899 0.5967599879692249 -1.3428756780264954
Rh -0.520382308082958 0.28811468749544167 -0.06564390865674342
I 0.10225177288632992 2.3738415593931816 1.3354254000784578
I 2.917003110713664 1.7273833632539886 -3.11332770527658
O 3.1212645128145033 -0.8625512162506902 -0.48451678741127285
C 2.1038555731053488 -0.27531729087351214 -0.6458571497854181
O 1.139123784479488 -1.7077077805510432 1.2666974050671822
C 0.814559103691564 -0.8561644910224017 0.5295870491579857
