15
## STRUCTURE-ID: 645be9c7356e4a49030d4d44 ; CHARGE = -1; SPIN = 1
C -2.264205525733506 0.8673028063307281 -2.770112014046134
O -3.3021931524106147 1.1049074730371344 -3.2206382253840853
I 0.5898508279450579 2.112966370067269 -3.6054303786291695
C 1.0977999296321903 -0.6116099567120467 2.681751895407324
H 0.5344990189940885 0.1428801419007624 3.239123304925291
H 2.141335162211462 -0.2985125672615591 2.737673546209202
H 0.9510450800270881 -1.5883102572584806 3.1433365101013657
O 1.1500177943093737 -0.34715503313854396 -1.5397212321485427
Rh -0.6375369564074569 0.3105536562194747 -2.1445522881012073
I 1.6199604327020356 2.641365741575137 2.1919611866915507
I 1.1633889533373214 1.0104060240285269 -0.15623706076329358
O -2.210870312992325 -2.015308611288809 -1.137096580802817
C -1.5173176139299434 -1.1396050851270396 -1.428445005778587
O 0.0479664675685244 -1.5111316746825265 0.7018203332460005
C 0.6362598947467207 -0.6787490276900103 1.3065660090730364
