23
## STRUCTURE-ID: 645bcfe390f6a70be05c0130 ; CHARGE = -1; SPIN = 1
C -3.0949958883569875 -0.22985270653474238 0.6751772082329425
O -3.7156822748701948 -0.3382981747899707 -0.3066014297038892
H 2.044762294629898 -0.6026444167730147 2.641421472102097
I 1.9219420011965733 -0.6331915716346281 1.0427728608091182
O 0.5005223646535546 -1.436635729913476 -1.4293100538290917
C 4.205229161948918 -0.8379679546246257 1.299666188388193
H 4.623098714172915 -0.9399243693434585 0.30457787585976465
H 4.380114860444116 -1.7244071817478448 1.9014724577062985
H 4.540707062689854 0.07415325986334426 1.7819329690518477
H 0.6077981848006494 -1.6874994113252035 -2.3674623273081177
O -0.3498520496531703 3.89558647313644 -1.0101515633625848
C -1.9679580214188463 1.8669544751544895 -1.6203103589900294
H -2.8461302890715263 2.397342111437433 -1.2695634752558722
H -2.236312674568401 0.872408957423684 -1.9572489957708394
H -1.4861843994065704 2.43114530518825 -2.4049075725420264
H 0.2470264612278016 4.446814094049577 -0.5034343513499151
Rh -1.0044521930711086 -0.7411050106156069 0.8510416392027528
I -0.6875813461868712 0.28632982646648286 3.285232065585404
I -0.6200603311604268 1.7208221222186941 -0.03256658023207899
O -1.6614960601232014 -1.3407935291040411 -1.9349360428886528
C -0.794320644209643 -1.2293165707029652 -1.0693051792660353
O -1.4217765309128831 -3.6887681894086075 1.0080277204292638
C -1.1843984027545291 -2.561151808420096 1.1144754731313684
