15
## STRUCTURE-ID: 645be2a6f6057d30622fb200 ; CHARGE = -1; SPIN = 1
C -3.2223506839325604 -0.38016551052743097 0.08847416921808243
O -4.36550221264214 -0.37836534777749375 0.12223841822314119
I -1.559142298652117 2.3435871960956 0.444723572010426
C 1.9476199048371832 1.3028520702502775 -0.31760557667441247
H 1.2378583947457562 2.1263405833122246 -0.2607169712965902
H 2.3730190831539253 1.2487483023710038 -1.3203766185789072
H 2.745474472173158 1.4875762761374502 0.4061392535244268
O 1.0738689136889266 -1.4776193237365047 2.6759695449159993
Rh -1.3503247375263898 -0.22039594580517508 -0.17394015142838082
I -0.3843226789200538 0.16370530757589066 -2.737883006116727
I 0.24823255297969524 0.047987416527631145 2.099937523863726
O -0.7953772397391174 -3.1230996556020076 -0.5131659080937774
C -1.0733795799161086 -2.018026642812825 -0.39242376542659196
O 1.7578591113049644 -1.1175336408208818 -0.15008140306042217
C 1.3664669984448972 -0.0055910851877365225 0.028710918919957164
