15
## STRUCTURE-ID: 645bd7b20c21d2139b554efe ; CHARGE = 0; SPIN = 1
C -1.936069078219455 0.3540577916344434 -1.8810152903663404
O -2.6918918873215314 0.2661267397044183 -2.7214720474855745
I -1.3995583442396065 -2.0015943438479926 0.13869805266041127
C 2.1867300810204253 -0.8573639212559014 -0.9345800353784138
H 2.483829365007363 -1.6799716570744512 -0.2760223362843053
H 3.0464264460025765 -0.18753180339559147 -1.0403782423336676
H 1.901071429828958 -1.24641460291191 -1.9104516866610328
H -1.0190001073001194 -1.7628712893190874 4.11024037018698
Rh -0.7322201588704557 0.5161530187547274 -0.4895081397973511
I -0.4876197527609417 -0.29419369130130374 3.943256241496499
I 0.34163452781239007 2.612605544929933 -1.8023597739704347
O 0.9725018556857433 0.43568694387582785 0.7634600644025373
C 1.1173003437554658 -0.11903025287560386 -0.289182695332723
O -1.838570677294138 2.3088658288954793 1.6548469280191018
C -1.9445640431069913 1.6554756941874922 0.734468590844187
