15
## STRUCTURE-ID: 645bd6e5ce0de77c366006a3 ; CHARGE = 0; SPIN = 1
C -2.757270806644189 0.4737164885335165 -0.32478828737648674
O -3.8736470506473135 0.39032543875564873 -0.5255381334655845
I -1.2577268675750635 -1.8606752565000408 -1.3292422374709374
C 2.0470355776562497 -0.9319729033695746 -0.49755028363531223
H 1.959530331505987 -1.7137686660529976 0.2631409811766237
H 3.097582621647398 -0.6389014724222338 -0.5688738525547707
H 1.7100172837365488 -1.3300723344667689 -1.4509513140403225
H -1.0961764121926736 -2.395133722343465 2.218726124241344
Rh -0.8483482390442646 0.5277248508431366 -0.23911380632876722
I -0.6756811963355119 -0.9220243961395195 2.620990653942038
I 0.6232019543339409 1.599965753689247 -2.316427008042316
O 1.5723519034140234 1.026964436919376 0.8222654022174005
C 1.2996093132085769 0.246606610637904 -0.034273537390618315
O -0.9173784721934835 3.2940409631141905 0.885335955896171
C -0.8830999408701393 2.2332042088018733 0.47629934283100334
