12
## STRUCTURE-ID: 645bbcf6f570936e486ee1db ; CHARGE = -1; SPIN = 1
C -2.7446360484849124 0.39951058355586644 0.3860823262620342
O -3.6177842487025043 0.8386436058106588 0.9958001403616972
I 0.4389917815321295 -1.191101851863157 -2.3166793633456852
O 3.1140334597916155 -0.6641834540913252 0.8820302868376912
H 3.885472628724936 -0.2670195150575351 0.41815082941380255
Rh -1.3870850039072697 -0.2901840097984903 -0.632771065263663
I 0.47865857817726826 -1.1463350011520494 1.8573669221153393
I -2.7378950341633477 -2.5670554200121485 -0.5742512354776752
O 1.7373639995873125 1.019776240918121 0.2971420234393514
C 2.0156453232206273 -0.017268835686791426 0.8003415677669252
O -0.44270833996297976 2.4833321613862487 -1.187162232359966
C -0.7400570958127632 1.4018854959908396 -0.9260501997504039
