20
## STRUCTURE-ID: 645bdbd1e6d00905ca36ef5e ; CHARGE = -1; SPIN = 1
C -2.3442008435548973 -2.2962290631449473 0.7688295395977126
O -3.3500645974500407 -2.84496501593135 0.8115520860488639
I -2.9910518453258215 0.8871895404848005 1.786521766906366
C 2.436354877099015 -1.656223973084415 0.3300367394152831
H 2.282145691440644 -2.5886276269496253 -0.21305352774400274
H 2.6368147098020356 -1.9065530976718346 1.3729653063873306
H 3.2851872639902155 -1.1124691329456284 -0.0867947012572976
O -2.0076081931419614 2.9276918557694276 -0.85028891332749
C 0.5144117896628547 2.527652860354763 -1.8066585821232353
H 0.2757674453251587 3.5819200088411867 -1.7808355794091506
H 0.22680639717638484 2.080974748909317 -2.749709911462124
H 1.55418214515668 2.3383828788363945 -1.5827482677274431
H -2.8474566547535676 2.7877788490281503 -0.40024016973795123
Rh -0.6483828243936182 -1.514239887228917 0.593651503871388
I -0.744686217167544 -1.8951686825237708 -2.001013312090782
I -0.6314602224915735 1.6104216730177472 -0.27190478246153643
O 1.3741682624451343 0.38630902303290193 -0.060502159667066326
C 1.1822216127636116 -0.814163796851037 0.27603099758678656
O 0.04937251293978135 -1.16373745881637 3.4812023183274006
C -0.25252130952254304 -1.3359437031267796 2.3829596488670024
