13
## STRUCTURE-ID: 645bb35e57e1062c825c0124 ; CHARGE = -1; SPIN = 1
I -1.752243905130839 1.3560417649408512 1.9753315697083917
C -1.6392366765102044 -0.5288350359242958 -0.8866763300810583
H -1.3010967388606227 -0.9206101618148351 -1.8478036029978868
H -2.417747600716441 0.21544767526968978 -1.0614378321299895
H -2.056967985676575 -1.3417631103026455 -0.2901223174622054
O 3.288936039132485 -0.04137211512573399 1.192901338112598
Rh -0.040067641080373174 0.43746555911466306 0.16498536159026797
I -0.1924718101764657 2.5524029802602146 -1.44265329058309
I 2.2072183659090254 1.4569045928511595 1.5582390010540121
O 0.4209880174752722 -1.742589567769421 2.153816306926742
C 0.19317015798280163 -0.9634250607109037 1.357072649392671
O 2.063046488232227 -0.3696632289057051 -1.7989089150778839
C 1.226473289419709 -0.11000429188303626 -1.0747439384525574
