21
## STRUCTURE-ID: 645beb617275d240fa602463 ; CHARGE = 0; SPIN = 1
C -2.2602730665559814 -0.4114234034127507 -0.41743270885252753
O -3.080123626103281 -1.2041341110472634 -0.6703669172709017
H -0.676013385956238 3.0744577224879097 2.4164478642111593
I -1.2805325221002883 1.6038231044014313 2.2084014701603025
C 2.624799001540308 1.3312771208057599 2.7922890136675913
H 3.5225639254156964 0.7491431555008509 3.047607299804592
H 1.8828051145228786 1.201930465028203 3.5974706066446633
H 2.898423393540062 2.396294180464838 2.7320372664978545
O -1.8212004780954634 0.9749657949714908 -3.0380743281555893
C -0.518813152376856 -3.239976791950429 -1.0815944143530816
H -0.35070481114968444 -2.5861291074803443 -1.9280875836967482
H -1.5795131519532595 -3.374101310910599 -0.9076524560298123
H -0.01929457710166379 -4.189841086258867 -1.2137865361080644
H -1.7469636872297707 0.694048218345358 -3.969439908751309
Rh -0.9871469507813435 0.9001936922508453 -0.38045245595307653
I 0.30805426136688296 -2.2977101587342386 0.6140781499803938
I 0.4126494909078775 3.026638437071772 -1.0285963023141462
O 1.6292378714013034 0.5782063587329157 0.6350138308889423
C 2.098660723372684 0.9082931506054868 1.605029824586892
O -0.1588694335354259 -0.48777560999643343 -2.7634016144598825
C -0.8977449391284262 0.3518201791240656 -2.2494901004972827
