20
## STRUCTURE-ID: 645bcb0eea58cb643a3adfc4 ; CHARGE = -1; SPIN = 1
C -1.0591761296609463 1.8078093674589417 -0.4051658831597627
O -1.6343166349700062 2.741933146557276 -0.7556017144698344
I -2.304566293614986 0.09404827216745142 1.8294346735926852
C -0.8033252099385186 0.006819090797627004 -2.765460422234363
H -1.8250576631545727 -0.3248372428530058 -2.586379236546912
H -0.768373687637854 1.0886885284162167 -2.885387825632051
H -0.44492451230985336 -0.45756001306291694 -3.6852437721706597
O 1.2664598285528454 -2.494694030216914 -1.899409646443367
C 0.9385135037939729 1.2980426822269011 4.05167665809909
H 1.5565535216566302 0.4067579197257091 4.039038040154845
H -0.11193071409702035 1.0377470019188755 4.129899599903698
H 1.2368763974080212 1.9874116018547758 4.831443009266325
H 1.2450237543432487 -3.4718869949530964 -1.8833001085493284
Rh -0.15812438067468068 0.37793165619538166 0.2717751882122322
I 1.2266419958193644 2.3107295110417394 2.1505332759959375
I 1.1567145685296876 -1.6175073222837637 1.4294936636463218
O 1.1640737555115606 0.2205670318893072 -1.3240627817839385
C 0.11565222115780392 -0.4417056022479747 -1.6333636640835965
O -0.9011933608920882 -2.6110825910952538 -1.3556569148369493
C 0.104479040177429 -1.9592120135372648 -1.5542621389604374
