18
## STRUCTURE-ID: 645bb7260b7b26220d7e8a93 ; CHARGE = -1; SPIN = 1
I -1.1677656974324513 -1.5376810957538993 -2.6499509609743988
C -1.9098063531425082 0.785041969290224 -0.15614828026737246
H -2.590332292123497 1.2719288769930075 -0.86425908618569
H -1.8402908023705449 1.4278838558460403 0.7295125151695784
H -2.376248967383973 -0.1581307361885484 0.146934299746616
O 0.3473103700209349 -3.252518007343818 1.9342832836945016
C 1.333062980667476 -0.7702724737092592 1.6581209896296174
H 0.9999097903535374 -1.0682203352097965 2.6440923230466233
H 1.1440307556558413 0.2852365783712474 1.4712994130280603
H 2.3746897254496084 -1.0202696325319125 1.4889774227342716
H 0.07851364293841917 -4.1448079839783905 1.6914915841871776
Rh -0.03437890162713944 0.42561691180698946 -1.0537427146012266
I 2.4880759492191524 -0.24598704294458343 -1.7374241229567553
I 0.17217860870192286 -1.947872637017451 0.3212056815951004
O 0.9212156599943937 3.081617081530329 0.08119906949595651
C 0.4636788029406276 2.2199593841465917 -0.6571623582616982
O -0.3721208326299336 2.4904911982416116 -3.0708867760477285
C -0.03172243923165498 2.157984088451516 -1.9775422830327634
