21
## STRUCTURE-ID: 645be95d5839746bbd6ee1d0 ; CHARGE = 0; SPIN = 1
C -2.4012025539116655 0.03582383080168997 1.8477456666698782
O -3.3608833851333344 0.3960953051038562 2.3695840996005484
H -1.7120868809277647 -3.9479797912870533 1.221712144098303
I -0.7280516800542551 -3.2698218392775495 2.250429996398725
C 2.206678117282093 -1.5177802414819364 0.679284557420527
H 2.2998031835514747 -1.7775794693332154 1.731671602395653
H 1.782471829896771 -2.3755940778432465 0.15096942118936443
H 3.185263412663826 -1.3058533431794925 0.24778163702223896
O 0.6157230838067792 2.3924198607256835 -3.5435462645264906
C -1.2924281935318007 1.9965891087135765 -1.427424289483965
H -1.0049155461152066 3.0092978828219894 -1.68041661961046
H -1.0108665057690003 1.744459589569506 -0.3985084055575716
H -2.3528641608643444 1.8358363579806873 -1.5943118026668823
H 1.555469901952815 2.431848636198968 -3.3651234671249597
Rh -0.7817106090487819 -0.4698118691447745 1.072478314970906
I -1.5999348494096155 -1.3967767795710047 -1.430167164802088
I -0.1921633268915754 0.7693378504845312 -2.761032159366403
O 1.396348765396983 0.9409416002387998 2.637792469698595
C 0.62403587396525 0.390537794471848 1.9409121349788427
O 1.4759071275730393 0.4579850364309555 -0.43542756571094776
C 1.2954063955683253 -0.33997544242381617 0.48559569440611144
