15
## STRUCTURE-ID: 645bd3f6b02e253c5d36ef53 ; CHARGE = 0; SPIN = 1
C -2.5222781145466207 0.21156093447884944 0.17371220497569895
O -3.6086514409566255 -0.026867686030558162 -0.026508897144923906
I -0.21836958310098506 2.7473075640014923 1.113655179454893
C 1.8473764791179115 -0.31995682301882394 0.674156249492672
H 2.605146079809197 0.23259332313191863 1.2340917389833774
H 2.271895516966166 -1.2756869283848826 0.35652666355159246
H 0.9820472344405192 -0.5031173822973891 1.3339169646535787
H -1.3447674750009908 -3.2708619112142205 1.5973466182988718
Rh -0.5403511573554707 0.5953729228348328 -0.39104470733464725
I -1.488038674380348 -1.9569037933110203 2.4543828981444435
I -0.6378072101729989 -1.6368991065909355 -1.804078000420373
O 2.2084039997425613 0.8978270428378226 -1.3895452131530404
C 1.501668324948536 0.46707048995621536 -0.5430342038769387
O -0.5410234298538144 2.2314694483112074 -2.8663032159631943
C -0.5152505496570279 1.6070919052955024 -1.9172742796620301
