15
## STRUCTURE-ID: 645bd5b31f7cd02e353adfe1 ; CHARGE = 0; SPIN = 1
C -3.194739136550122 0.4914037096669209 0.7182498824969263
O -4.299962636294753 0.5208975566061508 1.010080044567958
I -1.809267927586234 -2.206760232146261 -0.060077244077065106
C 2.827749782550262 -0.8908895573694554 0.02646147168758366
H 3.6365672806883413 -0.35496140268790355 0.5234984087858795
H 2.911658301099376 -0.8038818822475345 -1.0566631070940296
H 2.917999841933308 -1.9389455456382096 0.3218571239925934
H -1.472072984247067 -0.6391597354301807 -3.3979632044849444
Rh -1.4349151037224281 0.35728073641770036 0.2323760047192395
I -1.3861974104160237 0.871587372899455 -2.9514762088604716
I 1.1994255394061561 -0.3544562829454807 2.6242279985844705
O 0.6249384170592411 0.012294491192765013 -0.21629505745598618
C 1.5295690832354818 -0.3800175994896425 0.46525697191995086
O -0.9299142117833921 3.1950102236995237 1.0518289296960248
C -1.1208388353721441 2.120598147472123 0.7086379855218888
