20
## STRUCTURE-ID: 645bc8a7abc5a62a3c5a484e ; CHARGE = -1; SPIN = 3
C -2.5726670542037233 -0.94744342986015 -0.3896808572916163
O -3.6490968120754146 -0.6565876985306881 -0.6875497277923123
I 0.6696785764061258 -1.6135444981322595 -2.0503630258529593
C -0.40617036830789494 -2.52976676871881 1.7558822453751872
H -0.7545435592771915 -3.19228219651079 0.9633199190205709
H 0.29427589702437124 -3.0540182560629394 2.407299368620576
H -1.270964559567611 -2.197806613255631 2.3311804223111503
O -2.06425589491514 0.9090345115069354 -2.5324300481451703
C 2.5111562639159235 1.8188008884062117 0.24794594753691987
H 2.7697205007284267 0.7691662558597101 0.3142460077570063
H 1.74572906721624 1.9842924530997825 -0.5027394029266176
H 2.1868955197614404 2.1947422798674374 1.210303311836445
H -2.0834846862240086 1.55801421442132 -3.268503242123431
Rh -0.752087921377295 -0.2594397126246813 -0.22051017447595236
I -1.268695979164444 1.5286246886153847 1.6895635258730197
I 4.252374587849664 2.889636619164724 -0.33889623982475614
O -0.24249955878293794 2.000733389687112 -1.8371150333032664
C -1.0475563844238558 1.0957401438372985 -1.7001320125935966
O 1.395869205964762 -0.9650640089490898 1.4411487597626662
C 0.28632315945254244 -1.3328322618208552 1.167030256236131
