18
## STRUCTURE-ID: 645bb6a48c5fe51843732d40 ; CHARGE = -1; SPIN = 1
I -2.0841071596197276 -0.7884310669887533 -1.626951847687097
C -1.8529872171226152 0.1849728757975878 2.0475577981282225
H -1.5296448640511675 -0.20916183583781384 3.0168811649755147
H -2.882514362711452 -0.1441716984229338 1.8602438003589052
H -1.828566128680891 1.2789463569708381 2.0856974899480707
O 0.09506252916578772 2.524485013410099 -2.3518063301174195
C 1.8674103376420697 0.6361389696444743 -1.5975395150647362
H 1.2607027133541044 0.007406568943720632 -2.2422197492373015
H 2.466970457669052 0.041388957802126605 -0.9175113739375241
H 2.469333732327806 1.3203117359988341 -2.182432756134302
H -0.60518399960702 3.1812368212282207 -2.3612139247298196
Rh -0.6204577836622933 -0.5702929003095849 0.5235949416944994
I 1.564887173905074 0.8510296526161972 2.026085072973311
I 0.5114300021019921 1.8462589775147018 -0.49766479171659134
O 1.968660367517758 -1.9891022182267868 0.29945677138696875
C 0.7472410048086533 -2.0773416987818956 0.26891738653209774
O -1.1699120966315042 -3.510060745130489 0.8277733569329806
C -0.378324706405618 -2.5836137662285514 0.821132505694243
