20
## STRUCTURE-ID: 645bdc41174d37669132ebb0 ; CHARGE = -1; SPIN = 1
C -2.1101807744721097 -1.1474929402394072 -0.5090827029766242
O -2.654933624840399 -1.3972987977224476 -1.496738923514566
I 0.22577506136747094 0.19490918665182053 2.974861188198858
C 3.2095929096001004 -0.8532424489326524 0.5375397201057396
H 3.940149983993098 -1.6311518605208744 0.31749393885936517
H 3.124197102309494 -0.7959104087430696 1.6272493020293979
H 3.5229518501952595 0.11399578039428758 0.14701548708617565
O -0.6440730488054861 3.974412620984852 -0.7365394140631102
C -1.5373131197793144 1.614705174517976 -1.8242778389509722
H -1.3385074900639873 2.5703951750535787 -2.2832088833924136
H -2.6051586966425515 1.4289627702455834 -1.7781164620362166
H -1.0303613708468955 0.8136683617527587 -2.3513781553127164
H -0.2635423865213163 4.561891255627282 -0.08388762273347673
Rh -1.2046307717665303 -0.7323594228600174 1.027975652195327
I 1.24136441779279 -3.2193196725892257 0.615772106560656
I -0.7740984430632727 1.7058796537812044 0.13857643613252005
O 1.1390901255845085 -0.6247661213254194 -0.7037026444429729
C 1.90717094159416 -1.2092141839265362 -0.0097127412703896
O -2.3309465232019306 -3.125497439042849 2.4540609480584736
C -1.816546142433064 -2.2425666831068303 1.9361006094669544
