20
## STRUCTURE-ID: 645bc34ddfe5fd10c13adfd3 ; CHARGE = -1; SPIN = 1
C -2.7160695343389656 -1.4013820399560817 -0.21396246702267202
O -3.845378953328241 -1.4012260100544265 0.015355332681655924
I 0.08061595839668388 -3.579136560708582 -1.4553617287819858
C -0.7784141058556405 -0.2443607080025308 2.4695098791373504
H -1.0813818006850735 0.5459885942939159 3.156211040069191
H -1.3173936280209384 -1.1639859078145882 2.6880080728874938
H 0.2863968275418796 -0.44126315792003107 2.5957607866298837
O 3.7346142123664947 1.0069043295618223 -0.7133462184725712
C 1.180854464154629 1.87283849062077 -1.1382077396372854
H 1.9681542700598391 2.5028422722743606 -0.7533968565002677
H 0.21098557096554632 2.1528752195446956 -0.7424784737758321
H 1.1790471876147988 1.8914076654905254 -2.2212312326346484
H 4.4537148746609345 0.40770653943354007 -0.5141689497967173
Rh -0.9143345874418848 -1.0251291418359396 -0.5578645263409959
I 0.8025451677137557 -3.3098142345004646 1.1478040291449834
I 1.5923828975347554 -0.08895237035068773 -0.5055408490700679
O -1.3966799490748083 0.8872007161822474 -2.7040224380731406
C -1.103534295604718 -0.20219401137258092 -2.4150420690257124
O -1.3112847469114959 1.37692031170878 0.8132930880982018
C -1.0248398297475836 0.21276000340528853 1.0486813204831493
