12
## STRUCTURE-ID: 645bb3bc9947c21fc5099df3 ; CHARGE = -1; SPIN = 1
Rh -0.242230141382776 0.8762696482061343 0.1288818176446938
I -2.033653859879664 1.3324458954426832 1.964708032792567
I 0.1765080647250735 2.6477757790870173 -1.7125949652641004
O -2.5693253256967243 -1.9628816712098514 0.2364193950839449
C -1.456111134516978 -1.5778281005448882 0.04919288788764475
O -1.277926456605732 -0.5756278400830309 -2.0935259209473402
C -1.0095654181731981 -0.5418721518690777 -0.9138284269187291
I 0.14545011951250264 -2.3523168084083363 1.3113529822401535
C 1.8042121938367832 0.5897769028091622 0.21512796181371902
H 2.1048385325063514 -0.2631091452116547 -0.39751534981086895
H 1.9538350562036892 0.3735547270252649 1.2839176797631084
H 2.4039683694706833 1.4538127647565466 -0.07213609428479578
