15
## STRUCTURE-ID: 645be4eccf920718c4554ee4 ; CHARGE = -1; SPIN = 1
C -3.2348254779541805 -1.019323926242838 -0.5211906991798525
O -3.953059981054523 -1.8996483450499628 -0.6786785603507993
I -0.18454402155128377 -1.0157996950911066 1.7808266256244487
C 2.7742507284301507 -0.5083795545767615 1.0442213587597502
H 2.7382153544747454 0.2864701047437258 1.7903704911624054
H 3.559918066286185 -0.3101452764994819 0.3160381821483885
H 2.958401424421442 -1.438512794664471 1.5842550763260146
O 0.823192525313505 2.5294924063730875 -1.2824929707455768
Rh -2.0748492940060297 0.39999197125992747 -0.3083479633521242
I -3.5283746146122628 1.4628617611766768 1.5927035684503361
I -0.6000191793471854 2.5251691485200385 -0.05665546682650787
O -0.7300692284545092 0.02330699733754585 -2.945931730241821
C -1.2059686547347983 0.08007635993572823 -1.9026158588374147
O 1.1711055167047402 -0.519678097866703 -0.7741572393745668
C 1.4866268360840165 -0.5958810593553765 0.3616551864373372
