18
## STRUCTURE-ID: 645bb34a64c2742d570fad28 ; CHARGE = -1; SPIN = 1
I -1.8207557339955407 0.1351821790957889 1.2345487125634447
C -1.8598889540446122 -1.9104241499835877 -1.3733727472703656
H -1.5276143738850525 -2.5139254852834014 -2.222068872146111
H -2.9194964356871185 -1.6610688561831484 -1.523177168539309
H -1.7877619977487056 -2.5337623572718835 -0.47903797456213987
O 1.2602775043675007 -1.054988277227394 0.2595043224431785
C 1.0347527545349682 2.462498652330564 3.0730440106602672
H 0.16853203736022937 1.852903940751105 3.2943515128850858
H 1.2604062618414584 2.4343413015758184 2.0153681998039628
H 0.8905852432693324 3.481449071832686 3.404469641681583
H 2.103491563003719 -1.526067111116361 0.43015491263126165
Rh -0.8186713226402818 -0.10661120973078914 -1.1622746580434784
I 0.3495183402493293 2.332553719995824 -1.1300807772443389
I 2.7042727497344767 1.6534408682394248 4.128063489698655
O 1.401983239533884 -1.7732812275635206 -1.8559649525887794
C 0.8326440590830301 -1.1550218113625175 -0.9894930451656653
O -0.6260075184782128 -0.028773373695868826 -4.124934041041997
C -0.6462674164982555 -0.08844587440268467 -2.9791005657651923
