20
## STRUCTURE-ID: 645bd15ed07e48080932eba4 ; CHARGE = -1; SPIN = 1
C -2.3491803235256565 0.2098937826311569 -1.5621814168946266
O -2.896833187147868 0.31769693338042937 -2.5885164648941843
I -0.6936903832710464 1.3778213488080244 2.3709365515762606
C 3.0719834821736276 0.47969531790995057 1.6016373250438398
H 2.325552694392286 0.15972135492283335 2.331981385339363
H 3.6730634790751204 1.2791922341003448 2.0310239747435745
H 3.676081884118162 -0.3901373310135854 1.3493754114904888
O -0.1352692970481309 2.290626347215905 -1.5304822040715362
C -1.5211901970124087 -3.5798011199042428 -0.23949073297862555
H -0.544347697310644 -3.3140121011118877 -0.6320861319769696
H -2.2620157326582233 -3.6234347204168835 -1.0289036852135258
H -1.4830286070870853 -4.503484796865042 0.32535898447648504
H -0.04725922435385567 3.189018456880837 -1.901417371348446
Rh -1.4943890221657032 0.3985600693045465 0.040516200553591036
I 1.3254954191554666 -0.6690865196105507 -0.6617987629555451
I -2.1098982300283557 -2.0016982875547518 1.1401708328067564
O -1.978810144837522 3.1675061247884995 -0.6442122213550969
C -1.2500250059501934 2.179907885597975 -0.7436191087406128
O 2.312329582181389 2.0521415698153835 -0.07180621589388188
C 2.3814305113006267 0.9798734511210695 0.4135136502927069
