20
## STRUCTURE-ID: 645be6e86d2227024a554ef8 ; CHARGE = -1; SPIN = 1
C -1.2960061470800104 1.2127078924447732 0.32986683674000095
O -2.317188823374092 1.2464313397563902 0.8320497862439302
I 0.7071610807969725 3.3536285038276934 1.6579093897879549
C 0.24685114091350388 -0.276816769925747 -1.6726875551217517
H 0.35259789252658363 -1.278702399217658 -1.2578151412422611
H 0.96245687407269 -0.17285632999536935 -2.4878992832962377
H -0.7611253627221902 -0.17954329936644656 -2.0831024829372105
O 3.040085404043673 0.02725847451281398 -1.0885470372369725
C -2.803789720552222 -2.5951702773725405 2.018488635887016
H -3.4314801872289586 -3.4379587948707204 2.274324379095879
H -3.125030907248293 -1.695625112606579 2.5270709006756187
H -1.7609270428000343 -2.794747403545382 2.230554489243294
H 4.015798963782312 -0.034245598939249465 -1.044607362923599
Rh 0.5657794514439788 1.178381422264478 -0.1423112349217674
I 0.7490059379414467 -0.6717505380891446 1.7737378126241057
I -2.996203976647957 -2.259588701504163 -0.09143821419578015
O 3.3774299681633817 1.734262414683903 0.27298553365956535
C 2.5741870534952818 1.0265464113110798 -0.3149238952121156
O 1.0807498163706013 3.2024717872740665 -2.2615375450895088
C 0.8196485841033309 2.4153169793578217 -1.4721180117802144
