23
## STRUCTURE-ID: 645be7da22dfb93233507c5a ; CHARGE = -1; SPIN = 1
C -2.8199773597791684 0.7928000820196169 1.1310236215183211
O -3.6954483883655938 1.3634850358953872 1.6336878743919785
H 1.2571442164400484 -2.040990447297813 -1.2968577241899648
I 0.9888430716632653 -0.4607068792624672 -0.587663688680303
O 0.7238582565686311 -0.3612757915595189 2.309771773651198
C 2.8846083711839796 -0.8884539261846836 0.280084262776441
H 2.7600272333072606 -1.692301007582808 0.9953873020364364
H 3.1981236684912644 0.0224541674564184 0.7714595611086755
H 3.5490592692308485 -1.1659120412393131 -0.5315761242080896
H 0.6098953024654008 -0.7802545543979624 3.176432926760769
O -0.6216467820630994 2.7950768357888136 1.172684540897384
C -0.8417701433613225 -0.7721180968905588 -3.4400410715383067
H -0.8936471849599471 -1.5758139197707202 -2.711342258686091
H 0.18824249364565246 -0.513097730588095 -3.6562857328079392
H -1.4020866346640266 -1.0157426047032856 -4.334646563091985
H -0.2729822144085288 3.3097996311253604 0.42860481190579597
Rh -1.3622124922635133 -0.061448545155004086 0.4381971067616401
I -2.3001250674425373 -2.4902686459384555 -0.08788606777220644
I -1.780203311067089 0.9760233058251991 -2.552797702039989
O 1.0564094421695915 1.461246705698296 0.3410005462691465
C -0.10226293213592026 1.4887796622702345 1.042054113362956
O -0.8967365559841013 0.9287097893705637 3.2586257399152023
C -0.22711225867107354 0.6800089751207902 2.2200827516589383
