20
## STRUCTURE-ID: 645be09238737145360fad1d ; CHARGE = -1; SPIN = 1
C -3.2038184687836315 -1.0043746642346252 0.00819365842073892
O -4.252861107421589 -1.2717232481312462 0.387907206445952
I -2.893007737921234 1.6339391665414893 -1.6234073277460535
C 0.10348051223479923 -0.06506504848952434 2.093688218065761
H -0.5805395906094377 -0.381391902224612 2.8819175215583805
H 0.8333786419383287 0.6139056525677997 2.536995267814821
H 0.6178362120857949 -0.9293634959958798 1.6841251259617835
O 2.3439512626709447 2.2066545543109832 -1.8964648697159432
C 2.1912434015553393 0.004680678790214189 -0.3607118393068435
H 2.9059833523428886 0.1371445008682519 -1.1622906627747986
H 1.7934238094165806 -1.0037924173567485 -0.3608700153795222
H 2.6312112487801005 0.27076428699927846 0.5918298388954334
H 2.132192370624981 3.022300986894465 -2.352036201693468
Rh -1.5552237421485955 -0.46534820640552244 -0.6759923944766694
I -0.5776692902969633 -1.3789791977294334 -3.2189406343744467
I 0.5998924293116351 1.3689472261932363 -0.7973750900221254
O -1.466802309486912 1.5972398883402499 1.4321362130553656
C -0.6801238138652244 0.7340698158876217 1.0728233569511338
O -0.22427113038623808 -3.0514278101948467 -0.010354983504594892
C -0.7182760500415741 -2.0381807666311413 -0.2311723881748955
