15
## STRUCTURE-ID: 645be9ca1d7f8355be5d4923 ; CHARGE = -1; SPIN = 1
C -2.3496966591389548 -1.8625206580270455 -0.9794219891166747
O -3.4121614396754825 -2.160957472717371 -1.3081599000805577
I -0.2080267192053013 -0.3444144431696857 -2.8908876949072466
C -0.19718701151292062 1.8595139018204103 0.36175545186359415
H -0.8043407323563109 2.139975077618368 1.2275653798204262
H -0.5601737560431898 0.837884935271824 0.036934461301920796
H -0.3954824282959811 2.5369840966550856 -0.47372110791869504
O 1.200041223178363 -0.731717578060812 0.13801857926136302
Rh -0.6684017623946689 -1.4436790463033178 -0.47259426401843996
I 0.3035983724470002 -4.020520604382914 -0.7747747013519859
I -1.4475358258890014 -1.3977900668620766 2.1076799206276755
O 3.1964680283319318 0.19195745901365477 0.7783010721643484
C 2.09289086225189 -0.04576382200696814 0.48195804123446584
O 2.0768549506146345 2.5402948377115235 1.0659763698366467
C 1.1731528976879773 1.9007533834389394 0.701370381283281
