13
## STRUCTURE-ID: 645bb69b87a0d66e4460069d ; CHARGE = -1; SPIN = 1
I -2.8460712030373125 0.5273732084519267 0.36787123710443365
O 1.1426177411472338 3.050810243150568 -0.22378416420764538
C 1.4277217706234568 0.027345773905308988 0.1385015654960431
H 2.4688026660584534 -0.20242709263532338 -0.09187010781845314
H 1.3518726368284133 0.5493480728298069 1.0900644509216006
H 0.3776000294151327 3.6291608893564185 -0.15240829105840706
Rh -0.08269087981723607 -1.2114266523971065 -0.480724009276931
I 0.789209417625326 -1.097699805533576 -2.9852999017794035
I 0.751022420725698 1.414075984582646 -1.3376136300177606
O -0.616756866939084 -1.4517373347560725 2.513741022254723
C -0.7837559427618354 -1.4648383483418688 1.318880795028637
O -2.0920515770690913 -2.243079102410774 -0.5737874312288782
C -1.8875202127991482 -1.5269058362019514 0.41642846458204635
