10
## STRUCTURE-ID: 645bb95981d3c865f46df39a ; CHARGE = -1; SPIN = 1
I 0.34267495544683796 2.6459922945153274 -0.8482659337818232
C -1.7010732155937422 -0.27686320811062887 -0.3819562308342961
H -2.7223906010897583 -0.37505316494270635 -0.6882659682321809
H -1.5072450571630172 0.3766918027013998 0.5161304179577382
Rh 0.3992057040265611 0.39020805640101064 0.4951816399847771
I 0.3207816139534922 -1.491810278757122 2.3284904973429184
O -0.0074633609179432705 -1.4547679390365242 -1.7441500090074646
C -0.6745637413878741 -0.8116211128501429 -0.9940928524589274
O 3.350139745111723 0.5149933040328318 0.6834966568241142
C 2.1999339576137205 0.48223024604655257 0.6334317822051464
