20
## STRUCTURE-ID: 645be748be55dd28ac315fc1 ; CHARGE = -1; SPIN = 1
C -1.2547840672628903 2.785864080529072 0.30193629922234483
O -1.5190967117349472 3.2861882544944265 1.3034710749605687
I 1.5944595032025755 3.6665821432201176 -1.397491751193642
C -1.0537426221469628 1.7517976891723526 -2.5165805795205944
H -0.4584278503613075 1.1599661379825363 -3.2201111002814864
H -1.1334385117271175 2.779494825153332 -2.875221674911843
H -2.052595224292874 1.3215151158838712 -2.423291111373865
O 3.2785447377077483 -0.10425324062451803 0.45054342980017936
C -1.667632029344777 -4.012449043778698 2.222436413967238
H -1.8972438119970512 -5.044825258660273 1.996975534820123
H -1.7631710727873264 -3.381510698573262 1.347230835345635
H -2.279088373227168 -3.6377486904411835 3.031736438422316
H 3.6301321935082327 -0.08125329456377665 1.3654313633794637
Rh -0.04287353305456538 1.6962379866699713 -0.7040342993475046
I -1.0989100568065002 -0.6155783856907043 -0.04146741500681053
I 0.3758610104062743 -3.9252389428514536 2.8628264052004564
O 1.625587437743936 1.218007576280257 1.1739555800636319
C 2.179674812850435 0.5774294256238074 0.28454209183315704
O 2.011506913445494 -0.01667362054403865 -2.0513486573458826
C 1.525237255878823 0.5764479407181509 -1.1115388780334734
