20
## STRUCTURE-ID: 645bdf81732a4b00bc554eed ; CHARGE = -1; SPIN = 1
C -2.2286812058103664 0.754647239620513 1.92662879555344
O -2.7486417277971733 0.7393893837818902 2.9543948225145753
I -1.8014864245429063 -1.81811225272839 -0.2946067736305907
C 1.37681195889488 -2.803801830361714 1.4355883615873297
H 1.6490814232471362 -2.9607146016342054 0.3954080153367084
H 0.5388668918777276 -3.4453112005078874 1.7046189992340746
H 2.2160616803172672 -3.0584678623106925 2.0817665261548237
O -1.8384268404300235 2.7330222542963813 -3.145033192696253
C 0.38107721787216536 1.3704173162636928 -2.314199070548989
H 0.555589790020412 0.3030378644915093 -2.3963482745231026
H 1.162472499081309 1.8417986765628547 -1.727741199927546
H 0.26424462020053024 1.836725432146452 -3.2840989717210505
H -2.710605949442222 3.137365643609761 -3.1474779685460947
Rh -0.7137238955833246 0.2993155858902473 0.854946449593609
I 0.6102756867931222 2.4838793735461113 1.5832740860257861
I -1.4706463966421224 1.677608506410424 -1.328811709710052
O 1.986680855687554 -0.3308139227976727 -0.29410085150601517
C 1.0801672305240406 -0.44449135994202754 0.5077475836465133
O 0.6426245159668711 -0.9553009791329161 2.792189063458461
C 1.0482580697651223 -1.3601932672043158 1.6958553097043847
