15
## STRUCTURE-ID: 645be8e29f2638065c6006a3 ; CHARGE = -1; SPIN = 1
C -1.5857423654960545 -0.6074429428601641 1.0271918554700998
O -2.3824917061960593 -0.531433997528679 1.8467744716124228
I -1.6103686672569846 -1.1944865172836645 -2.3135444736330326
C 0.1432876460375967 1.8954497756316746 -1.4605477552619892
H -0.8607368759263618 2.058160781009423 -1.859944759570825
H 0.7003891940494478 1.299625240367906 -2.1815960607808824
H 0.6250708518685035 2.862216621479658 -1.3177849227036778
O 0.8796108356984884 -2.193038786441079 2.0576637185448265
Rh -0.14388404582857134 -0.7837069350384064 -0.10937150860725742
I 2.2509252081173865 -1.2058963594215109 -1.1024307488205136
I -0.021350649240358118 -3.6891756584110826 0.6862217274959258
O 1.3001070915634836 -0.0369440349914373 2.271904249978508
C 0.8307174385774462 -0.9722469780099797 1.6549588799187132
O -0.11552706027435578 1.8507514485952952 0.9149712814617204
C -0.010006895693595001 1.2481683429020471 -0.11446595510402473
