23
## STRUCTURE-ID: 645bce38c258297ca936ef44 ; CHARGE = -1; SPIN = 1
C -3.3714532884606307 0.18373614348625425 0.9693843821001259
O -3.8960124655032247 0.14578135852270677 2.0103202941742166
H 1.0422793407134971 -2.3054236800121997 0.16915782925513342
I 1.211238686680042 -0.736394810389788 -0.10319608723817673
O 0.14364019419325658 -1.0632496015104178 2.652790250452717
C 3.302373973261161 -1.561625152037837 -0.762002649453161
H 3.7230243640553153 -2.079487238223023 0.08842702931983823
H 3.911742301649013 -0.7149636764885818 -1.0444772798003186
H 3.1417151228559925 -2.2278948460430996 -1.5979014913520175
H 0.35009109107812514 -1.0272546459624778 3.6068856806277134
O -1.7511762852493458 2.5657528953723725 0.8256226237419724
C 0.11295103180026182 0.9911882035884272 -3.032270900788677
H 0.7673500121157695 0.22579256942789877 -3.4344107166684923
H 0.5649004415195369 1.4726151537746541 -2.169541435210387
H -0.16946865090223545 1.7141624474304018 -3.78820564284366
H -1.3604180036700093 3.46219603209076 0.8468786111506972
Rh -1.4216200189757207 -0.21859861329627778 0.4317771730285391
I -1.9635158546960327 -2.8770462816752724 0.4456878727044811
I -1.7062564333397359 0.01058104515746922 -2.3499731792696297
O 0.3203873315680202 2.036123723878903 0.2289351800371399
C -0.820430657123242 1.6414386928066922 0.4880733281564649
O -1.285913032863997 0.5421271447212117 3.204935066935681
C -0.8454292007058765 -0.17955686461877607 2.3131040609398124
