15
## STRUCTURE-ID: 645be9c91d7f8355be5d4914 ; CHARGE = -1; SPIN = 1
C -2.322361518374462 -1.6744462625020387 -0.9310664754516702
O -3.39889579751183 -1.8773547188152082 -1.2400798903276447
I -0.0068865853947478435 -0.5870044229555038 -2.9100817337134677
C -0.23253719653976132 1.7308629578435848 0.326279128816028
H -0.7802639379705527 2.0683761992884144 1.2061142795672066
H -0.6753150875853176 0.7632239586844786 -0.012090232450995383
H -0.36352728113408744 2.463497552050057 -0.4699670897296658
O 1.3138366768750498 -0.7679686867661478 0.1477672896178488
Rh -0.5998673592743461 -1.3140599819761225 -0.432956314337352
I 0.059053426663094516 -3.823992284438666 -0.804183357202944
I -1.2358036196579474 -1.6613975727112646 2.1136773008323937
O 3.1664724654784635 0.24636957027570844 0.7821652428643613
C 1.972933305253268 0.2437315259658985 0.5170775089005514
O 1.8777896450354663 2.5661497992586506 1.045830768730284
C 1.225372864137709 1.6240123667981554 0.6615135738850382
