15
## STRUCTURE-ID: 645bc6dba2f66e3fcc554ee4 ; CHARGE = -1; SPIN = 3
C -2.3407695373244515 -1.000218461299725 -0.1681708781462915
O -2.79226848695984 -2.005182244527778 -0.5639618206774646
I 2.29572297867885 0.12492603112762203 2.637860167166872
O 0.6923631778301245 -1.2480770127683236 -2.363238235914273
C 1.045093510102887 1.8611881419460965 2.41941698784871
H 1.3503190073139273 2.3854695191619557 1.5187280042243487
H 1.1706333294280886 2.4704769202041827 3.307191273629553
H 0.764136137324372 -1.5401024463581081 -3.2963122092164165
Rh -0.7082540711549324 0.09328273214903518 -0.26259119841472617
I 0.29083208432053326 2.321688098844119 -1.3346024039838797
I -1.1382436309384953 1.4854216403565301 2.2354119244830555
O -1.3646891035076705 -0.6145085525923456 -2.946525686318679
C -0.497503803380634 -0.6961766780992154 -2.091268835750432
O 0.7931275299000224 -2.3730851614075106 0.4242472400997265
C 0.4395008783672361 -1.2651025267365403 0.4838156709698969
