23
## STRUCTURE-ID: 645bd45959b0d70c1532ebbb ; CHARGE = -1; SPIN = 1
C -2.308625422268463 -1.5105327925899306 0.03923728500969404
O -3.070248616399736 -2.286771125941608 -0.3866261512255871
H -2.7089480505312955 2.1865723612243415 1.545660982976466
I -1.9124857821722543 3.469683573347318 -1.3914978386446843
O 1.2869625318253104 -0.7491708852146308 2.620480409104161
C -0.20023265059543105 4.289612872796153 -0.37149006728340894
H -0.5094345854305586 4.526851670395403 0.6389778183932247
H 0.11570115548184522 5.162859948181782 -0.9261512722187167
H 0.5461119308115722 3.5053339168404394 -0.3948670890488877
H 2.223338609060551 -0.7766421635267227 2.8970308281112342
O -0.2322254391815842 -3.4112827634494756 1.5944893079632299
C 1.1665902564692139 -0.8324474034456436 -2.404222769450145
H 1.5466516344806769 -0.6599984831132611 -3.40324348459431
H 0.5912804484500043 -1.7493739850856966 -2.3628648751475927
H 1.9746637430523424 -0.890224780663379 -1.686392466958903
H 0.047740798207394054 -4.3394061980972305 1.4610355074732115
Rh -0.7151591918679716 -0.7837588334648845 0.6261322733020569
I -1.3615540076734245 1.4261463396885417 1.9912234453455573
I -0.09041140888872305 0.7340633369503506 -1.8410625765945394
O 0.32127935683756587 -3.2981995947776377 -0.5479625860353389
C -0.11125466730474505 -2.6827957676728724 0.437161855896547
O 2.2353963764100353 -0.6509388772819467 0.616597305942933
C 1.1648629812276678 -0.6795803650994061 1.2483541576838086
