19
## STRUCTURE-ID: 645bece43f1347728952ff5e ; CHARGE = 0; SPIN = 1
C -1.3881098388927742 -2.0428311171334332 3.704100248952318
O -1.9681230705463113 -2.6499721895229884 4.508697924513527
H -0.4998985540349604 1.9263562932394778 -5.078993481079269
I -0.2578137484279467 0.6502886159839973 -1.9980141396001807
O 0.07334486407663245 2.620565005319448 -4.6623181415843415
C -0.4413471331385314 3.05026077918571 -3.453821124530871
H 0.21294286701951087 3.7049635656542654 -2.8922195788499816
H -1.5102311130181891 3.2224332323607046 -3.4558778757188966
H 1.0212318287520812 2.344498098125569 -4.573748647632809
C -0.005514062480462218 -1.2406855702942832 -1.1924708303885068
H 0.9929193344949613 -1.3203480728476975 -0.7789598604937124
H -0.205066377400933 -1.9802162932284852 -1.959567863812998
Rh -0.24466152871443023 -1.0796326049102491 2.642152859443284
I 1.439207357912751 0.507317228334731 1.5550250660509894
I -1.511383195483904 -1.3609181733205409 0.37768439841520574
O 0.48899117711696083 -0.39257877905949234 5.550798510405498
C 0.6765425891703796 -1.0179096535217762 4.489654865635371
O 1.8923756251349255 -2.8922198754490682 3.308993510093241
C 1.2345929784602365 -2.0493704889158937 3.9088841601821036
