15
## STRUCTURE-ID: 645bc51ea2681a07a839f2ab ; CHARGE = -1; SPIN = 3
C -3.0305136194803657 -0.5239253877535693 0.19426537173349648
O -4.097442607022886 -0.5951863293192132 -0.21004287485353995
I -0.8542336460775298 -2.084376226896643 -1.427039438714079
O 1.2845763631977762 1.119418275460001 1.5290357870477074
C 2.063995651396954 0.326463076811585 -2.646970325143131
H 2.9888101528046147 0.4599427818498287 -2.122702981572945
H 1.750223863303648 -0.6502595660870261 -2.9589928515347994
H 0.6042239639722655 1.7336328990509975 1.8649870361772574
Rh -1.1844633956419828 -0.2820163820612618 0.6219495708957047
I -1.8640435354408011 2.3251975404577774 1.011538754459655
I 0.5734376162754561 1.6653817152446586 -2.2105646657639246
O 1.638015271277964 -0.6610504533024997 0.3117660635854859
C 0.8037553033742459 0.05939173001335436 0.8295568793244475
O -0.06620081428914924 -1.724094544922379 3.031166533611443
C -0.6101405676502131 -1.1685191285456376 2.1820471407471214
