15
## STRUCTURE-ID: 645be0ca724bee36383adfc4 ; CHARGE = -1; SPIN = 1
C -2.486575869218076 0.6595058707594883 0.359786615667506
O -3.6097125420006124 0.632399061314899 0.5640570132286776
I 0.3135589187442076 -1.5941878209373037 4.154075212296961
O 0.07516751337381197 -2.497382725451213 -0.13761454784950317
C 1.3295837827289603 1.5956785631259778 0.11492736695615308
H 2.028085622065609 1.1936645481265769 -0.6177862389846124
H 1.5792378359611259 2.623864704555116 0.37708348676128545
H 0.7133268409391668 -3.2041619796152196 0.10158163534244596
Rh -0.6488546800047447 1.0488582371155386 0.04373744921602362
I -1.1934534135846848 3.1034473595643197 -1.5096856506418888
I 1.100209527327117 0.3412809272654467 1.8148101317851608
O -1.0979624714076641 -0.5706056543041996 -2.1972290401419072
C -0.4731841230362205 -0.469160671071313 -1.1824707776446988
O 1.76342138173093 -1.372550172678755 -1.1027901257771227
C 0.6071516763810763 -1.4906502477693466 -0.7824825302144981
