13
## STRUCTURE-ID: 645bb894345d0424853adfc4 ; CHARGE = -1; SPIN = 1
I -1.3703672993090006 -0.6716449486018715 -2.7457967694365295
C -1.7054433219147773 0.2321091695267703 0.47478716357157197
H -2.499035812997177 -0.5217377339853995 0.5032753237354871
H -2.0686904853883656 1.121836833521935 -0.04732065447069367
H -1.4222396374097992 0.5006768645947434 1.4963609037318357
O 0.41847193794862847 -1.7123540323385529 1.0865446647675783
Rh -0.08423165908802852 -0.5807545286811107 -0.5008172312817579
I 2.487552479485754 -1.3089922114654988 -1.5661510014584463
I 0.5176739467389131 -1.2876335913942876 2.9776681313974804
O 1.4537357977035168 1.1663141977130629 1.2852646947888104
C 1.161611109439457 0.7059628242471219 0.220426489139279
O 1.5437892127153205 1.5737778441340018 -2.042991569060476
C 1.5671737320755477 0.7824393127290666 -1.1412501454241222
