15
## STRUCTURE-ID: 645bd5e49a8e615ae536ef53 ; CHARGE = 0; SPIN = 1
C -3.275882139100648 0.5383103140609399 0.7343611577823691
O -4.414845658408601 0.6415454799595837 0.769240765097623
I -1.7883101917283648 -2.241012226759071 0.38104638453440715
C 2.9639338625093528 -0.9904340222934073 -0.11470654516488997
H 3.7109955666471524 -0.41006405521522327 0.42868446422310974
H 3.1993313570444766 -1.0344918201225917 -1.179056338139353
H 2.9810375447073763 -1.9947766119201822 0.3164645641385214
H -1.462974760211228 -0.5273286591208836 -3.061676375879486
Rh -1.451800747073724 0.3081948895661934 0.7252241332496935
I -1.7095851062849399 0.9689852392407934 -2.6337686056082585
I 1.0332712611290045 -0.13790205454936105 2.2514976653407226
O 0.7896263417313997 -0.06907489357985946 -0.6643766447784571
C 1.6477799797214836 -0.41807969769369113 0.06291786203128721
O -1.026319863052697 3.2464063241621424 1.048229877490005
C -1.1962574476300512 2.1197217942646045 0.9359176356826969
