13
## STRUCTURE-ID: 645bb6b9214f805c04099df3 ; CHARGE = -1; SPIN = 1
I -2.6080338386944524 2.8431180177615607 0.4209510596700595
O 0.758742472942621 2.980764048063995 -0.17593605804789295
C 1.3213548684692769 0.13509891912215635 -0.22351870168276267
H 2.135106371181645 -0.18781951557308948 -0.8715245637884368
H 1.6584696316718717 0.6722978030620327 0.656465904018782
H 0.03464779541211852 3.4520550382612485 0.25804629351132413
Rh -0.3907409448481012 -0.9652129723726579 -0.3774031733270036
I -0.6570369809091994 -0.9281101579675631 -3.0109255113640834
I 0.051178364886690135 1.5266669613417725 -1.2605138185716334
O -1.8792029381799762 -1.4798893689233261 2.002487833406146
C -0.9556561638680375 -1.812474055989987 1.3026020604172606
O 0.6093705866755037 -3.615962149919883 0.6498634361806849
C -0.07819922473998066 -2.6205325668662636 0.6294052395775299
