21
## STRUCTURE-ID: 645beb7b0fe7a37517732d54 ; CHARGE = 0; SPIN = 1
C -2.054943452177182 -0.1742540963472714 0.35109778916167733
O -3.11006596406947 -0.5242694304582323 0.6077234788775528
H -1.8314993671007862 3.6972313991398553 1.1525667761808895
I -0.7989980177678812 0.8129025572872393 3.148308772732715
C 2.1604831099697885 1.7039898979285122 1.386896695831138
H 3.08795334721207 1.6376188589510972 0.8171066984529622
H 2.382586058399352 2.0780464573383712 2.3875075739989464
H 1.4778996982950252 2.3924967679303153 0.888767180189915
O -0.7577434408307143 -0.07926742713837102 -2.2350259910238304
C -0.907942298396139 -3.3021327827968996 -1.431918714219176
H -1.5462379997397577 -2.4564793562902136 -1.6638470707711366
H -1.472476319979835 -4.113202102648 -0.9869780926937117
H -0.3610862599099348 -3.6381326764740725 -2.30525320389068
H -0.49463459787643593 0.1154654660679584 -3.16105177702361
Rh -0.15369716088032123 0.11675432222243648 0.5826636393950309
I 0.5506261510454764 -2.632771315173167 0.04008958782241752
I -1.2085146370328934 3.4346267911143737 -0.2667647255285944
O 2.1835126752275493 -0.6192204485733339 2.0204225539023923
C 1.6179476975651004 0.3137689556088168 1.527676479925677
O 1.1463881461272962 0.896372880164602 -1.518045903150024
C 0.09044263191969501 0.34045528214598353 -1.341941748170591
