13
## STRUCTURE-ID: 645bb83c9eaf921d316006a3 ; CHARGE = -1; SPIN = 1
I -1.606402943886102 2.4736908108293645 -1.0926925379043104
C -1.5895000282758958 -0.3422661404638274 1.0140776670098413
H -2.320748897860972 0.40651864100835705 1.3306126025051987
H -1.2048752984275817 -0.8406358764344943 1.9109602969424853
H -2.1113983352947705 -1.0896811343789385 0.4060698599178047
O 3.1573747773569303 -0.07139237210387045 -1.893050073075438
Rh -0.004312961022215881 0.5228960036488556 -0.08469438558745214
I -0.200877645100903 2.8858538675627927 1.240522060827997
I 2.1064484242938897 1.4251270780684597 -1.5149163509074064
O 0.15997447940288048 -1.8263035528897698 -1.8694061296641147
C 0.4736077053759723 -1.2270581879351297 -0.8673543961113531
O 1.9727748975607295 -1.2896282036841635 1.1410767104566022
C 1.1679358258780335 -1.0271209332276416 0.27879467559015525
