20
## STRUCTURE-ID: 645be7c00a7b8a6cc36df3a0 ; CHARGE = -1; SPIN = 1
C -1.3065370092710784 0.16314162751644834 -2.452738442000619
O -2.027146137915902 -0.055693132394075605 -3.3079507668017447
I -0.7381241923771031 -4.911062202703852 0.7492806766412998
C 2.051641344605361 -0.37218827964584433 -0.32300299340134775
H 2.0121546113454545 -0.1581172029137733 0.7498898084556378
H 2.926727649311205 0.15040839996267547 -0.7162890486819535
H 2.2391567808543194 -1.4521135286849978 -0.4463324767561379
O -1.6549061058732852 2.6301755439648935 0.9604856453237403
C 0.1992268642761532 -1.6511467693539503 2.283331169470866
H 0.5384071108209024 -0.7011585175176118 2.680406087729614
H 1.020557348741821 -2.274189284859137 1.9475313692364988
H -0.4107444930863371 -2.1900578591242374 3.0002535224471325
H -2.585677250826983 2.8289265330775386 1.1991085149018874
Rh 0.26928104642758116 0.05923851872309883 -1.3109795695364266
I 1.6440983326637724 0.6762770251789193 -3.461880143415613
I -1.0665394893765856 -1.251638360449135 0.5783743467875719
O -2.411384820659221 1.9352881192599798 -1.0289974086207714
C -1.5154507279183074 2.1368863094507544 -0.2419347838451353
O 0.8519047408157792 2.6010596732226112 -0.31908055949956116
C -0.036645602557547126 1.8359633872897125 -0.5394749484349399
