17
## STRUCTURE-ID: 645bc7a290fe7516bc36ef44 ; CHARGE = -1; SPIN = 1
C -1.2883673410005672 -1.769915342762511 1.9088542481328061
O -2.0017687942998084 -2.2076673186454956 2.6978493559384207
Rh -0.08419190692920747 -1.3950788251240716 0.5274555369204937
I 0.5018736971698243 1.1206975282496563 3.4875787653446917
I -2.060515553465516 -1.3833025888196326 -1.2236747027865071
O 2.5178509316660973 -2.023280048531972 1.8687975547527487
C 1.4835878122668409 -1.7742659847034878 1.4259607720682583
O 1.7016890123260742 -2.2679854246091904 -1.6251389397990734
C 1.188077664093086 -1.3357927703910588 -1.0100480817498598
H -1.4718716532874903 1.8770210310631705 1.207661313106171
I -0.05864613748945528 1.5925685311871585 0.5186257211195406
O 1.5194767786826744 -0.06684415127407525 -1.4291083189421963
C -0.9253597483354038 2.344899126749608 -1.3213486122560298
H -0.1334142580114089 2.38268629971324 -2.0580265694624793
H -1.3202269284821126 3.3360345190265583 -1.133590208214545
H -1.7002355452245173 1.6625089270211335 -1.6514441669030195
H 2.1320419703208837 -0.09228350814903238 -2.190403667269416
