20
## STRUCTURE-ID: 645bde2bb5058078356df3a0 ; CHARGE = -1; SPIN = 1
C -1.6842775341393348 -0.6221694322601069 0.5483709706731786
O -2.7852885024609715 -0.9477692809394586 0.5577111534446819
I 0.6040046122448792 -2.53076905077727 -0.8083502033066292
C 0.7342410271655155 -2.3631449743712043 2.865949318742681
H -0.3363486969423035 -2.29721212741791 2.685201713369314
H 0.8950955838027568 -2.352642587003973 3.9475372560223305
H 1.1335687148131863 -3.2868212632201628 2.4435316652350485
O -1.7688275428738316 3.703355155370819 -2.7033423516728137
C -0.6794787728097458 1.1487400759705533 -2.89139659492583
H -1.0655997513173092 0.137417770502677 -2.815460177341932
H 0.3850929208772451 1.139545920105368 -3.098689667737912
H -1.2109249332958807 1.7264355368208846 -3.6324616944905594
H -2.077969271604119 4.501883346017064 -2.277478903556205
Rh 0.07375294327791782 -0.08854226764662614 0.2878456761860273
I 0.428707094495004 0.7890298004059338 2.9812101389706385
I -0.985429881003596 2.126428277830949 -1.0170875632165017
O 2.5882878191766268 0.9729602181903271 -0.9513129268863252
C 1.6727393489266984 0.5700241847816376 -0.3829394530935853
O 2.594865455650777 -1.0933845347946096 1.9486137361005098
C 1.4837893660164696 -1.2333647675649035 2.3125479074838973
