20
## STRUCTURE-ID: 645bd15fd07e48080932ebaa ; CHARGE = -1; SPIN = 1
C -0.521835922954276 0.0912221410069088 -1.668999053986569
O -1.0599907951016392 0.318912843330336 -2.6910209981799906
I -0.8918017458391615 1.7638980666592734 2.5527785521620543
C 2.1419850767880138 0.25919046310397426 1.1874473575095748
H 1.5720271231647138 -0.5401830878990426 1.6620356048611793
H 2.3961908202808933 1.0025252273566256 1.944623294928201
H 3.0612781711084547 -0.14343933802292794 0.7640856501810961
O -0.2021760022583909 3.4311321293893795 -0.6512757768529652
C -1.2750471464057764 -3.6078519013001316 0.26381203684155613
H -0.22346317743545657 -3.850111241328588 0.16089299710297922
H -1.7377211625708973 -3.489702399281862 -0.7087342296062134
H -1.7971391250317723 -4.343538398325901 0.8631659236261492
H -0.6151802682008111 4.2537228537765595 -0.9840488043779488
Rh -0.5704816091623949 0.685555943311473 0.1560997544815189
I 1.1071767592532717 -1.6712106457183453 -1.9675021956077048
I -1.4168767079125362 -1.7044731754993527 1.310284329917934
O -2.226488186285023 2.5174138809329873 -0.9283242334473265
C -1.0558961984265909 2.4204475810510964 -0.5881750914352076
O 1.9237093783477273 1.630221945838471 -0.7660140522797023
C 1.3917307186415875 0.9762671116191615 0.08886893416142824
