15
## STRUCTURE-ID: 645bdfb1b0d52b6908108f18 ; CHARGE = 0; SPIN = 1
C -2.1589664664669854 0.46487495883781405 1.0767327015727
O -2.8926075737478802 1.1420270051804287 1.6177995826127867
I 0.3250754081270979 -0.5774806571242624 2.5760702284892005
C 0.49231362112411803 1.7889794530760448 -0.1874608638383906
H 0.7118194448101227 2.458510264811935 -1.0223385868641384
H 1.4137888307193778 1.6665456786804576 0.3949869391477322
H -0.25980105354336674 2.2234417882831536 0.467373855068225
H 3.934874406241484 -1.8347121458500846 0.7406884966767721
Rh -1.0486831899927667 -0.8509116824979474 0.3627306070226267
I 3.8066745964897457 -0.6822507372782599 -0.31181641508966446
I -0.10424583982782233 -3.264421185858339 -0.1440616000395337
O 0.5204708973013346 -0.05354355709059317 -1.737299969349113
C 0.15309104001242838 0.4717547834435029 -0.7492830706631575
O -2.76851831655048 -1.6559613351620532 -1.9736816818038885
C -2.1252858046964094 -1.296852631451788 -1.1104402229421568
