12
## STRUCTURE-ID: 645bb37632927a78cc7e8a93 ; CHARGE = -1; SPIN = 1
Rh -0.27694765197839993 0.6516759922301683 0.4017748801310838
I -1.7845385008072143 1.9868307141959771 -1.231595316982153
I 0.7760525138355676 1.8059660199579495 2.4740881822242184
O -2.3282002510587403 -0.7961316886424139 1.4954937011826035
C -1.4007517988771525 -1.1630729893393645 0.8037527396414276
O -0.8464003205189912 -1.5347346177186212 -1.5562029091030318
C -0.9429283441724612 -0.9297212539879466 -0.5314200698211684
I 0.17551455008385541 -2.4779020016512656 1.7182656675809247
C 1.43351853109431 0.6182166393123922 -0.7574239609372937
H 1.2232045455170462 0.22821656811367913 -1.7548377669230053
H 2.148092819047617 -0.026405074130947056 -0.233353517859952
H 1.8233839078345764 1.637061691660389 -0.8285416291336544
