15
## STRUCTURE-ID: 645bd5c83935c029e16006ab ; CHARGE = 0; SPIN = 1
C -3.2477699856821522 0.6059134373728946 0.4640457243075346
O -4.366830695163751 0.7003625016413542 0.6796799066781227
I -1.8778444481608743 -2.176004933966259 -0.10227104022174924
C 2.7964426171074197 -0.9024549539562398 0.24143045965071025
H 3.5652357089133617 -0.37321822390716913 0.8046192550389855
H 2.9603657958595044 -0.797480773340348 -0.8308780222192895
H 2.8673718762343428 -1.9549036348303528 0.525990690289374
H -1.0455342950894733 -0.8109824585967373 -3.3985505260540165
Rh -1.4633707491164165 0.3886889205515616 0.11853537799904044
I -1.1844967468438523 0.7271210904842823 -3.0726183116749017
I 0.9785419859458797 -0.39170562458961106 2.7169425919297026
O 0.6131974172347795 -0.012267350474279504 -0.1571322015500817
C 1.4663511778506744 -0.4025381296067511 0.5898185139292191
O -0.9309969762634496 3.2403241752619993 0.8681452246025503
C -1.1306626828259947 2.159145957955662 0.5522423572947869
