10
## STRUCTURE-ID: 645bd08181ec7c25a732eba4 ; CHARGE = -1; SPIN = 1
C -0.4004074620309515 -1.7842425579119978 0.2968163423664291
O -0.5654921004632801 -2.9049561351658326 0.13814856564983177
O -0.04752602294536944 -0.4286240576624786 -3.4167213283384044
Rh -0.008712430263935074 0.0449746316050455 0.3334898468544637
I 2.501387051359077 -0.2936033772023943 1.4506145861659563
I 1.1963947180755143 -0.4755814023565157 -2.016692170337826
O 0.5323186858676099 2.8659224559225702 -0.5612755318906206
C 0.28831211933279577 1.8303527283031154 -0.14134939304008506
O -2.145168550370967 0.6962379775703619 2.35200254612165
C -1.3511060085604953 0.449519736898117 1.564966536448613
