20
## STRUCTURE-ID: 645bde2f9f164b40c86ee1d0 ; CHARGE = -1; SPIN = 1
C -1.8157894905556105 -0.12517205888224953 1.1702361741933052
O -2.9017542478796248 -0.27504432719676597 1.5065682279290482
I 0.29911910741378567 -2.27849379464454 -0.5662732866375157
C 0.6843857605104293 -2.6091825229308783 2.5542458200222375
H -0.38700579398823987 -2.4212373372267546 2.5449197826897882
H 1.108085840671938 -2.3168180576223536 3.516574748850189
H 0.8432915643868332 -3.6787866117710144 2.390574849863723
O -1.8023360590270385 3.3970831845736007 -3.164541885519139
C -0.2935709860335914 1.0512570552218046 -2.870767117550171
H -0.6403402926724135 0.024038215527850106 -2.872262729356606
H 0.7853124612389472 1.0991435869721184 -2.772996864437794
H -0.629437669775173 1.5860310681417813 -3.7465010966154635
H -2.3578453821524783 4.1229990835305985 -2.8835924749770054
Rh -0.08049091218675178 0.2738031455522469 0.644850783470865
I 0.4781334358760687 0.9934240420943854 3.214052436938028
I -1.1692118429176097 2.056939586475513 -1.1980105617981582
O 2.4527607642472034 1.5223844496649626 -0.36849362751569825
C 1.5153042453114949 0.9903294176467365 0.03394294437970038
O 2.507756015843524 -1.5119703781150138 1.3722049992094962
C 1.4036334816882987 -1.900727747012038 1.4952688768611613
