21
## STRUCTURE-ID: 645bec81e238e358c2799617 ; CHARGE = 0; SPIN = 1
C -2.1854584094062104 1.4802070396201266 1.2286660918764298
O -2.990568606673729 1.8170982272620517 1.959968851000119
H -0.5313484704554265 4.132533502104953 -1.5334699294261207
I 0.31501523331098846 3.5434775668781877 -0.32516727328028344
C -1.374659507331656 -1.551220685433468 2.0597193462190404
H -1.4952936760101692 -0.8933011891634133 2.918229354100774
H -2.3406487036124917 -1.7847433073088181 1.6149631517543215
H -0.9272469580702968 -2.4905710123949314 2.388314073363965
O 2.0086187324114344 1.2458261902769172 -2.5348687934799177
C 2.6467106942675755 -0.7658455099605388 -0.7160086050190588
H 3.3948957741441075 -0.10332479171055388 -1.1314415395694901
H 2.8352038462171327 -1.801346986561701 -0.9747234620945704
H 2.54255455376941 -0.638795976954717 0.35603011286633973
H 1.7165357625632574 1.5460810245274381 -3.398219460897292
Rh -0.88172661887336 0.9402705355956715 0.0506717512141033
I -2.5480319495449835 0.9685373530673981 -2.0077557488481244
I 0.7967285805900443 -0.2371537943617064 -1.5899757917284778
O 0.41339008192932863 -0.04934138814563893 1.3596423744208042
C -0.4455870898479399 -0.9378454110275268 1.0437425738505752
O -0.7177415374408923 -2.7456812884625097 -0.5284518279265343
C -0.23134173193613644 -1.6748600978472206 -0.2398652483966032
