15
## STRUCTURE-ID: 645bd7b998787d666b36ef44 ; CHARGE = 0; SPIN = 1
C -3.2718954781875027 1.4195369106836007 -0.5900066364409962
O -4.287854410379922 1.9346865992380982 -0.47176242339870383
I -3.1074106863371393 -1.2038256128354494 -2.1726656299138223
C 3.1503733240215657 -0.8147054042416418 0.2979182385695919
H 3.70924698197467 -0.6069569799416216 1.2119623716651806
H 3.7172721791678027 -0.5196629819151455 -0.5865006007599779
H 2.968913874225367 -1.8875025165998294 0.1945230608314686
H -2.341827304659246 -2.545414872222626 1.205965677553817
Rh -1.660768335109409 0.5667007327285178 -0.8449669772782371
I -1.555338374222618 -1.2917196912678848 1.7529834734875573
I 0.6589218965179744 -0.4908269085258869 -1.6670909705997083
O 1.293621893538712 0.5525069469583543 1.0869284111543276
C 1.8923104770854122 -0.11974874837743665 0.3458287509417473
O -0.360664406512199 2.9873280195655583 0.33036328700981754
C -0.8049016311234403 2.019604506753377 -0.09348003282202899
