17
## STRUCTURE-ID: 645bb82af2966071bc6df39a ; CHARGE = 0; SPIN = 3
C -0.8881630152560218 -2.8559020413981027 0.4714231810833
H -1.62168187846422 -2.0952141280805816 0.2025729467352664
H -0.585857055451834 -3.3827296567067315 -0.43414908814198955
H -1.3126653808509672 -3.5805229692472214 1.1598152346680972
O 1.0448916005738127 -3.0301050466813706 1.8016380893912591
C 1.0461609669317076 3.924962737717724 -1.263859775840903
H 0.48190822873178996 3.3514517783429096 -1.9936910287848826
H 1.9272510507741112 4.3707030389004835 -1.7094232929341486
H 0.4227282842629122 4.669568449989051 -0.7838829056803097
H 1.8449040512877142 -2.6117628058067677 2.1744591719910393
Rh -0.18535368026826626 0.6404153435154223 -0.4350076208611585
I 1.7179509207587549 2.5456689246691204 0.2736801294349775
I -0.19567261021967597 -0.35063705610425133 -2.838237898837999
O -2.799702005962175 0.6330388941958839 0.954191412221774
C -1.8573235908836052 1.0363212415698941 0.422926881356042
O 0.6429422956621182 -1.0467058887481695 0.9235542115754176
C 0.3176818183738426 -2.2185508161273004 1.0739903526242132
