15
## STRUCTURE-ID: 645be31ac7e97c47597e8a84 ; CHARGE = -1; SPIN = 1
C -3.2692246273657966 -0.3868729518849157 0.5942433916061854
O -4.286151914883673 -0.86574610303828 0.7849100244312602
I -2.6649263824258473 2.731535145820994 0.374480674491787
C 2.615390953865452 0.4032337171949287 -0.5089533108750234
H 3.2509719110209216 -0.30454277270731794 0.020667728020547067
H 2.864842710117116 1.4375884570460786 -0.28445784957560105
H 2.76298928378883 0.2202935322487847 -1.5765997550949513
O 1.5675668777265535 -2.269770537691698 -0.1154816122920329
Rh -1.6100188873886816 0.31736309097574705 0.2901949277577129
I -1.9541642469477705 0.1436593885535317 -2.351420773500871
I -1.081864894158402 0.3394645969405546 2.9073352693085077
O -0.49490716170098326 -1.4941501524143852 0.17305887739293502
C 0.7531799018736031 -1.363308857653694 -0.03979608066408769
O 0.33949457219767676 0.9777999103018642 -0.06844102150102489
C 1.2068219042810093 0.11345353630781041 -0.1997404895053769
