20
## STRUCTURE-ID: 645bed0e654fb561cb315fb0 ; CHARGE = -1; SPIN = 1
C -2.110509631298765 -0.3971069555064735 1.3452172977568786
O -3.127114958482937 -0.2734318024020708 1.8512909795015282
I 1.9320394577017665 -1.244113577807841 -0.21987282646832648
C 0.8715833421858199 2.1105271875410887 0.8358689265009829
H 0.6235034128039579 3.1514030920869693 1.0383641757119202
H 1.5843092768020197 2.0882950503436124 0.0074654381738307775
H 1.3270365450358639 1.6444673568472996 1.707094576656428
O 0.021378699070943072 -2.0642497381007447 2.7385507662113806
C -0.09108465329736758 -1.4048852495540096 -3.4027159301777927
H 0.27099219726092444 -0.38152754522378557 -3.4077820387745645
H -0.5351790337924697 -1.6660737699830606 -4.354487129742755
H 0.6977382687263182 -2.0921585223762316 -3.120701362620839
H 0.3778189371332424 -2.3120347294236128 3.6179562162365873
Rh -0.44181968774290253 -0.5986061328409877 0.5664762690595252
I -1.6453003654027534 -1.5259693738513187 -1.9094010549239413
I 0.8752883369307872 2.4453585108688727 -3.058669744602502
O -1.3065324499520279 1.896568613170316 -0.16170267026459492
C -0.3592658805915695 1.4155720425365346 0.3805835619491942
O 0.7800528296121901 0.00573466538048023 3.136399648975383
C 0.2550653572969613 -0.7977691217050319 2.41006490084168
