23
## STRUCTURE-ID: 645bce0109c3052132554ef3 ; CHARGE = -1; SPIN = 1
C -3.0904081652562696 -0.7378896111631453 -0.09294340662414328
O -3.724322793628769 0.12068044646272484 0.3783914581897881
H 2.078985377300077 -2.6782892833773313 -0.3948026288185193
I 1.927577091587634 -1.1959338868324143 0.2015244348153159
O 0.46894059894765266 0.7668455274330098 1.8803340891268834
C 4.213609095810506 -1.4774967191384398 0.3279556319813339
H 4.56137124216649 -1.6070995960280061 -0.6915326361694701
H 4.395560816679576 -2.3468192211591843 0.9522173711158068
H 4.613636808556349 -0.5737501242435424 0.7734692454112143
H 0.5639719970220809 1.537865400503033 2.472762555409536
O -0.3204852417019083 2.4288266336996345 -3.2089868245475013
C -1.969628343157617 2.197859908895909 -1.1277057994578537
H -2.836420692522836 2.0736088604110146 -1.7670574016672755
H -1.49038418119163 3.1426995691970174 -1.336718195107263
H -2.2549295086124173 2.12249756250414 -0.08480947478589736
H 0.2847525696949849 2.1774502056082166 -3.9071885086334954
Rh -1.002844924846122 -1.0806173239949148 0.34250695235086576
I -0.6431407259105456 -2.927019812567103 -1.5385308244800882
I -0.6043173865699849 0.6859916022609314 -1.58343311076381
O -1.6977374586083371 1.2563216157174533 1.9583074912234655
C -0.8199881644835855 0.5056239088793305 1.5342815318923897
O -1.4529556690406848 -2.3653707844579195 2.9946108809237644
C -1.2008423422345722 -2.0259848786103274 1.9173471686149277
