21
## STRUCTURE-ID: 645bec83f4ecf452ec554ef8 ; CHARGE = 0; SPIN = 1
C -1.8205872231708629 -1.40948973482951 -1.339440863471045
O -2.228752204799305 -2.5020872903464277 -1.4377318169040645
H -1.7244784976365783 3.0711684979255454 0.45576332208221143
I -2.2471442182704484 1.5610716105662952 0.5374213069739271
C 0.5253227868434115 2.3484587159256103 3.2829058559775492
H -0.20868632790823322 3.1619422644327737 3.1795437960026227
H 1.2836549941745514 2.6437942340158602 4.023670498315181
H 1.033030312219112 2.198454467944029 2.3155269324012826
O 0.8506041159129184 -1.1821618312986626 -3.094538308249949
C 1.291399507818978 -2.448629227846038 -0.14690004986078103
H 1.0067953202706659 -2.417637289401275 -1.1903625227426746
H 0.5890009381616595 -3.0424666561210203 0.42357225868974147
H 2.3041303385597818 -2.810188205105095 -0.03156694094590529
H 1.12802574670082 -1.5159382892316706 -3.9676043910474363
Rh -1.0344187628339843 0.22590762707786313 -1.499397022095432
I 0.13477190208681214 2.410412632056798 -2.3684819668450365
I 1.214223604776993 -0.47121812390965007 0.5913826879394063
O -0.6059617547809505 0.25979198985610447 3.9923672242699535
C -0.09417650585256132 1.197805691348257 3.658627890131179
O -0.9975355454389123 -0.6695328452007469 -4.22901557190154
C -0.39921852683383335 -0.6094582378590542 -3.155742318719242
