15
## STRUCTURE-ID: 645be5275626c24f4e732d40 ; CHARGE = -1; SPIN = 1
C -2.427016746736749 -0.028640574001364074 0.3708130407853443
O -3.5589953647561092 -0.05900808715240029 0.5712777550814602
I -0.9574799621864548 -2.69905863932753 -0.5623407937470988
C 1.7037052134374477 -1.0260438258975872 1.147572194793052
H 0.9548961254773882 -1.4587300780630446 1.814140951932989
H 2.5713599010411166 -0.7120284284627362 1.7306090801961773
H 1.991183457850293 -1.8021291141003404 0.4349722964201176
O -1.5953993889802687 2.8646955545382276 -2.6671926471082155
Rh -0.7011780653350058 -0.07145449800549634 -0.4782696039669919
I -1.1168790349516193 1.0538926558938937 2.4076240733082748
I -1.3795572338987385 2.510674885619683 -0.8460322940949546
O 1.1215661270979531 0.04783450478054692 -2.835115051597326
C 0.5281789705503716 -0.0279772766029974 -1.857020182838446
O 1.66901073870028 1.2438890418752113 0.33472431932727037
C 1.1966052626904795 0.16408387891233198 0.4342368615198881
