15
## STRUCTURE-ID: 645bdf8407379d5f3453af9d ; CHARGE = -1; SPIN = 3
C -2.3946268424771473 -0.10314051140067484 -0.3218004744735172
O -3.2583241046930946 -0.8573431000575721 -0.36441724739724546
I -0.6844394920813845 0.975347966505688 -3.006780326769178
O 0.8727067998606455 -1.5989124883517098 -1.277328932406636
C -0.4955684892992475 0.30066877988041435 1.7056731352178258
H 0.4191514249223182 0.7391169372965779 2.1138930306907318
H -1.3377272190667235 0.6241153692489404 2.319358307014236
H 1.1705208115044274 -2.5245645458642523 -1.3976282266838043
Rh -0.7302144268837031 0.7636621955506098 -0.3400500344747433
I -1.129753984810222 3.3917948603679653 0.3626702542689446
I -0.32162723406481447 -1.823042868133396 2.0629487026156044
O 2.054159370810237 1.5338010147654477 -0.4779320234262566
C 1.2696271940804265 0.6180036984565804 -0.4978905123305434
O 2.8101483333860964 -1.2043990842302779 -0.2133174384341469
C 1.755967858812193 -0.8351082240343345 -0.6673982134112737
