15
## STRUCTURE-ID: 645bd5d3e33e8f5c4e554ef6 ; CHARGE = 0; SPIN = 1
C -3.2860949076994608 0.6042218099910369 0.6280330046441882
O -4.42402492679 0.7236881684483751 0.6282591198096317
I -1.8317167738485844 -2.2020371743044147 0.37303836704085475
C 2.9451547613648095 -1.047629058729422 -0.008437257928253115
H 3.6897868491734576 -0.4657987058220369 0.5367711996753803
H 3.206180236190115 -1.1266394668249278 -1.0647811155522102
H 2.9320843085297477 -2.0390777867057586 0.45163972578803785
H -1.3688094019032455 -0.5519246361320157 -3.10167790071298
Rh -1.4660338821519818 0.34843392685602137 0.6769221554721951
I -1.6118690295116946 0.9524235089140998 -2.700462633590423
I 0.966651647834013 -0.10114637683509087 2.2827639319805333
O 0.8067679132276141 -0.09514703761344409 -0.639712704382707
C 1.6369336890574409 -0.4447654298977421 0.1189571200014291
O -1.00553297323932 3.285660399946597 0.9578288241922277
C -1.1894775102329207 2.159737858708724 0.8608581635620601
