15
## STRUCTURE-ID: 645bd21fb952d1664e2fb1fa ; CHARGE = -1; SPIN = 1
C -1.8041509263731643 1.6614948000468157 0.18688876870000917
O -2.2202618139387846 0.6728568739626632 0.6345865284457411
I 3.1206589429023617 -0.1296511978938092 0.1258657920106063
C -0.38768449309677544 -2.1573375378034565 1.231707700586434
H -1.0074644182739874 -1.5919949582712507 1.9164582844302984
H -0.6875594723605654 -3.196771006729012 1.18083725521048
H 0.6639539746595745 -2.072090220920872 1.4816767544327207
O 0.4663130278455438 -2.4345987130890236 -1.6345555733603447
Rh 0.014448035321480285 1.1505761603308122 -0.908829780640058
I -1.220377396004291 0.7188062999837749 -3.2234908205117754
I -0.6502581421435466 -1.3446015822175605 -0.7221373988870531
O 0.906835591633342 1.0512613959811086 1.886603715798982
C 1.026350215394751 0.9756205948409828 0.7233914722361082
O 1.1090507202262379 3.8558310706424805 -1.5789653998992583
C 0.6701461542078311 2.8405980211363415 -1.3000372985528754
