21
## STRUCTURE-ID: 645be8a1e0c8547bd2799620 ; CHARGE = 0; SPIN = 1
C -2.6098495266213444 -0.14614850387452769 0.37962163768410034
O -3.6455321373863057 0.29783535673760714 0.16867449336945403
H -1.531141661902171 -3.6522476798757117 1.905249818322568
I -1.1492829127246362 -2.35564462331524 2.7462241956974127
C 2.07621524371184 -2.291392560848854 0.6930335902220472
H 2.763412665088479 -1.829109204023549 1.4053679185451404
H 1.3490116585360312 -2.9073956941298347 1.2139971431996492
H 2.6485229442919556 -2.937863251743996 0.02042849944638772
O -0.44108487993199624 2.525791014900892 -3.1273727393829898
C -0.733775008127039 2.92676464214595 -0.4803471138874206
H -1.190395666201712 3.6289634903031445 -1.162848880053419
H 0.2695316399262614 3.2504916866593176 -0.23052135726495876
H -1.332020973227308 2.786848045798343 0.41339304134901433
H -0.2624275793015651 2.090071573901551 -3.9595535517987335
Rh -0.7536265989342137 -0.4544110945404034 0.7113924112677291
I -0.41251373976621136 -2.30521765368401 -1.385245971397263
I -0.6047785257109803 1.0918528361605346 -1.5116162525155217
O 1.421978296890076 1.350497698571652 1.7446355532864677
C 0.6595404347116546 0.5522509929751607 1.4103249600228827
O 1.9798076248997918 -0.390470464292238 -0.8172328832836864
C 1.4984087017794092 -1.2314666078257916 -0.13760451282887132
