15
## STRUCTURE-ID: 645bd5ecd54d2503fd5c0130 ; CHARGE = 0; SPIN = 1
C -2.8100300688910664 0.4606555970848032 0.5755202609400281
O -3.6439071021232565 0.31295077414108224 1.3237092702704738
I -1.2597616148789044 -2.32674050238739 -0.0036327597575213713
C 2.021173758722669 -1.0315403440875368 -0.006626223682974194
H 3.0945974592850876 -0.8389309497650685 0.007148368655834766
H 1.7810430255533023 -1.6441418672794923 -0.877925563190276
H 1.7348760842030067 -1.5865800840227235 0.886482846361996
H -1.2010655113464443 -1.5785523406166153 -1.8429353778572066
Rh -0.7526546911780738 0.3816204306208961 0.09870136620177415
I -0.8704659357092357 0.14039952320381036 -2.6596288999535473
I -0.2246331992484321 0.5185859318181922 2.7495639219610597
O 1.852770961090763 1.3335875880653159 -0.2884970827661285
C 1.3222109986921888 0.2805504209122569 -0.08986814375359026
O -0.470167346529134 3.3527429348579205 0.06293605596661857
C -0.5739868176424859 2.225392887454562 0.06505196060343772
