15
## STRUCTURE-ID: 645bea1e0f40af2b7d79961d ; CHARGE = -1; SPIN = 1
C -1.8107287550311788 1.1308415750015106 -0.508722520753391
O -2.83812779649781 1.548866584442156 -0.236429484136629
I -0.3315117954530465 2.6071412332622894 -2.845196152417608
C -0.19733318458954777 -0.11512401327192562 2.204257620030989
H -0.8771709673728314 0.7236134689675936 2.0723492400871635
H 0.33198819479251906 0.024293733298113702 3.15217324255238
H -0.7428749208058804 -1.0596238165595393 2.243139443396351
O 1.837262756807674 -1.9930232533263617 -2.9811101020727455
Rh -0.1662073836283486 0.5129033006054823 -1.0895436645954362
I 1.6232667083501193 1.9493945729464213 0.6809896540583611
I 2.114351503240955 -0.34837735660171554 -2.13872021088451
O -0.7826843125639394 -2.4039574522942844 -1.4155639923440695
C -0.6027247472337703 -1.2955866528352957 -1.1849335953335154
O 1.6039397469303782 -1.075681664703076 0.8913816756185651
C 0.8385549530546946 -0.20568025893134698 1.1559288467941091
