20
## STRUCTURE-ID: 645bcf9be2d94c530a36ef4a ; CHARGE = -1; SPIN = 1
C 0.17077579668293677 -1.9204337845746997 -1.7272774529522923
O -0.7876653516893827 -2.6445791534904224 -1.3618010856408624
I -0.3675500666001011 2.5816944580741303 -1.4689379503689999
C 0.1956876082195046 4.058783826421319 0.062463658812105825
H 1.2374776234300713 4.314828534726661 -0.09682223072167374
H 0.05606881558825877 3.5843858326613884 1.0275522478360488
H -0.4597016085823982 4.912008006599206 -0.06918110408433038
O -2.7127326491078194 -1.1908823191004216 1.9800080179830983
C -0.13893435196944068 -2.0218005694739 1.6467809096339154
H 0.8082454532546433 -1.6423201680936725 2.0124773822282442
H 0.003630102362449576 -2.808740470707634 0.9147148304868178
H -0.7804072480519003 -2.3500321833983673 2.4533746474455684
H -3.499601021903015 -0.6406967170810802 1.9471256593643216
Rh 0.7841977415615708 0.21215978939547656 -0.8916661800053105
I 2.1861118734307463 1.0511754701750844 1.1452193185046133
I -1.1778919897461648 -0.45826298970754487 0.6958519577425383
O 0.3489505713802234 -0.4565832375453722 -3.7126654134534745
C 0.19770207492619718 -0.7345155900495541 -2.541685651758854
O 2.5081728857177343 -2.1947929605625163 -0.9736081287685899
C 1.4274637410958704 -1.6513957742680898 -1.0419234322828785
