20
## STRUCTURE-ID: 645bdb114b7ee57b8032ebaa ; CHARGE = -1; SPIN = 1
C -2.8986864410086657 0.33096997643417475 0.7816402365830514
O -3.967170348025731 0.21926966962275535 0.3532891077242979
I -2.0732251829417927 -0.5268632195341737 3.761816025732297
C 1.2482602924916928 -0.9746775077169427 -1.5102696979621815
H 1.4153896026403738 -1.7368270206811607 -2.2647625132204614
H 2.1172296707638782 -0.8596542503344567 -0.8677375919027778
H 1.0619295233594648 -0.02687238710294776 -2.0194208872908086
O -0.9192000459736488 -2.336477257826271 -2.6090788882357057
C 2.4056561384862607 2.505708988786032 1.6362624774461636
H 2.6547280697099342 3.3546522595323904 2.261989792146741
H 1.9156148504538066 2.8256183541997926 0.7217929025845243
H 3.28010323683515 1.9022826593102926 1.4237184368396645
H -1.7273714053752134 -2.6791319157754616 -3.034954286056787
Rh -1.2669659440286634 0.6408645593486976 1.4939712331903026
I -0.8636620179478899 2.347353749356408 -0.49252987486571886
I 0.9932235165918477 1.2629107624072826 2.7499893526009016
O -2.2476715970983516 -1.9147323317900875 -0.8513392147032083
C -1.1454077496594632 -1.8900241167098197 -1.3798899634511141
O -0.035628552812518366 -1.1158693697226867 0.5320746730840072
C 0.05285438353947676 -1.3285016018039033 -0.686561320243194
