15
## STRUCTURE-ID: 645bc4deb9eda90888732d43 ; CHARGE = -1; SPIN = 3
C -1.6631193639554704 -0.9687783097511109 -0.033273080776273486
O -2.548900447923591 -1.7201671771711393 -0.008915444318366841
I -0.3238933856559507 0.4383185030551139 -2.8801867803469343
O 0.3868085551211652 -0.5132758896316706 2.335842817216396
C -0.6459896350297495 3.5868319733158796 -0.5947281271973722
H -0.43092660738529304 4.609122559432479 -0.3590339832210974
H -0.7735029222103939 3.239962357401622 -1.6019296702103143
H 0.6087514311011767 -0.8668165006000742 3.222810043933153
Rh 0.18681730276300076 -0.6362254860181756 -0.4394173087795302
I 2.890308128986799 0.1370500149212891 -0.30930244488365777
I -0.1926138523294122 2.1833036783612982 0.8512834724174574
O 0.8653984556891023 -2.5583934400384813 1.5940408109539275
C 0.5479970603270063 -1.4106109794143815 1.3578641312313484
O 0.49400015667705 -3.2682417039681275 -1.8313791447099481
C 0.5988651238245385 -2.252079599894512 -1.3036752913087977
