13
## STRUCTURE-ID: 645bb8782884da2460507c63 ; CHARGE = -1; SPIN = 1
I -1.6796260953336728 -2.7467750815070495 -1.5734235525022346
C -1.5067019434302777 0.5614071377540393 0.190398968657077
H -2.1075350050167243 -0.18730681434975874 0.7170184471615804
H -1.952621934722255 0.7273518138440431 -0.7986129998250943
H -1.583363687763904 1.4897721873488035 0.7586544878697287
O 0.8732340019567743 -3.7429552232449317 0.7278876442713749
Rh 0.486381092571219 -0.054984383662540486 -0.16350408043173803
I 2.6203912284483626 -1.1353374412686448 -1.2986104594279606
I -0.25922284599465706 -2.3413755567861236 0.7609237267160408
O 1.7834145457673083 1.520753181983992 1.8515191415224352
C 1.3334665832877441 1.4343377896438605 0.7412546360958499
O 1.01581472474499 2.706377927366743 -1.3411188347005547
C 0.9763693354850769 1.7687344628775759 -0.5723871254065076
