17
## STRUCTURE-ID: 645bbc5bd806e834db0203cb ; CHARGE = -1; SPIN = 1
C -3.1816479662460595 0.21031356690306896 0.1472221908053771
O -3.949347095756161 0.8489651264301528 0.7429340583356824
Rh -1.9980128937474473 -0.8538058780598463 -0.7824146707543798
I -1.8937377144825474 0.9960677585171921 -2.885277942198165
I 0.07387322596756866 0.23603276293730502 0.49266360501800854
O -3.212277462969806 -3.6037529959557184 -0.7205028006881372
C -2.835579685940726 -2.4956538862587836 -0.6832639171760517
O -0.8256532511607401 -2.439218467439658 -2.9480673432705546
C -0.7965055607148699 -2.121579964969761 -1.7554842828172488
H 3.7109967504575154 3.9112303302958304 0.4637433446411848
I 2.4979925037332076 2.8030407758480975 0.27179656640774347
O 0.13083638341962564 -2.7883386475708094 -0.983319421217258
C 2.872909978710796 2.2417261117714427 2.3271377824507335
H 2.168573525954499 1.439602461436772 2.519444837151296
H 2.6707556130462344 3.1155537026214453 2.9379605404225226
H 3.901550574588864 1.9003055274389222 2.381893964638624
H 0.6652730751400587 -3.400488283945658 -1.52646651174929
