20
## STRUCTURE-ID: 645bdbb9f6066263a45c0130 ; CHARGE = -1; SPIN = 1
C -2.466258330958723 -0.6358557788555284 0.1395440395462251
O -3.5337656277413694 -0.32043621597585 -0.17160303178498837
I 0.17543328590593216 0.530332539256063 2.896033942230944
C 2.7077366731280974 -1.4549626241315354 1.1885591270069626
H 2.1278359393259705 -2.3421171712243614 1.4323496478495577
H 3.0162584077260326 -0.9461775270891754 2.103493503695103
H 3.594176427177908 -1.7586110153415997 0.6253521249852197
O -0.8484066466592619 3.782393743787033 -1.1705628198501807
C -1.506284752071354 1.3728871023127531 -2.107626430110016
H -2.465378012919276 1.868846427725659 -2.188358670650497
H -1.600267323280125 0.3070268356446165 -2.290448210767343
H -0.8075234165558126 1.8308662330054046 -2.794488656317632
H -0.5080755536676338 4.461611980792621 -0.5898822476921809
Rh -0.652359484866935 -0.8324647637499535 0.6795616959178193
I 1.0028870884513774 -1.6593706566561017 -1.4969031338659287
I -0.778779938447369 1.7021451760137742 -0.14663226857072695
O 2.155938193105191 0.6501546556466061 0.09887951432978187
C 1.9751607800344217 -0.49025475505990446 0.35597575776216805
O -0.8792209803781549 -3.5407476996221456 1.9719359570424237
C -0.7091067273088838 -2.5252664864783894 1.46482015924329
