21
## STRUCTURE-ID: 645bee94fc0986765053afa6 ; CHARGE = 0; SPIN = 1
C -1.942438597507299 -1.7883171292386266 0.37093285358738215
O -2.8851161971224055 -2.429084586631513 0.41044680568204817
H -0.7518052500532136 0.9351722156440462 4.342476228821767
I 0.44506883673287817 1.089938436487147 3.3182100816628988
C 2.9501560004402765 -1.558831454581671 -0.03214623680017053
H 3.7782049570259195 -1.0272236332145859 -0.5007373373579407
H 3.294912580417998 -1.923772561151705 0.9371858093240452
H 2.647699564297251 -2.4135566285442547 -0.6350855471694525
O -1.75696883261067 3.438494815324145 -0.02215246981817649
C -2.00551622934121 1.3458878234451899 -1.7664546192610544
H -2.3988826398619802 0.3395972642585182 -1.8461663401406683
H -1.3232021644860852 1.5711924593570992 -2.5772052265450887
H -2.794467854114554 2.0858376870715722 -1.7110075779035259
H -1.3870078762318463 4.006845643532861 0.6596084576055636
Rh -0.13784153350560283 -1.134991507798124 0.20052443648888274
I 0.33846548056896425 -2.8913659218911705 2.115443773824507
I -0.9617952221386928 1.512016979296415 0.06988293981764306
O 2.0159786973381735 0.54993540640853 0.5554651089688067
C 1.817823556039463 -0.6001328207313383 0.21575814152090253
O 0.7120382720617932 -0.43489108668870774 -2.5839814251628437
C 0.3446944520508362 -0.6727514003538216 -1.5209978571455358
