15
## STRUCTURE-ID: 645bd3edcb2ec333d2732d43 ; CHARGE = 0; SPIN = 1
C -3.1694493111681257 0.09357002541287283 -0.6062475552206711
O -4.282712624145231 0.01762483869966148 -0.8625598400235506
I -1.8072873738481787 2.8572554292986996 0.46314026195976443
C 2.1332593662917594 -0.5242207926893353 0.23295933930649187
H 2.9772528479637748 -0.2736503962064254 -0.42457618794672947
H 1.5376160609159597 -1.2837995740340655 -0.28843055010838564
H 2.527424159268399 -0.949252531409461 1.1679115126950257
H -0.6773829632137705 -2.485932295006439 1.8556954173317641
Rh -1.3440886778300938 0.392744312947678 -0.4890681618206372
I -0.936003477628129 -0.9793641511983741 2.284059391450137
I -0.8659335674122636 -1.8677786404310355 -1.8019950876463846
O 1.344962212334272 1.6285182884895368 1.1659068064029008
C 1.4567484759831653 0.6668820580669353 0.5551455407093595
O 0.8707757449281678 1.6262477150820704 -2.0232724549826955
C 0.23481912756077072 1.0811557129775797 -1.2286684321064765
