23
## STRUCTURE-ID: 645bd044f495cc71906df39a ; CHARGE = -1; SPIN = 1
C -2.0300940095885 -0.8863401638991109 1.0515680752811576
O -3.0184054794939663 -0.981819258046188 1.6707688916653982
H 4.403358065578007 1.5872285341615489 2.530539751311198
I 2.990090865875091 0.7956272483069309 1.8024327850723267
O -3.1143174595652625 -1.595694196394066 -1.5149497260589542
C 4.3588727638145155 -0.7072632625738069 3.010806217113004
H 3.8433220967192803 -1.667212042685243 2.905288388969745
H 4.35502406843651 -0.3371448397655788 4.043475555912795
H 5.326239454703089 -0.6907844094169938 2.4939992801702124
H -4.026489807838134 -1.3898288347292795 -1.7684256539257295
O -2.0305584742613303 0.10434759692075345 -2.7100655357280243
C -0.699210139785466 2.3673176323211447 -1.0047384852195416
H -1.670229289247501 2.187121320605941 -0.5504069443295012
H -0.6667699615827131 1.8953327162877278 -1.9864285147533827
H -0.5486226530657125 3.440285477394918 -1.112318543884507
H -2.8472578090192275 0.3991920309158939 -3.1346464126237468
Rh -0.708775672080475 -0.8931013294707242 -0.22061646990027226
I 1.1146049933296012 -2.0160734268805953 1.1982272987444007
I 0.7227106170951852 1.5174016765268867 0.16096551616504734
O -3.2105819314965 0.5900232975904343 -0.7857176528579054
C -2.4055009748762206 -0.31830472364911844 -1.2852335881564552
O 0.013083092743497166 -1.9251355601744615 -2.932146447943008
C -0.15049235639358732 -1.4751754833470538 -1.8623777850243086
