15
## STRUCTURE-ID: 645bdfbb9f884154fa39f2a3 ; CHARGE = 0; SPIN = 1
C -1.883230641224688 -1.8623046375187977 0.7833640553467964
O -3.000185625076846 -1.8661278540140842 1.142636418107293
I -0.08625937379871043 0.12234571562116597 2.6071323109781877
C 1.2219701732094783 2.175745132663453 -0.2961235511333992
H 1.7756293116967936 1.8023471967489428 -1.1620825337349165
H 1.8230620365272159 1.9525567799227372 0.5892433718449872
H 1.074723066259215 3.255929400642198 -0.38354277503736195
H 2.8483584394247696 -1.0691804110619032 0.8114113981415788
Rh -0.5717009437323693 -0.45201147109867007 0.08206645098486798
I 1.989107729495239 -1.3379424566759013 -0.5048417422762045
I -0.8661868308638013 -4.01749358636657 0.945337365516385
O -1.2063961381960802 1.9146088135868595 -0.27757825546272974
C -0.08607335482604578 1.5445787824449155 -0.2078026053139267
O -1.767103116984186 -1.2330324796679195 -2.554642710829918
C -1.26571473190999 -0.9300189252264172 -1.5745771971316735
