15
## STRUCTURE-ID: 645be9958156251fa30abd0b ; CHARGE = -1; SPIN = 1
C -1.9564518610846673 -0.709284620871409 0.5162821561698374
O -2.9639876238771756 -0.5991062448792565 1.0511148232020588
I -1.496573576777812 -1.0442386280501115 -2.640262737693305
C -0.08384706543777679 1.9849492952459888 -1.5208599597214194
H -1.1197754525456867 2.04759693728139 -1.8558062849226917
H 0.5002457272010984 1.5876275455917623 -2.350772685227059
H 0.28239119432056986 2.9717965282225176 -1.2389314156422773
O 2.73000095514369 -1.2716024853281327 3.327219548107091
Rh -0.3153195800974168 -0.8961451174403227 -0.2713764031836805
I 2.168884260813095 -1.1467819031870496 -1.126359367141978
I -0.5665355858199754 -3.5177754925461246 0.6466565367269137
O 0.7619595997333891 -0.8433622966112367 2.2427373214529007
C 1.7505485581094142 -1.0590146701412912 2.783325083379833
O 0.3069517708635718 1.4098441710089777 0.7769244564920933
C 0.0015086794556758148 1.0854969817043028 -0.33989107199831375
