17
## STRUCTURE-ID: 645bbc532d7bb46a2c36ef50 ; CHARGE = -1; SPIN = 1
C -3.626421958327585 0.24132198918492287 0.06950113031749146
O -4.631744965945664 0.7616878939308985 -0.18476815408688374
Rh -1.7270315810061863 0.21470585595349226 0.3804797039490077
I -1.257911628860943 -2.3909387807419717 -0.6673006133088019
I -1.8335975751953884 -0.5422542826093557 2.987096597063193
O -0.28712841133940803 2.795433499658516 0.8735726605313225
C -0.7428441296788261 1.7276423070205067 0.7425749669338538
O -2.256917043865901 1.2346410746984442 -2.282910244905634
C -1.4384721370381914 0.8165090867661153 -1.4766552846812055
H 1.5539168665244154 -0.5991229982304622 -0.6557469060313471
I 1.4217451051727004 -0.4951519864032784 0.9208725867718148
O -0.1328313093189907 0.7250190170243874 -1.8650817681489076
C 3.522358982014921 -1.2786694220412982 0.9777267505010933
H 3.5072691347254126 -2.257108875240622 0.5081503347721555
H 3.7942989402049814 -1.3530992359300544 2.025574246693865
H 4.15487146835677 -0.5710160666450543 0.4528018014181396
H -0.019559756422105563 0.9704009236047944 -2.805887807789165
