15
## STRUCTURE-ID: 645bc776a0016a4f6a5c0130 ; CHARGE = -1; SPIN = 1
C -2.8863688780588106 -0.49062732195692904 0.45314592947798776
O -3.6816455701335906 -0.7935246996706721 1.233472421162373
I 0.05778342563584982 1.5281215122895568 1.5688780302362686
O 0.2628265770610876 1.0362324358225359 -1.9266725092474022
C 2.8603500624520968 0.7840332174245765 0.8395253163113513
H 3.2133523304143314 0.6246661320973953 1.8403536015905484
H 3.113108554487339 1.6782933648639002 0.30289635977226315
H 0.23350831603691996 1.6553219727140198 -2.6835647124943325
Rh -0.9443394753880162 -0.500235347062408 0.11050683092339328
I 2.333986799566123 -0.850466846352498 -0.2542850640500863
I -0.7952281752610914 -2.4508371961694353 -1.811253733290345
O -0.2341914129015908 -2.58993951610569 2.1820488744070756
C -0.6313986448116364 -1.7818491902166271 1.466054864584696
O -1.9341524126950222 1.3582872582414336 -1.9045232129821117
C -0.9675914964039878 0.7925242240808525 -1.4165829964016692
