12
## STRUCTURE-ID: 645bd6972970ff7d3a315faa ; CHARGE = -1; SPIN = 1
C -2.1943647792750505 0.12249920023333619 0.37711185642071954
O -3.2448170245145196 -0.32367010345591574 0.3230392019006789
I -0.32283620585213396 0.44683766499985905 3.1432325419486165
O -0.3510512698940204 -2.349376797419455 0.15651971578150686
H 0.3751164672343896 -2.9476919447588092 0.33342952234392625
Rh -0.2758978206763939 0.24048562490123718 0.5254559288671693
I 0.18939359647124493 0.3102160110859272 -4.002006001130433
I -0.03918298581193918 -1.2434626317785098 -1.6488294986257324
O 2.799420625019457 0.36985989158343524 0.3018556830729914
C 1.6155387671819366 0.6071303269461472 0.389514785635674
O 0.6284615980594734 2.964050251853482 -0.011759157330319032
C 0.8202190320575602 1.8031225058092615 0.11243542111524453
