13
## STRUCTURE-ID: 645bb5b6fbfd5864d70203c3 ; CHARGE = 0; SPIN = 1
I -0.921715032166465 -1.6419318440655222 3.6353370157137275
C -1.6502810612715455 -0.6472779832385195 -1.3895927823707452
H -1.4968277178476903 -0.047408298403388095 -2.288337217330888
H -2.580295230636126 -0.32659787159158654 -0.8855883797183347
H -1.7346103959641097 -1.6980775938714603 -1.6734656300653958
H 1.1423240740144363 4.299429264067342 2.129607429396977
Rh -0.3175173422664949 -0.2808503051461958 0.09971721447062573
I 1.5570713907637015 3.2305552755999667 1.0281673202616826
I 0.2024172076102006 0.5530225028410396 2.495363820179135
O 1.4065795420240863 -2.594224557544469 -0.3014788841128491
C 1.1200880520915042 -1.442013128205586 -0.499983667803313
O 1.9388717919412435 0.752372511520742 -1.4239338485945356
C 1.333894721707255 -0.15699797196236062 -0.9258123900260717
