12
## STRUCTURE-ID: 645bb38f87b34703c039f294 ; CHARGE = -1; SPIN = 1
Rh -0.34788074177932854 0.3843307306270322 0.5326534705999512
I -1.9961619261976467 1.9215334408912583 -0.7870284125052076
I -0.1055420188196766 2.0718261079375924 2.5708008680923897
O -2.290702409923558 -1.5787736970083945 1.1292907298099104
C -1.2824955703263365 -1.4997002920294171 0.48799242220053485
O -0.3616722154762786 -1.6065593236100346 -1.7674168585326788
C -0.6416140953912957 -1.1285706485713518 -0.7054256895525646
I 0.8219838396472605 -1.7553313695108756 1.7851533514915046
C 1.333862813608005 0.7377504249480153 -0.6730429853599067
H 1.0393778558791251 1.252932629186184 -1.5879003422227544
H 1.8608670629351942 -0.18174379374623179 -0.9282933931528048
H 1.969977405844548 1.38230579088622 -0.05678316086838176
