15
## STRUCTURE-ID: 645bd5684e35804ed339f2a3 ; CHARGE = 0; SPIN = 1
C -3.2989756641235375 0.5296303150931359 0.6172007936283987
O -4.439434197980049 0.6217459469409757 0.6116843072971804
I -1.7809687748973932 -2.2396969673486615 0.3566513495577942
C 2.9644875530248016 -0.9905242454628715 -0.0019553434239577587
H 3.697610071310695 -0.39965828608073517 0.5490502384222354
H 3.23047999776411 -1.0596483517494906 -1.0577710552478843
H 2.9658036068170555 -1.9845954867180073 0.45264010509615654
H -1.3347690676531319 -0.5589301755335313 -3.1110760198778284
Rh -1.4737062241138876 0.31676416910731486 0.6746314274495702
I -1.6192642045771484 0.9357030047430227 -2.7005737407953454
I 0.9626551279715129 -0.0874562246207636 2.28702641250449
O 0.8126400521148996 -0.0708778656327868 -0.6359396029491425
C 1.6461364248383938 -0.40991201614877815 0.12384798932264092
O -1.0900293872584452 3.2638678591751726 0.9676006437757201
C -1.242665313237892 2.133588324236006 0.866982495239961
