15
## STRUCTURE-ID: 645bd76d4ee5f1664939f2a3 ; CHARGE = 0; SPIN = 1
C -2.6446978309981413 0.6924342228260468 0.4689481607046466
O -3.634295428823763 1.2339746300660068 0.6665848463402279
I -1.5063389341809574 -1.3477432535862641 -2.297556299527679
C 2.1924380318531016 -0.4003525967878641 0.40915702252465563
H 2.23038441158035 -1.4867887230991694 0.3141621777281522
H 2.0100375696307546 -0.14538350330856203 1.4510867241787584
H 3.1517472550658674 -0.0007687489858916677 0.07981607428447937
H -1.3771471667039845 -3.3176053726868173 0.9528752826642359
Rh -0.8178978522257176 0.2918802449111272 0.0573816661227248
I -0.7402902370918303 -2.1157756577125424 1.763403531365043
I -1.640590042022436 1.244916797442427 -3.006182505024792
O 1.3381444192271408 0.336357148613412 -1.6802990444344084
C 1.1025731599354385 0.10803157667260041 -0.5051235804915293
O 0.41276100183773246 2.9596395233037307 0.7765188882579589
C -0.0768283570835821 1.9471837123317142 0.5492270553076924
