15
## STRUCTURE-ID: 645bd86450be4e2f95554eed ; CHARGE = 0; SPIN = 1
C -1.967224303261342 0.6366935888809753 0.6010238176718115
O -3.1065444648778304 0.6744819347410249 0.5924927750953527
I -0.16087302148194216 -0.2533793529584718 3.3894314068470877
C -0.2457522663826256 1.6485313168382865 -1.1258023194073796
H 0.5389129077409358 1.3889548553942852 -1.8352944939623026
H -0.08154541234978369 2.671097931880269 -0.7640912410964461
H -1.1994073398182163 1.607125973878464 -1.6504956025425976
H 2.5116787118868142 -0.3480005268910545 -0.9055774286604165
Rh -0.13818942825377123 0.5062528399965164 0.6211831843933192
I 2.5712283029363006 0.4976069131133704 0.4856375889390537
I 0.6935917567227367 -2.7873573686764117 3.3788563839779386
O -0.9489513521539823 -2.2461450252658746 0.5294110043561189
C -0.15944231918350973 -1.546091586912887 -0.08382632083593773
O 1.3454891468094503 -1.0965709613566925 -1.9296729341421082
C 0.3470290816667742 -1.353200532661779 -1.3032758206334856
