15
## STRUCTURE-ID: 645bd47c04ebd53f2736ef53 ; CHARGE = 0; SPIN = 1
C -2.5149338370115846 0.15724850123627684 0.10676207644785324
O -3.5637218090451532 0.4950965739627503 0.35587398518580177
I -0.6087980179193366 2.743775520706342 0.6229127094989078
C 1.804687118335104 -0.10752898873050913 0.8140470884130108
H 2.4284415058371844 0.5874811903213646 1.3804441202425182
H 2.36759925112417 -1.029404241819738 0.647183454198212
H 0.8993000538503568 -0.33507984546842773 1.4025727593551087
H -1.3192425500180427 -3.2035443146627576 1.7257570130371995
Rh -0.5391424274163286 0.38128204806125643 -0.5765687558505616
I -1.5349852836734357 -1.8614588016620242 2.5216369099028317
I -0.2593923940073571 -2.0138822556623794 -1.6407027883732461
O 2.246587442828438 0.9467952235677785 -1.3228470014569775
C 1.5067537503144355 0.5047633253725667 -0.5114618056445028
O -0.45443787179712836 1.6021234865132663 -3.280157754874287
C -0.45871493140138847 1.1323325782642166 -2.245452010081866
