15
## STRUCTURE-ID: 645be34b9c63af7f593adfd0 ; CHARGE = -1; SPIN = 1
C -2.918241656599253 -0.35313307455252724 -1.082136018076041
O -3.9986513964124826 -0.31090397227550765 -1.4449921424133874
I -1.7784981904224502 2.3023501033407663 0.10262443778431495
C 1.862706200046763 1.3575173460785497 0.1480489553467054
H 2.2110896907360456 1.3135987117716987 1.1808545492783875
H 1.1671371155014392 2.185194210205217 0.025118782711488208
H 2.7172301367006426 1.5239701799313894 -0.5125325587774852
O 0.3728802438388042 -1.7226553633995993 2.7671243503205702
Rh -1.177111780191735 -0.23052347768469963 -0.3200039162302766
I 0.532689542446332 0.30012504318787175 -2.5583354504587033
I -0.44720925780039567 -0.12849867029509837 2.279942818588732
O -0.6802048514993899 -3.163031500700016 -0.09214682851517733
C -0.8974466686109785 -2.0506785849343454 -0.24662340165025798
O 1.7374120220917932 -1.0601323473260582 -0.03624527195280904
C 1.296218850174868 0.03680139665236988 -0.21069830595612896
