20
## STRUCTURE-ID: 645bc1d6f194b4183436ef4a ; CHARGE = -1; SPIN = 1
C -3.012003516513829 0.4398884074725457 -0.1060934375351882
O -4.016761265682686 0.00371925158482366 0.2629468901565037
I -2.517407321035356 3.543528506366093 -1.161155027627083
C 2.5450680641692602 -0.9441646228448773 -2.943247260666281
H 3.55221483432295 -1.0469241740292583 -2.5407976876435314
H 2.105591313604651 -1.9193630832670434 -3.155925614176732
H 2.548995019117114 -0.40122345081824823 -3.889674057060456
O 0.22383813824876642 -2.385355304928653 2.7564103206235644
C -1.1030278012762038 0.006523688033325393 2.9152576773291696
H -1.166730237627218 -0.8003736556725212 3.629644119044507
H -2.071920600771978 0.46196265726085944 2.7323997057327327
H -0.38606356785716484 0.7516509127432307 3.2414625554833307
H 0.7205086587243245 -3.103274769646528 2.365196997179988
Rh -1.3682147539915757 1.2631549079282003 -0.3198039801819226
I -0.4288747564234548 0.007959379917278834 -2.77907100243108
I -0.4074988913660495 -0.815637963402181 1.0842857498204637
O 1.013356915317452 2.7792717965522953 0.661688952662589
C 0.1717627205928332 2.174142768021013 0.15402817332288884
O 1.884243410584018 0.22707341097643766 -0.9223075705174855
C 1.7129236378642223 -0.24255866224678793 -1.9852455035159904
