15
## STRUCTURE-ID: 645be960e1860e5bde554ef3 ; CHARGE = -1; SPIN = 1
C -1.9550817554935305 -2.0261182889753924 1.2336271051774446
O -2.9052484139904937 -2.1013720294742844 1.8982384024918215
I -1.4423820765424535 0.15610634439380683 -1.1714560520146997
C 0.20795401236675368 2.726799484918456 -2.06112964273669
H -0.797712668415968 3.1171910214668292 -2.2180738640393773
H 0.46231195255793306 2.1566070936005217 -2.9563240603492758
H 0.9298577816645027 3.52805996319845 -1.9011657057434237
O 1.6705478260514766 -1.9285318590003409 2.8769594114145285
Rh -0.41056872702834424 -1.878156064945601 0.3126505736718976
I 1.9749171515657526 -1.5640208209371727 -0.7540719063027977
I -0.08585392140252664 -4.504193336051381 0.8270551215159919
O 0.32639439857651015 -0.17233191018102387 2.2592024734998333
C 0.97995910759694 -1.0963276678694993 2.493706368945036
O 0.8205392006548949 1.7410947997052515 0.07799985222594064
C 0.22436613183855217 1.8451932701513845 -0.9172180777562366
