20
## STRUCTURE-ID: 645bdd1db61c671f9b0fad23 ; CHARGE = -1; SPIN = 1
C -2.1672655376576593 0.05491862623878345 1.0095594848931313
O -3.305528583199514 0.04354404648381104 1.2104172006197924
I -0.3840192293804072 2.6700094953469202 0.29882968132474047
C 0.0924867881428144 0.8740185999140316 3.6388033757948177
H 1.1270262546288472 0.8213058104888195 4.013736939863518
H -0.6155210118475639 0.9601134797436308 4.472205417284962
H 0.04356450721117684 1.7756454144397804 3.02127337021328
O 2.3528387912151496 -0.048499502234006675 -3.881821858408991
C -0.22975574861253795 -0.19432635601186565 -3.321388325402357
H -0.06802329328449998 0.627993518192011 -4.007448390858966
H -1.2239371507219163 -0.13658547216640973 -2.875595949830174
H -0.10878655159503704 -1.1304694943572127 -3.8571856373416447
H 3.300411288481322 0.034300739544047464 -3.777605725288182
Rh -0.4731670141661869 0.031048861518341637 0.26435305759557853
I 2.349195395341739 -0.14406195655047524 1.1282130059110298
I 1.243117281018166 -0.10709203311214928 -1.8274308656343006
O -0.781633249571114 -2.659627320678431 -1.0437717510551858
C -0.6056038158410385 -1.674680729930784 -0.4548836014498484
O -0.3891258660736665 -1.4605965379455934 3.0119922170932223
C -0.15627325408809464 -0.33695918892325655 2.9777483546755588
