20
## STRUCTURE-ID: 645be06465c1c30b5e3adfd0 ; CHARGE = -1; SPIN = 1
C -2.0180140419261186 -1.897179230225378 0.6533686138031128
O -2.1329335259054543 -2.922713844855604 1.1511957567915803
I -4.4742333608997615 0.10106152677377613 0.1635022468713902
C -1.6112868954471478 0.7104249056195164 2.44826464581375
H -2.498213490666402 1.347235569853844 2.5005048376957015
H -0.848549573686688 1.1275623039673415 3.1050368675999236
H -1.8962546271081913 -0.2883362941202465 2.770586887810923
O 3.2737471231329525 1.6325947953258062 -2.359480260108482
C 2.9530529684567273 -0.5585019248852489 -0.789016936323751
H 3.8155480989749853 -0.5149048754293499 -1.4371180122008325
H 2.5891446735967274 -1.5705862404845616 -0.6650456879080062
H 3.1683584561452345 -0.09278267758208429 0.16377379430674008
H 3.0706042772042004 2.4520163642028674 -2.8099881214784665
Rh -1.8880562228642876 -0.3982908759080999 -0.4002478512749002
I -1.8799663319259223 1.0012452430081624 -2.635245420298861
I 1.4262712658950953 0.5639985048998664 -1.7408898670628359
O -0.31039850700434907 1.565517898277812 0.6311581803868145
C -1.1026424338278908 0.7613736000409247 1.0393799287625287
O 0.39183172368675867 -2.075021978538783 -0.865464744739376
C -0.028009575830487785 -0.9447127699405556 -0.9242748584469611
