15
## STRUCTURE-ID: 645be470bc49f97c4339f2a8 ; CHARGE = -1; SPIN = 1
C -3.9928924168641364 0.6245005651438342 -0.326900645338792
O -5.1249560025856855 0.36356794298035344 -0.4238797106790101
I -0.8910132254960672 1.896533163000541 -2.715520308301882
C 3.653543000108747 -1.121827865613288 1.3628466456997494
H 3.7568720806335723 -2.208814369584947 1.2516068134417504
H 2.601316270190498 -0.9246115459975148 1.6486393449243424
H 4.321153502326618 -0.7574898657268695 2.1535066837328487
O -3.8976617873597297 -1.9042614754938534 -2.4033073890998393
Rh -2.1549213388922634 0.799908557997674 -0.42783138450895947
I 0.062326972506082864 -0.4493345746555288 0.33389298655195354
I -2.322217636400198 -1.5845305758045043 -1.4440931393346306
O 4.133272225392099 0.018604394731774034 -0.784301845145792
C 3.8949572873712013 -0.4944855487865872 0.1823124965413223
O -2.015518794365352 3.3754089416496296 1.0770917995019362
C -2.0242601365654735 2.3668322561592547 0.5159376520150409
