15
## STRUCTURE-ID: 645bd453ea30b236ab507c5a ; CHARGE = 0; SPIN = 1
C -2.6850656542284885 1.354614818495351 0.02671278363880748
O -3.1600037935448553 2.391199637043247 0.1356869971528357
I 0.4205909594544264 0.4494024063715871 1.8144315823745838
C 3.107959965009103 0.28248496074732343 0.2680159567201999
H 3.4585745144726903 0.9591960996542526 1.0477158959588095
H 3.7012644370142307 0.3885320477533742 -0.639830581620121
H 3.2082768873810297 -0.7298576402539946 0.6657271614357462
H -2.5649275218300422 -2.8726640290504983 2.0014869100552337
Rh -1.8494166049788128 -0.2701411452174501 -0.22508296214867524
I -3.3130163371339076 -1.4891264446050612 1.769490178627184
I -0.6323138398981291 -2.5132173572548 -0.856623996061104
O 1.1174023750289925 0.770617211743034 -1.0246753212626536
C 1.7073047104821182 0.539296117476903 -0.030049480378056628
O -1.131056974287423 0.4966060144044101 -3.0188546676887693
C -1.3855731229410284 0.2430573026922628 -1.9341504568035581
