20
## STRUCTURE-ID: 645bdc21fdd2546d7d108f10 ; CHARGE = -1; SPIN = 1
C -2.0439663000324457 -1.014621499692327 0.25716703610224506
O -3.0915726169269138 -0.6004298911715111 -0.013908060722954016
I -0.6667417791166962 0.6477008857293324 2.781078286426553
C 2.7037806233670105 -1.200792620243607 1.6951928527300208
H 2.948305980152767 -2.1127103779691554 1.1510454605656013
H 2.2692382056990326 -1.4809509772276637 2.6535517263353445
H 3.605367135297435 -0.6067351472474063 1.8460401711686696
O -0.6987721244246163 3.583000278698231 -1.1758121674865563
C -1.7758513321349212 1.3984493449069375 -2.411860824746343
H -2.206918073742437 2.389344174002201 -2.4679068232010106
H -2.495464619813215 0.6826080123566782 -2.0310978426604507
H -1.379897187424501 1.0761820837786813 -3.3689387184229154
H -0.16455875483842702 4.115824096348099 -0.5829732952785766
Rh -0.182216580680061 -0.9694036331894016 0.5945650624939391
I 0.46957667334466524 -1.2229910186995843 -2.1021020786221913
I -0.15471231749846048 1.5736460756713087 -1.037700648937853
O 2.0692323697175237 0.6452311119388405 0.3567380421560414
C 1.7062933395657098 -0.4106897113387537 0.8752355831377922
O -0.8391881389269606 -3.646530341926949 1.654974975117848
C -0.07193450158438534 -2.846130844724105 1.326711263844854
