21
## STRUCTURE-ID: 645bede71c089b29953adfd6 ; CHARGE = 0; SPIN = 1
C -2.349149073048666 -2.171849246972817 1.3737965154566327
O -3.1391455330351143 -2.662967255298857 2.0268307076773713
H -0.4307011808893661 0.6645746147777917 4.10598945308884
I -1.710877329734028 0.8444732343635586 3.1973641331162908
C 2.272222619288935 -0.6188251739738934 0.06456671825969848
H 2.1810334017969266 -0.10737727918503495 1.0193975308005665
H 3.0123853548443416 -1.4174569017816365 0.1397958017725666
H 2.6216585038708407 0.07952254760975432 -0.6974765330078788
O 0.1335660439658384 3.3578950109779915 -0.4596167961167381
C 0.1285613532324806 1.2550427344474127 -2.1093301121701544
H -0.6792183914205056 1.7542149672955758 -2.6306070855855506
H 0.22619416603516893 0.22509431101046973 -2.4273748296513955
H 1.0478014877345962 1.8115901599625044 -2.2382296237906214
H 0.027333030738976836 3.9208831174276098 0.3116528311788599
Rh -0.857053497972073 -1.409167821901716 0.4667081632491187
I 0.5398631502246115 -2.6203161986501926 2.3206570737903145
I -0.3397303401013659 1.326936918470122 -0.057137475072516944
O 0.8764640154334813 -1.8971533040630144 -1.3946951096110398
C 0.9779203531725066 -1.2097716625975112 -0.39647964307794653
O -2.619662136543035 -0.40281755583297435 -1.7335323873652175
C -1.919465997594449 -0.7225252160853343 -0.882279332941345
