20
## STRUCTURE-ID: 645bd9498ad1636d592fb1f4 ; CHARGE = -1; SPIN = 1
C -0.7550419898450186 1.9515405380948647 0.28401695229522045
O -1.7340910900396391 1.1978069047022648 0.31899950004685546
I 0.10312949369318038 0.8810670396237056 -3.0126221028852256
C -1.114657609259213 -0.765013060550226 -2.2941373877686595
H -1.7176217317449414 -0.3719565880644024 -1.4810947215026184
H -0.441536977242348 -1.5444411365660422 -1.9486430238908596
H -1.7298386210267347 -1.0990709762965807 -3.120393272733351
O 1.1009710913943789 -2.649982044323381 -0.4357658623937552
C -0.492598016936327 -1.5482967158885146 1.5691081209406355
H -0.7180702483554183 -2.516328666302424 1.1372130111774075
H -1.2826973921348084 -0.8242714890291076 1.3988922391773841
H -0.23427014237281035 -1.6031699930133414 2.6190156469977324
H 1.9614984631930037 -3.0285663204342272 -0.6636550599445359
Rh 0.9749974048863387 1.7453353489980519 -0.6053233660968295
I 3.635613434437171 1.571156620280524 -0.798543889593326
I 1.2219269732359896 -0.8409951925626137 0.5507104549045205
O 1.061985450575358 0.8166013433092216 2.035705815008706
C 0.8184894658326508 1.85330695550856 1.322649606352046
O -0.46005640398966385 3.9484773758759255 1.7940887672736685
C -0.19813155430068366 2.826800056637371 1.329778572634794
