15
## STRUCTURE-ID: 645be98aa4674843e351c323 ; CHARGE = -1; SPIN = 1
C -1.6172303886818982 -0.7052907677797798 1.0958074169455776
O -2.383348388114331 -0.6569899957202631 1.944446786386229
I -1.7592307320771208 -1.3990664077342057 -2.214039220277435
C 0.26171550703830126 1.8396237622399343 -1.474193307492377
H -0.21843001191945716 2.8111948634111448 -1.588438921071336
H 0.08637759939952297 1.2264910705044745 -2.3575979865112244
H 1.33864290927309 1.9892267828682115 -1.3699365291145575
O 0.9992123354402841 -1.9745797240779457 2.1060700137911135
Rh -0.21462501619601307 -0.8085342539651305 -0.1028746103299816
I 2.1507838586818915 -1.1681242842581094 -1.1853220019484814
I 0.15374987293972164 -3.636111960346555 0.8751398688507599
O 1.2691640302730958 0.2183091002957008 2.132908954869473
C 0.8443812356176449 -0.7975903254759957 1.6153650188155222
O -0.6692457762946874 1.8428911118654754 0.7267193796701092
C -0.2419170353800338 1.218551028173038 -0.2040548625833672
