15
## STRUCTURE-ID: 645be9f4945efa5e75732d40 ; CHARGE = -1; SPIN = 1
C -2.0582350558667506 0.49797400120745494 -0.32104177069297435
O -3.1148891933844887 0.8818947305116056 -0.07071830395016936
I 0.118425625254192 2.7979724639388657 -2.407532911220238
C 0.2844700376677697 0.16696913133773728 2.3028785853368046
H -0.32722458205967153 1.0644383175319954 2.35532460873806
H 1.3259508197016054 0.4704682588473111 2.19430577241473
H 0.17877516248123695 -0.4247285634929095 3.2113044866944778
O 2.3687137516987047 -2.222398289461931 -2.059564956338508
Rh -0.3745614050231483 -0.1154536719765845 -0.7903086513628328
I 1.2800708948049522 2.8674402456129764 -0.025254996413197263
I 2.215414520979598 -0.5612964576476721 -1.1884109356883064
O -0.8737408357904068 -1.9514451078853063 -2.9890590620286126
C -0.732839342484207 -0.8918983561906305 -2.546173327034401
O -0.19964561867257213 -1.8959309434804132 1.2243271746469282
C -0.09068477930613952 -0.6840057588523281 1.1099242868953638
