13
## STRUCTURE-ID: 645bb50a995f60439232ebad ; CHARGE = 0; SPIN = 1
I -2.5725965883822686 0.7764379769779285 -2.8335739740199415
C -1.2807763287601166 -0.4582783354581999 0.5931642549063054
H -1.3650120438349442 -0.4099538216104123 1.6777476319103934
H -1.624453429151574 -1.4517548986751478 0.2515202890861916
H -1.9044573747816043 0.32500497901528974 0.15923658141413255
H 1.8200141013644442 -1.4461461623025202 -0.9003233178401293
Rh 0.6955054933609219 -0.6191838561276338 -0.1899349727850042
I -0.12536928564348937 -0.33616405837699986 -2.701480021765796
I 1.5603819129314824 -1.8735702462419677 1.9588433741268283
O 0.4042420746438736 1.5119068259763528 2.024155811601495
C 0.6779691319634706 1.008612765126245 0.9831962014787432
O 2.1463850510765523 1.8128018035693851 -0.9098423903863117
C 1.568167285213255 1.1602870281276756 -0.11270946772690861
