15
## STRUCTURE-ID: 645bd637e2491142ee5c013b ; CHARGE = 0; SPIN = 1
C -3.098018631851367 0.48759603511926564 1.0632638461229653
O -4.153050092790557 0.522744856198719 1.5028423751624984
I -1.7752250921133417 -2.2325351012095878 0.23590964323685387
C 2.8472569227074715 -0.8275543286537294 -0.22895801966190352
H 3.681364895388552 -0.2590247512185015 0.18299313518616284
H 2.8352443197474058 -0.7657403505324426 -1.3170043693177569
H 2.99189561337893 -1.8652537550660848 0.08116532859137282
H -1.8465248836357935 -0.8659372841614236 -3.151255202155404
Rh -1.4119938435185957 0.344768201713432 0.364103823905516
I -1.739302164787701 0.6738598960241962 -2.825337427642239
I 1.4424104967218665 -0.25728126271544544 2.489782463004049
O 0.6028771454959908 0.0036180529790603203 -0.2953521162391653
C 1.5779640554804544 -0.34092949472281875 0.31071442430786195
O -0.8741956634254695 3.2417559474659585 0.9074118242939787
C -1.080703076797858 2.139913338779402 0.6797202712051961
