23
## STRUCTURE-ID: 645bcf398955bb624b6ee1cd ; CHARGE = -1; SPIN = 1
C -2.6997690066349027 0.051817176953774975 -0.4795622087980569
O -3.3456977318302923 0.39120550155725664 -1.4147999370204092
H 1.7917733177480935 -4.281566171482038 -0.12572411965024982
I 1.8131713457863523 -2.700077108813152 -0.8146159200048213
O 0.8714382461283235 1.517275325461109 1.7721475071097663
C 3.526281189291421 -4.037770111754084 -1.7556132381945941
H 3.017525204419663 -4.892167129353251 -2.213300332170839
H 4.193670834447975 -4.285285606644131 -0.9240668742684868
H 4.008533638298173 -3.400706139751694 -2.4946287776378897
H 1.3373023435114604 2.0565367626170312 2.436855565036882
O -3.4991182992559833 2.0929405458773416 1.6028973895714533
C 0.039665099612863935 1.8506439520071851 -1.4216507084882235
H 0.6040349133076328 2.28753316444765 -2.2448757116797364
H 0.17987271589672313 2.459830699689146 -0.5314451061424028
H -1.0203135891473292 1.8377718288340041 -1.6881892870486854
H -3.8255484730663993 3.0063742702740552 1.7186739804120412
Rh -1.5442759727426039 0.21945177640954902 0.923603622202991
I -0.8532951238716475 -2.1696235039392002 1.577670246183426
I 0.6599961894956818 -0.036378433002914566 -1.0201313493847897
O -1.8677693261119785 3.194083427836047 0.5704030888865784
C -2.2774341556869038 2.074428736111438 0.9433574655683965
O -0.7047966216013775 1.626813880373536 3.3423949620246636
C -0.4052467379944949 1.1368671562916959 2.240599743492805
