19
## STRUCTURE-ID: 645be86c1cdac579a952ff44 ; CHARGE = 0; SPIN = 1
C -1.5522119013150275 0.7254471931260509 -2.2677437410156904
O -2.565016250532642 0.7731979318415204 -2.8199284546015626
H 1.1899971424009013 -2.3670413223479687 3.1572816244907047
I -0.41712294117595644 -0.5764879816805974 0.8968896116421572
O 0.27976164203840814 -2.7554667578176866 3.158686667099597
C -0.6978986088143205 -1.745427563015712 3.0181110985607957
H -1.6934316884020921 -2.1819746272910736 3.002258058324426
H -0.5735168188358092 -0.9926836066839072 3.7923642680014047
H 0.17888945369806586 -3.4437667888189916 2.4551867923471096
C 0.9735044056175639 -0.6969096017438936 -2.0973401655362105
H 0.36977290508956306 -1.5596104348325879 -2.391073212689834
H 1.8135641924404597 -1.0530358380302165 -1.4916367603638523
Rh 0.009774193759506358 0.9930309373295402 -1.3354569662845415
I 2.1220472642747925 2.074791017465565 -0.11001892813426169
I 1.923225571865197 -0.03193900213178299 -3.983530581600579
O 0.5900439529131619 3.9849238080152656 -1.9882914486944756
C 0.33666838202990895 3.317672653070235 -1.011379322812927
O -1.5551266119751648 2.9066057582696803 0.4311937319222237
C -0.7329242850765212 2.62867422527656 -0.4155722706544551
