21
## STRUCTURE-ID: 645beabec44da06897799631 ; CHARGE = 0; SPIN = 1
C -2.237225499309922 -0.5837313955157486 -0.045488494687608905
O -2.9037576794961915 -1.521099391735646 -0.23257968015638333
H -1.1284988473702366 3.519509279911138 2.2641854824669485
I -2.076579652944696 2.244150805383215 2.160874486208651
C 2.780670464150684 1.1671260821908795 2.422941747910144
H 3.5047816258504585 0.34454995441337916 2.507277065279539
H 2.7775201250674146 1.7372572778882305 3.3630404190859586
H 3.09797252906216 1.834776033442869 1.60508018323492
O -2.023065081459297 1.1870754784905042 -2.6007908437685234
C -0.09939079021874302 -3.2158042489776424 -1.4287783035888149
H -0.33120803087233003 -2.720235973048625 -2.362321279558789
H -0.9954518678496121 -3.3411405765829407 -0.8335199297629904
H 0.3988807668019603 -4.161666384402003 -1.5930395200751608
H -2.057034504475497 1.030462870762892 -3.56349518769118
Rh -1.0972098098714829 0.844482211823573 -0.07508259897567048
I 1.2167200214513438 -1.9506304025951386 -0.36839921599310577
I 0.7108670393087237 2.636949378068067 -0.6232441298147418
O 0.4958648066048203 0.29670182755169866 1.898560825105799
C 1.535122416545803 0.6668132675490425 2.1557567255628807
O -0.4746913656914895 -0.4141594795415236 -2.6634561244883415
C -1.0942866652838448 0.39861338492377235 -1.987521626293562
