21
## STRUCTURE-ID: 645be88394b6b8167d39f2a3 ; CHARGE = 0; SPIN = 1
C -2.780811465903229 -0.22162569173361304 0.49241023657762556
O -3.265669326092901 0.8282406529330142 0.5033693277568971
H -0.7739062142136459 -3.904122276936505 1.5362127145409281
I -0.7758518645703741 -2.575453969147727 2.4319359353436876
C 2.3244613810792076 -2.4341902971164875 0.6815661212125323
H 2.072451585094101 -2.7238695735028844 1.71262128102837
H 1.742397480860887 -3.1080487871718576 0.02425304926064148
H 3.3978926334619812 -2.6138797240127816 0.5056993291362782
O -0.5086818943920436 2.454343632191525 -3.3358760922688284
C -0.7925662399861438 2.8409124020793723 -0.697632157937806
H -1.0337600174095518 3.520835447403771 -1.500741193397606
H 0.13270947931847543 3.143322966431493 -0.21807118134250414
H -1.6045183303249746 2.811047742889208 0.023895298659958198
H -0.3333206333480115 2.0318111465551034 -4.1752614136851856
Rh -0.640650148665777 -0.5607954839517721 0.6013471496439462
I -0.5185913045978547 -2.1098625984424326 -1.4857526993780654
I -0.5617288571122782 0.9814533639571662 -1.5993729337243647
O -0.21325699865617026 1.8691392407457559 2.2917862070212034
C -0.3464319291606966 0.8958773133788828 1.6838610585033098
O 2.3916611346669305 -0.028601846200899506 0.11582452714652343
C 2.088171529952067 -1.0965336603483218 0.4079254359024639
