10
## STRUCTURE-ID: 645bb9615bc89311c50fad1a ; CHARGE = -1; SPIN = 1
I 0.6526678998267592 2.5410088969286826 -0.8417023664134995
C -1.9002767189722256 -0.25029256542887457 -0.307360060865766
H -2.3002981819373516 -1.0558018825811135 0.2848914253763444
H -2.3719154329422585 0.7152643396025999 -0.23661142234635993
Rh 0.8786960219648873 0.08440943820789411 0.06466355769070702
I 1.0532980217091434 -2.4093119627076494 0.8722468796437701
O -0.132063679959641 -0.7019021835854252 -1.9810423165890023
C -0.9182628657525408 -0.4612535369585823 -1.13814023260767
O 2.9203028919762755 0.9365428955886804 2.025561695164337
C 2.117852044086977 0.6013365609337676 1.2574928409471156
