20
## STRUCTURE-ID: 645be58c76330a52bc0abd00 ; CHARGE = -1; SPIN = 1
C -1.8014095393213005 0.44994986733713815 0.7389223074203974
O -2.7911727481093282 -0.062284964192237065 1.0524123211345082
I -1.0334327295176058 3.212643313870298 -1.2300159390216072
C 1.2469186965177674 1.1567099896709097 -1.8649464007709058
H 2.289660705582012 0.9049678673845419 -2.0581212478663744
H 0.6374309586981012 1.0435754836721778 -2.7607560525959056
H 0.8093624505307732 0.44780152548244656 -1.095746691040861
O -0.08161455256329739 -0.42900133083751835 2.8579734362648224
C -1.1609775718948687 -2.9400169833252474 -0.20493805211106092
H -1.2582892404905992 -3.9892833042653546 -0.4478902072876302
H -1.9657378149560234 -2.6096343647046036 0.44001686216279756
H -0.19910923748958853 -2.729260056341894 0.24580435693113617
H 0.3669444122181289 -1.1543896762148818 3.3373355138272505
Rh -0.15199782864446684 1.2625910080374827 0.556832906778454
I 1.5569433972848825 2.6890714033288767 2.103606734340227
I -1.2804733736933598 -1.82640765134602 -2.0219504556336667
O 1.2534078335652616 -1.038147701560937 1.1758828352694752
C 0.42039430871948935 -0.2580614199564003 1.625774259475433
O 1.9758442781513033 3.3598937915945664 -1.1410376696655313
C 1.1673075954137024 2.509283202366845 -1.3091588176114881
