20
## STRUCTURE-ID: 645bd1ee489df25f9232ebb8 ; CHARGE = -1; SPIN = 1
C -2.4809271750878024 0.817774961661894 -1.9002462202484198
O -3.227931085060431 -0.08761301411400248 -1.8380793419708046
I -1.8967830401016867 2.38902623541233 1.3313053425936572
C 1.9050399588882347 -1.0400452781700067 2.262690924861871
H 2.223423866803443 -1.918108907959064 1.6979946743626422
H 1.242841292158044 -1.3820472345415404 3.058095415234773
H 2.7766488701693555 -0.5251699313628864 2.6727259073649465
O -1.0683577815747154 3.4340444281949702 -2.5481524261709656
C -0.2443916721289711 -3.0012517803067573 0.3535936013770612
H 0.58376277717078 -2.847910804492895 -0.3319748698393654
H -0.9992732151832247 -3.631214206807072 -0.10413820360139045
H 0.0717588177317375 -3.405641861336479 1.3082717472478729
H -0.702416062547052 4.2922890462684835 -2.8387408536879746
Rh -0.8443494735847303 1.1669664331136433 -0.8762760066666668
I 0.9768284069002534 -0.1933168307176306 -2.377733487422555
I -1.1692659458906298 -1.041563749538694 0.715918435609216
O 0.7475539657025565 3.387049026411623 -1.237846902048723
C -0.2841244563274678 2.8556860974022396 -1.6181481673505023
O 1.220177561885234 0.8992978546870413 0.8905944119293432
C 1.169784390077061 -0.16825048380521135 1.3801460184259535
