19
## STRUCTURE-ID: 645bec77cd7b1a6010732d34 ; CHARGE = 0; SPIN = 1
C -2.2061524511812545 0.22982261060533465 1.4716558529227308
O -3.321897206115041 0.40158360484073763 1.2690104326574
H -0.7155965092767103 1.7106499261515786 -3.267051501872374
I -0.14363103315829867 -0.23949675804484685 -0.8614289429426301
O 0.05520494118220215 2.1909974931526763 -2.8786125113376637
C -0.036698250588348136 2.125769555560656 -1.4394030089375822
H 0.8381372713067623 2.600168044279534 -1.00765138913747
H -0.9394550030185038 2.640588653638443 -1.127150301041773
H 0.8907995345369055 1.7554729937109366 -3.1732840125930695
C -0.29411201831203787 -2.5035726888740464 -0.48616010890424366
H 0.704876359866651 -2.9345389092390737 -0.5243537288969355
H -0.9392912063139953 -3.0096000688363844 -1.2006917787451712
Rh -0.4471191699535593 -0.12136703009269188 1.8417597437323756
I -0.21985506585494743 2.4912055472849377 2.350861118597471
I -1.0754583165046063 -2.8425934273829516 1.5196957267530817
O 0.9656108646510632 -0.5319699407304707 3.252648741893765
C 1.5526347209988454 -0.6360544162868369 2.134331132463288
O 3.104011126080104 -1.812753396155037 0.682933953055914
C 2.227991411654759 -1.5143117935824961 1.4428905823328924
