15
## STRUCTURE-ID: 645bd06fc31b585205108f10 ; CHARGE = -1; SPIN = 1
C -1.1151522960076334 -0.555477690640719 0.0074214626377126685
O -1.9813074563820292 0.012820122523713846 -0.5602285310910908
I 3.182961875850416 -0.3851843770514839 0.5900766950269976
O 0.3217208676120806 1.837084297026757 0.7309887651149255
C -1.46389554680424 1.028089659402725 -2.090856063084752
H -1.7788355390095127 2.0061946195820246 -1.7627735341469488
H -2.0766291659196687 0.5268037645535998 -2.824068697812281
H 0.2694449242138084 2.673892837364916 1.2356772105237313
Rh 0.5629146679883137 -1.0193625299001232 0.6411735576246828
I 0.5659957887019126 0.8149124181352769 -2.3517915666322065
I 0.8975283868942027 -2.400086969253702 3.0375927915056598
O 1.4174431524733726 -3.6066325477497427 -0.6891675278407998
C 1.009888094224625 -2.6343890076662873 -0.23947092669132372
O -0.02927947886498849 0.9518523978806609 2.728205233426749
C 0.21720172502933213 0.7494830057924459 1.5472211314389632
