20
## STRUCTURE-ID: 645be7be0a7b8a6cc36df394 ; CHARGE = -1; SPIN = 1
C -1.6052596386020384 -0.27104415879926513 -1.7305162742626685
O -2.449966347551619 -0.48159671044777497 -2.479255991569428
I 0.09018526808621792 -2.914102452917573 -1.1707292014431399
C 2.1277294215181253 -0.29753465595457973 -0.19996884809374307
H 2.5080424447642944 0.6645347967392261 0.16483852223129186
H 2.815990540150325 -0.626993886570327 -0.9893357194180952
H 2.237472668511876 -1.0226945588095901 0.6171316170749165
O -1.952300342861168 2.2260976590557866 0.4212053426089514
C 0.07098354392593052 -2.081022668198807 2.664712171856193
H 1.1288298611864278 -1.9192081377980197 2.8420961592159792
H -0.09214682434633288 -2.92151477964299 1.9959800412771338
H -0.4751655765665585 -2.1983223542923813 3.5947603275395696
H -2.8727776949890447 2.5597038752950283 0.3839087609555297
Rh 0.12627634142030592 -0.1850116880602033 -0.8894790265638951
I 1.0321090845422853 0.4007711784103502 -3.376992568787953
I -0.7169252690981732 -0.29498480311342035 1.6883713278860766
O -1.8127318633632368 2.72560545116501 -1.761070863748417
C -1.3113781509634699 2.3085085560385386 -0.7395404024103033
O 1.0360811998479322 2.536587377205233 -0.40281649071136394
C 0.11495133438792174 1.792221960695781 -0.633298883636655
