15
## STRUCTURE-ID: 645bd761f0e3572b346006b1 ; CHARGE = 0; SPIN = 1
C -2.592823062127849 0.6741921419857704 -0.25948974777170103
O -3.7044439310164905 0.7724605765121825 -0.4598216607147502
I -1.418184422648491 -2.0046598050065323 -1.2948576292203742
C 2.3724414581341198 -0.6546420822300302 -0.8418257489256721
H 3.114037646030291 -1.1925166953201376 -0.24901898533857883
H 2.7660794065854817 0.3034383980741595 -1.1877763572192437
H 2.1263521913532903 -1.2182777337581594 -1.7466030345900614
H -1.7442028767456306 -1.8543548494990176 3.2384321810848564
Rh -0.6799615848231105 0.33629157644094526 -0.2779191271654207
I -1.965752460991301 -0.2974515174494944 3.2402863131400808
I -0.019633079761341536 1.4688410129081002 -2.6492913220049616
O 0.8404372342866233 -0.795901619646748 1.0447641440722297
C 1.1574174704528293 -0.4526792721573135 -0.058880788828789124
O -0.00401390302456703 2.9588737417798643 0.9870379367242396
C -0.24775008570370186 1.95638612736614 0.5149638267582628
