20
## STRUCTURE-ID: 645be11daa487e06f2099df8 ; CHARGE = -1; SPIN = 1
C -1.320950663901737 -1.7334630175850487 -1.8590640179303508
O -0.5994073593398378 -2.264324897150631 -2.5866886047318403
I -1.1630963610363376 -2.0425937167812305 1.248618129937129
C 0.07855273165393287 1.8524918711395837 1.609278771880257
H -0.7737365212821844 2.4683876725316556 1.8923876524174092
H 0.9881938430822979 2.4466968031036695 1.569761095894078
H 0.21209196188416576 1.0678099422592053 2.354534925215158
O 3.2233359937225905 -1.0665412378676624 -1.4300503251422299
C 2.5019239126200024 -0.22303754160574377 1.13205937793337
H 3.37259205621409 -0.8079227842210209 0.8683962686298192
H 1.8431664615689851 -0.7735881961996949 1.7944347398562546
H 2.777222316961527 0.7438812580245634 1.5317724343054704
H 3.2003099481602937 -1.2191480602874827 -2.373505778726733
Rh -2.4909582257592207 -0.9136352170713876 -0.7168624684331953
I -4.354245487692832 0.06841358605092134 0.847243834350798
I 1.4582416341184101 0.07981044190048264 -0.7072478848456948
O -1.1976426460801206 1.2796576396187764 -0.33866324549694343
C -0.15655780604275987 1.2173626701469427 0.28917570097776574
O -4.118368466397386 0.10394725118334495 -3.001896601167486
C -3.4806673224538898 -0.2842044671892538 -2.12368400492301
