13
## STRUCTURE-ID: 645bb8d8be276d6aab6df3ae ; CHARGE = -1; SPIN = 1
I -1.924314856038267 -2.7434052009670635 -0.054265371781764646
C -1.664032212361878 0.5535847479113601 0.316137273186773
H -2.4882236261525255 0.5248618867058311 -0.3975906723716771
H -1.184548539552329 1.5381656025632053 0.27354950244584136
H -2.0704774631147242 0.38920368912853986 1.3158327469472473
O 3.1713330865106304 2.193957558120197 -1.3197934720842308
Rh -0.1375653356671485 -0.8111092886330151 -0.18896931343568849
I 2.218244556331728 -2.2156680757597877 -0.5638861318967746
I -0.4447758920154538 -0.24999352433573013 -2.750314086614712
O 0.5153713993501674 -1.1070015132606412 2.6938147521808746
C 0.24044651900015349 -1.0030939235217156 1.5863717536266089
O 1.4523170179370162 1.2260423194996208 -0.1612970274821371
C 2.3162253457726365 1.704455722549197 -0.7495899527203572
