18
## STRUCTURE-ID: 645bb7e2bef5ac2b150fad14 ; CHARGE = -1; SPIN = 1
I -1.729056278447569 -0.8437527544156057 3.1313905550344683
C -2.140434355402248 -0.35035955560267107 -0.22188024090634106
H -2.0560280483440145 0.026323630017389316 -1.242294214449361
H -2.9198015955217276 0.21258779611183895 0.2978218451634282
H -2.4245656921667695 -1.4122936839620683 -0.24543287059990337
O -0.4082889193202572 1.601599780640874 0.08738828487710705
C 1.0163540950353267 0.3456273576849531 -2.6154319900117153
H 2.075872009331197 0.48632268200853984 -2.796197344632942
H 0.6130460997903431 1.1387365847397344 -1.992241349758917
H 0.4542500901548435 0.22531489773812433 -3.533620578288777
H -1.1844867802093009 2.145617948016255 0.22343219508179332
Rh -0.3554646686395058 -0.389418710171091 0.8349355735591848
I 3.082674178392337 0.6605051548146189 0.6293852673465876
I 0.7970985525685482 -1.48519939631741 -1.466259684684824
O 1.2108879966924069 0.9631402638004444 2.842706368099636
C 1.4234969658305394 0.17154953608227214 1.9548468655050948
O 1.5640308774189717 -2.229311086714265 2.2682484330104637
C 0.9804154728368855 -1.2669904444718632 1.8432028856550688
