14
## STRUCTURE-ID: 645bbb3478064f003a0fad20 ; CHARGE = -1; SPIN = 1
C -3.031803362276461 -0.30097908015410807 -0.13800503563405375
O -4.175904917096416 -0.2389238877141236 -0.07843173095326272
Rh -1.1553166084936342 -0.10552164333095494 -0.2541932383453642
I 0.2226126598337085 -1.8148686190048462 1.633590005503423
I -1.62276511948833 1.6837885375488264 1.670915755921518
O 1.7439709204376694 -0.9683648584519269 -0.8562454373892423
C 1.366511329122501 -0.36845867600223403 0.10363848518504191
O -0.8971809339805086 -2.0078826873745124 -2.53084049372193
C -1.0038809113443083 -1.295105113270762 -1.6376158144685864
I -0.05591509715151703 1.797908257196326 -1.9731983996466922
C 2.012572917278278 0.7126777299484683 0.8731372003472586
H 2.805234353790736 0.2501177786658906 1.4661350445851924
H 2.454281779853821 1.4218369758600633 0.17152609593047166
H 1.3375829895144744 1.2337752860838953 1.549587562686214
