20
## STRUCTURE-ID: 645be088ef51a461521fda9d ; CHARGE = -1; SPIN = 1
C -2.729348058782274 -1.3635535269826105 0.23595455831478374
O -3.620040780409839 -2.0695257309621873 0.3523517599263757
I -2.4497661339268513 1.992430004044513 -0.3235309807801146
C -1.3266017578987876 -0.06753125758020294 2.699656751427683
H -2.2970108202740644 0.4181504726880353 2.5957834196086558
H -0.8012402893012801 0.34946776377447886 3.558837803350469
H -1.4922191434266316 -1.1348908406145413 2.8462741436392927
O 2.451451365142307 2.1981335122163346 -2.562710975369432
C 2.61771446020093 0.19661682542963346 -0.7334171247512224
H 2.910988573999363 -0.7190825189374257 -1.2334686368371033
H 2.419726685737738 0.034973427730534676 0.31871990806174705
H 3.353908138100454 0.9719226165505551 -0.8869131567425513
H 2.0933415112479787 2.7938462026814266 -3.221052549200371
Rh -1.2122185370074465 -0.39429714942880456 -0.36119174422328837
I -2.037013871384671 -1.0561128003274136 -2.9670285950168616
I 0.8474441751808345 0.9229568002914862 -1.6417844103375387
O 0.5804141184756358 0.6985440865458603 1.499955189261476
C -0.4991938568840885 0.16080316966105765 1.464893635503461
O 0.9908329845828723 -2.364681696259444 -0.9577804580495348
C 0.19883123662781196 -1.568169360521272 -0.6835485377859206
