23
## STRUCTURE-ID: 645be90e4740c06be651c314 ; CHARGE = -1; SPIN = 1
C -2.75237405199146 0.4986921297434788 0.8718748462091989
O -3.678935161037257 1.1993508899214942 0.8529804084055373
H 1.4704131822463802 -3.0014517180875813 1.0943964661494174
I 1.2622326931271972 -1.3023185360064204 0.9061705404110422
O 0.5715785382910082 0.6720965040501741 2.8495029291214866
C 2.3095599497962533 -1.71664614627238 -0.9322630548351372
H 1.6745133073172782 -2.32669340496069 -1.5694502973983173
H 3.2201529931341484 -2.2413865940320177 -0.6566780492724749
H 2.5225789607448945 -0.7506407457965976 -1.3746674100232124
H 0.34469031794053595 0.9388530274164192 3.7533631272550583
O -0.5463854155869221 2.253988620262647 -0.18311722424572383
C -0.26701666665745827 0.3318180168279047 -2.906787883759625
H -1.020069990596173 0.9223645950954036 -3.412699228381225
H 0.4780862203901122 -0.04184825458164271 -3.5978174529944464
H 0.17949232010040375 0.9086075521986587 -2.105531040001902
H -0.9391102718590301 2.8538789812222713 0.47192790450292643
Rh -1.233767697421469 -0.5035142652183611 0.8981166678751507
I -2.1167524760724996 -2.7914285678426265 1.9754644945126498
I -1.2635561513954554 -1.3695614482305307 -2.0329678687662454
O 1.182813291310107 0.7722534245051843 0.13210721408232018
C -0.03371936844299485 1.1688103373718832 0.5673640507120609
O -1.0650826513174723 2.2121919851528604 2.430281704919452
C -0.2993418720201305 1.3125836172604681 1.9684291555220137
