15
## STRUCTURE-ID: 645bd7d26d9438182032ebad ; CHARGE = 0; SPIN = 1
C -2.604419157722656 0.4265778320894317 0.7670607089692282
O -3.5817855924753554 0.9761989598831544 0.9963375350477863
I -1.6821798325741844 -1.0364281094627394 -2.413654928183801
C 2.217642610139482 -0.1992493573421527 0.5905879297332328
H 2.4398741564533952 -1.2671309210573798 0.6476978778217606
H 1.9420998393250883 0.15748366742924483 1.5821240941927932
H 3.115092512645831 0.3100464828027349 0.23829934772400815
H -1.9466197915655794 -3.0167427424375863 1.6320005331299305
Rh -0.8117658133708573 0.06712235977423027 0.2064732751728584
I -0.5066940659225984 -2.3720283572264487 1.458723997420211
I -0.8345805146367099 1.141605235494028 -3.7229488025955555
O 1.3735162041320699 0.03669645905474143 -1.6126546009508742
C 1.1044158090229685 -0.009991332321649074 -0.4225399566696461
O 0.06866322069599513 2.9328714346876112 -0.04766483342965434
C -0.2932595841468827 1.8529683886327541 0.10015782261775233
