15
## STRUCTURE-ID: 645bdfdcb09f4814a0507c63 ; CHARGE = 0; SPIN = 1
C -1.5328139306148032 -1.0271048369790372 2.168200730274333
O -2.178527439429713 -1.2560947648388616 3.075812150555433
I 0.4348530817806402 -3.4492553537129815 0.6604351674181559
C 0.7517983269876145 1.9154313530028253 -0.9832450532565195
H 1.7033110072294924 1.3900678279979286 -1.0297611105247286
H 0.7139333383036005 2.5181690188800707 -0.07020014289610571
H 0.6597339175270487 2.6034872964274562 -1.826680292954499
H 2.70092365927458 -1.0574468265931043 1.8747800364727487
Rh -0.5483714151131057 -0.8809037989658689 0.5560475980872538
I 1.6086267987543654 0.09629554644888837 1.9446810248774051
I -2.863218415402114 -1.6407957999694667 -0.5660802484555881
O -1.556146774193267 1.3114591636182262 -1.2559384486350238
C -0.42705456078291687 1.0141398010214075 -1.0064235320799493
O 0.4374537446849053 -0.8975734932266102 -2.314000276665633
C 0.09549866099362996 -0.6398751331108702 -1.2276276022172716
