15
## STRUCTURE-ID: 645be433e8671272343adfd0 ; CHARGE = -1; SPIN = 1
C -2.685169991218548 0.7211511873379444 -0.21293649999772724
O -3.4840501779472905 0.9112779875034761 -1.01686825006396
I 0.05626740087796032 -0.541404674233037 -2.1953174461286245
C 2.8591634714720486 -0.42716912370732973 -0.8031855680422154
H 2.800252773360334 -1.5135168443284759 -0.7266174558801155
H 3.510192881746106 -0.03200120295756056 -0.024153300978438635
H 3.2453559923370126 -0.19904756417289515 -1.7963457219843506
O -3.290750399538827 -2.354288734265457 -0.8309999725942334
Rh -1.4576250100859085 0.25605251588458766 1.0712666709678809
I 0.04441884481689298 -0.7513487938243106 2.9318447076527026
I -2.048639673758838 -2.2030276150963664 0.5617211504165849
O 1.0791836071542715 0.9046990138068535 0.14344543641447696
C 1.5262857123381615 0.14538956001064043 -0.647507408015827
O -1.0023757277840915 3.0846031326866115 1.9393864686947306
C -1.1525097037693053 1.998631155355325 1.606267189539219
