15
## STRUCTURE-ID: 645be53f4c2f0a5e69799623 ; CHARGE = -1; SPIN = 1
C -3.3628759442073726 -0.7161936826378787 -0.6293970277902899
O -4.503265986370007 -0.6851259209522736 -0.7641867698624337
I -1.2447505225700226 -3.350972781137308 0.9298382872501305
C 2.5209797791968884 0.5207858106246137 0.994134396240596
H 2.4033967913566117 0.7545369253958075 2.0564872290353025
H 3.0136400438432593 1.3759650457839423 0.5272731452421041
H 3.106087970362921 -0.391714639392673 0.8845752813494286
O 1.5992769635941566 2.990234885789887 -0.9312860417600521
Rh -1.5723703014580068 -0.8473957581348461 -0.2879138365876518
I -1.9202812237585225 0.6034970880645254 1.973930054184365
I 0.1866960425336196 2.289009715413308 0.027813500149725116
O -0.8410158208633433 -1.216935265035348 -3.171266810642323
C -1.1868835044993447 -1.0586656784182316 -2.0852423395551933
O 0.6060261867253951 -0.6304008715456426 0.07154198476518402
C 1.1953395261137556 0.36337512618212037 0.40369894798109335
