15
## STRUCTURE-ID: 645be442faf31b6ceb52ff50 ; CHARGE = -1; SPIN = 1
C -2.861600532090352 0.4312458760918346 -0.09956737149761971
O -3.950404398407472 0.19108706685894855 -0.36392109646961196
I 0.36088563374665217 0.7831171611325981 -2.217583784973325
C 2.2452319734243287 -0.8229092726321946 -0.11464638511315928
H 1.5913257979119808 -1.6477124200681135 -0.3961708559833099
H 2.719667168167167 -1.0391235897600037 0.8450247744943796
H 3.0147186628453024 -0.7081787608565149 -0.883066565085479
O -2.5145238714283815 -2.225971723080886 -1.8205358247091115
Rh -0.9870466803546344 0.4101897072596352 0.28398344161287814
I 0.0097729957473498 -0.6386341610189905 2.597761519449992
I -1.4130091209705034 -2.120084681462545 -0.3231447772902358
O 1.8725631482855067 1.5146545106168414 0.4419670625577665
C 1.5611708328945586 0.46809017735701614 -0.004975251374109584
O -0.7954469461278212 3.243837142079818 1.2078295215691575
C -0.8533046636437407 2.160392967482557 0.8470455928118068
