15
## STRUCTURE-ID: 645be31ecd4fa4594060069a ; CHARGE = -1; SPIN = 1
C -3.101283048627659 -0.8319173048774926 0.5524177105697714
O -3.774909411784636 -1.327037798224786 1.3428045025164563
I -3.2900850284735084 2.1560460424979864 -0.4239367469139871
C 2.7293669288960594 1.089313737888564 -0.050562823035483845
H 2.855282707953676 1.765104624152249 0.793411211798568
H 2.263497443490377 1.6697992875424472 -0.8551252293178394
H 3.679553908992319 0.6911398311890659 -0.408709879958613
O -0.7144924448928519 -0.9143266881914106 2.0416875108879857
Rh -1.9806826323971345 -0.09645557617253471 -0.6984911974334047
I -0.34305480016443807 0.8259985726718182 -2.5094494082404406
I 0.002884768221882519 0.700523325733626 1.5285418007342872
O -0.76826781253916 -2.813576821355322 -0.8559032271185014
C -1.204344041596364 -1.7482878881432642 -0.840198097002124
O 1.7985098426323642 -1.1613226918475128 0.09980986340519016
C 1.8480236202890745 -0.005000652863413893 0.2837040091081106
