17
## STRUCTURE-ID: 645bbc76488e1436be315fb0 ; CHARGE = -1; SPIN = 1
C -3.3519519423773305 0.18361048924926324 0.08022637236727999
O -4.475180429678643 0.1738600564751631 -0.18422894108549223
Rh -1.556006390537831 0.48392554253095404 0.48208707065824996
I -1.5989093687789777 -2.584370022319787 -0.6625759010548712
I -1.8316881762555808 -0.13983670590594327 3.0622612554535538
O 0.6214015504053287 2.4955940684231814 0.8597299596976422
C -0.11662153444723039 1.6027601339854192 0.7626075929930122
O -1.8748913565875889 1.805578985298052 -2.1215666777948954
C -1.2581190009646415 1.0257678125107403 -1.4047760003383036
H 1.2382208673334891 -1.1434116111571815 -0.8939512672080827
I 1.0553767762877049 -1.5905802879890845 0.6165574381150435
O -0.1580469217663509 0.4101889525812646 -1.9509806315964329
C 3.1067891019002034 -0.9185623306287484 1.0103408942192673
H 3.767925911702304 -1.3995990948259247 0.29906095233228597
H 3.3545499498874594 -1.212026503765174 2.0238117721569244
H 3.133454894954173 0.1610432351877712 0.9163244242952181
H -0.05630393107649307 0.6460572803500106 -2.89492831321042
