20
## STRUCTURE-ID: 645bc0ae1de45c0cdf32ebb3 ; CHARGE = -1; SPIN = 1
C -3.1140563525902714 0.6634226727050744 -0.7711118249950325
O -4.2579336787069355 0.6485408465360601 -0.8544719182740258
I -0.20202035300524515 2.445348103157616 -2.8968721187359225
C 1.882515609569911 -0.5244172204463081 -1.7834988223724584
H 2.941249973845 -0.5933127221991041 -1.532744956528187
H 1.465636988504922 -1.5178983077473223 -1.9346760401895318
H 1.8026218132172924 0.043745698417523696 -2.709751457976141
O -0.2515443354560708 -2.5929031334417134 2.438396308773453
C 0.4550297162752323 -0.024905942077074947 2.352667572282804
H 1.034176749062619 -0.6057830018776905 3.0564313590360017
H -0.49098452377029767 0.26830475764969913 2.7899319091491397
H 1.0051412732094454 0.828131546344084 1.9726821019870704
H -0.5017891837579823 -3.4854291643222988 2.1931728862528215
Rh -1.23535758976857 0.7093833111192092 -0.9405307230672798
I -1.5675006908269935 -1.3664182793321236 -2.5482686476203242
I 0.045749883491162206 -1.2859627542831922 0.6993814053708587
O -0.8561532351010449 2.9781533523935 0.9468786211425942
C -1.0295469359796017 2.09586657294827 0.23249423218123708
O 1.6832024591140344 1.1312125456087045 -0.055043492279426086
C 1.1915624126733877 0.18492111884709436 -0.6550663941377017
