21
## STRUCTURE-ID: 645be909d1e19977f02fb1fa ; CHARGE = 0; SPIN = 1
C -3.5371265510325984 -0.8346286715243826 0.8681650033676457
O -4.591872871382652 -1.1511835741032361 1.1686205725744534
H -0.4177607209063772 -3.18705071771992 2.24438415350859
I -0.1223167098659248 -1.680451433876026 2.624294322729725
C 2.2922249309495206 -1.8597987093548487 -0.4208675643357726
H 2.9802667792762154 -2.3537608114408157 0.26247152200162266
H 1.381434913923967 -2.439932134956083 -0.5598298685819634
H 2.7469816193591163 -1.7766054438517558 -1.4092310665868062
O -1.3413056552360072 1.9220727244381526 -1.7338784137940904
C 1.126687001254504 2.357364442370541 -0.5071305569422933
H 1.6381239946266082 2.7391999519509644 -1.3817916929409253
H 1.8147176790292125 2.1628546868380827 0.3076722224682371
H 0.3266912183061212 3.0255380859591603 -0.2170338704943811
H -1.6125885007595784 1.8115255566472759 -2.644115812653666
Rh -1.8566182450805697 -0.3129218034877909 0.2924701384404683
I -1.6096039560261695 -2.464383313753998 -1.1656392801843376
I 0.21942793234499985 0.53155444660151 -1.037362961396129
O -1.9667696210276073 2.46638029303205 1.3862099366094351
C -1.9762731766956936 1.3798269294915 1.0282066552305713
O 2.5230360950103408 0.1672794929517929 0.8608883512171916
C 1.9826438439325893 -0.5028799962121996 0.03349820976235784
