20
## STRUCTURE-ID: 645bc5c0f3d22227bf2fb1f4 ; CHARGE = -1; SPIN = 1
C -2.231783592345464 -1.164487936272149 1.7285365708837048
O -3.2218072047085995 -1.1240887036718654 2.2951213467859852
I -0.2627278932606307 0.8188874832604903 3.5287678234508517
C -1.2993674842556484 -2.4551589498263975 -1.2278429189074194
H -1.9588502161867116 -2.4052440882571124 -2.094194803516839
H -0.44152417323009985 -3.078966704346542 -1.4896497777588609
H -1.802903160221017 -2.9107661024551366 -0.3787477095854681
O 3.8163871180913014 1.463556277363346 -0.36490888502542235
C 1.2628907595681265 2.352993285834073 -0.5876653088335351
H 2.143867405885865 2.7768704345387962 -1.0451518111312768
H 0.8841636528456243 3.003973182588641 0.19263823760689805
H 0.5003603904964447 2.1381670342969774 -1.3280135791139807
H 4.55887575467261 0.9129093831213533 -0.11667802104975203
Rh -0.5823478204682867 -0.43118784331017584 0.9832906616894792
I 1.0307456488848223 -2.4775646791882173 1.4963968645016108
I 1.8688740432709985 0.5234476141623846 0.27072676921336997
O -1.767530812834758 2.2519361098492428 0.38342591962507333
C -1.3016005902475052 1.215186007350669 0.5480206510276376
O -0.42778562304987744 -0.33061094783957573 -1.8389028020966665
C -0.7679362029071377 -1.0798508571987373 -0.9551692277654019
