21
## STRUCTURE-ID: 645bec18202837625052ff44 ; CHARGE = 0; SPIN = 1
C -2.9636353963557736 0.07091941747846316 0.20363945581467877
O -4.064004698047988 -0.14898850886968054 0.39090289165620723
H -1.9524427592480904 3.7213267460737303 -1.24846509904976
I -0.9695611939227601 3.2312993354850823 -0.1043266191969045
C -1.1254015706851006 -0.08090605832656667 2.7236057848579507
H -1.915973194561276 0.6565688685571186 2.865942856313177
H -1.5956883784421019 -1.0612105190790182 2.6437434894446072
H -0.4463580618681023 -0.06159274764391292 3.5763965953235766
O 3.177725808060204 0.3741213937901612 -2.632000678856589
C 2.55284445838461 -1.1845832137172188 -0.4885743082515607
H 2.2355675103624564 -2.2208136411759303 -0.4740913280705181
H 2.4865802881991517 -0.737552819065341 0.4942935988884364
H 3.545891272512284 -1.0804633629770213 -0.8988430518054098
H 3.119232353683445 0.907427624603217 -3.4262650959716843
Rh -1.2000699718771484 0.34868767352169205 -0.35556537319136566
I -1.8094661871255144 0.6184596527146917 -3.015493884910635
I 1.278599308177758 -0.13557502226493223 -1.8037525543177295
O 0.8114242464835413 0.4522296637315913 1.4217558304447906
C -0.3706584825494639 0.21740043147813523 1.4720449116937027
O -0.3969550530659437 -2.5242941055102674 -0.6068136563232731
C -0.3976502981141749 -1.3624608088040073 -0.7381337644917159
