13
## STRUCTURE-ID: 645bb844351454580f3adfd3 ; CHARGE = -1; SPIN = 1
I -1.8137731864139006 0.8760243133705323 -2.3698997661706653
C -1.6941439377992886 -0.4025813570032371 1.015308870329815
H -2.386955970557798 0.4455819203605481 0.9885264035267104
H -1.2886105810642345 -0.5008521066710586 2.025750714069845
H -2.235226489363772 -1.3147400135153513 0.7531887068449044
O 3.010813072829712 1.7948320210609356 -1.3380767280699888
Rh -0.2065005731117668 0.004627484906737428 -0.39026079499537
I 0.1856470786755273 3.014427372126166 0.27445508960305476
I 1.2986349594020838 1.512245164427455 -1.8485750824709335
O 0.7937743002951584 -2.7184243775583012 -0.8311489962645371
C 0.8224422627862753 -1.6685926471521941 -0.23835964110585858
O 2.2016166270932085 -0.3372266733953922 1.3511074277728847
C 1.3122824372288007 -0.7053211009568344 0.6079837969301429
