12
## STRUCTURE-ID: 645bd34d0e417c2326554eed ; CHARGE = -1; SPIN = 1
C -2.0708675381752477 -0.07663795526607985 -0.11185405441336392
O -2.423732586751309 -0.6907784574899124 -1.036617867370575
O 0.5408536814813857 -1.9301038778759054 -1.0981025637554542
H 1.1717100315020306 -2.5875121860584107 -1.4554925247631334
H -1.030510644469199 2.1350847774957185 3.3244593388364216
Rh -0.10025140561741647 0.37467635123093235 0.3289794231560601
I -0.5793876205906049 2.7786808442639637 1.9464170413501602
I 0.030237209634627293 -1.1154924008567768 2.4919054447470117
O 2.3977691267003363 -0.8967923119605153 -0.43858187597877013
C 1.176207615068647 -0.9189066512346047 -0.46485089232057925
O 0.6075061182244283 1.6836165501980735 -2.254887702169072
C 0.2804660129923239 1.2441653175535163 -1.231373767318707
