15
## STRUCTURE-ID: 645bd4340c0b780c6f6df39d ; CHARGE = 0; SPIN = 1
C -2.9861101334327365 0.635170011355045 -0.48864414888765934
O -3.7951542777971343 1.440215329804622 -0.39274889237164495
I -0.14565462454828793 0.28601761830996314 1.9083064977283772
C 2.798974451798728 0.8211477503334156 1.0772706673231875
H 2.831011930233099 1.3175787726803163 2.0470789141361503
H 3.5428757720224073 1.2327544144814817 0.3955454775434962
H 3.0081938100290033 -0.23605773322421866 1.2599437720129518
H -1.9058255396610473 -3.6883576549043036 0.8812665932415533
Rh -1.627590693446996 -0.5922310868927209 -0.7178094545596108
I -2.9947339600106337 -2.5540859331135732 0.6423143648713756
I 0.33434586388581855 -2.234637294216601 -1.3215446105341426
O 1.0862310581128376 1.2748972056783685 -0.5761041811820518
C 1.4765170328280217 0.9368546669503306 0.48351429601665874
O -0.6235864633420554 0.9591736470831341 -3.061157851496341
C -0.999494226671127 0.40156028567458374 -2.1372314438425533
