17
## STRUCTURE-ID: 645bbcbf4e848f401c3adfd8 ; CHARGE = -1; SPIN = 1
C -2.983877637315718 -0.2246063653071167 -0.061092774476640486
O -3.935701454322891 -0.9011930496726974 -0.12447205972981513
Rh -1.690326296147624 1.0809314976593447 -0.1560496892084421
I 0.4100977906329054 -0.25375686970021505 -1.404758744223817
I -0.642999217156315 0.620683770131105 2.265850251276009
O -1.0351392508052635 3.989999464048943 -0.4421379470631349
C -1.1655698340459666 2.8415159205152913 -0.26288270187841994
O -3.896672286687998 2.279338014348966 -1.6780373714112653
C -2.8353581004163693 1.6524203486229303 -1.6927546292874283
H 3.2381258474601067 -1.937103701823067 -0.26176354637046045
I 2.509410524413406 -1.5192575682441325 1.0926000892110097
O -2.354993022371866 1.2818206446888123 -2.915345172236031
C 4.157804668201206 -2.517296917560864 2.1927052791232944
H 4.143216720183337 -3.5697176282773224 1.925265531759612
H 3.9409207888499163 -2.3775521459632865 3.247783150917492
H 5.083592484039921 -2.022088763572227 1.9150338842855503
H -2.9425317245107783 1.5758633501055281 -3.6399435506875593
