15
## STRUCTURE-ID: 645bd6e6ce0de77c366006ab ; CHARGE = 0; SPIN = 1
C -3.2221083083988074 0.8538622753371011 -0.13273102710511414
O -4.330346870344543 1.086537822124624 -0.2917974182730562
I -1.914730320584553 -1.842171530321321 -1.1120808516101188
C 2.789516844838561 -0.7099650271088067 -0.6435796550898643
H 2.921708809468648 -1.215404823941819 0.3130259116328311
H 3.580877824373353 0.021567483862892953 -0.808140753264368
H 2.8578744938867096 -1.4342489873538997 -1.4585753251923224
H -1.1530838466247355 -2.476046408416485 2.4181581228281703
Rh -1.454825915750416 0.42884272668369133 0.08313561507936747
I -1.2629463181856124 -0.998972044081189 2.9634554263292197
I 1.0482483916148522 1.1119410396326943 -2.4721462165205987
O 0.6084826771600399 -0.11997246046685019 0.1399562418289816
C 1.476894405091856 -0.0657165520146711 -0.6851125902297742
O -0.8613841239069615 3.2167408531153905 1.0060251046114705
C -1.084177742638232 2.143005632948373 0.6804074149754451
