13
## STRUCTURE-ID: 645bb957681a96349f600697 ; CHARGE = -1; SPIN = 1
I -2.4349835022867463 1.7396433965288147 0.5290787027969364
C -1.0013763662497621 -2.048073890453587 0.5772921248231583
H -1.7001804797880482 -1.7544895245303274 1.3648692744659208
H -0.10777754505047304 -2.4129401745232695 1.0877869553951636
H -1.4325901645719286 -2.819963028357838 -0.060300184800345366
O 2.7866538407850006 0.5852082787082197 -2.453807757692231
Rh 0.04209470581899092 0.970027862548638 -0.08527688831796568
I 0.9695396360962903 0.536113919327113 2.3771681417913166
I 2.520039482483724 0.23156270679656724 -0.6539480814754686
O -0.7667004346510422 -0.6328829214151674 -1.3973741674569933
C -0.6575738840928367 -0.8598643240262664 -0.21128798961950698
O 1.1380867017799758 3.7422361095659262 -0.632737216538142
C 0.6447680097268607 2.723421589831175 -0.4414629133718407
