18
## STRUCTURE-ID: 645bccdaa0e24c0a21108f10 ; CHARGE = 0; SPIN = 1
C -3.567075561937859 -0.37015171337261893 -0.4141919287102754
O -4.358845182559195 0.22724194425975533 -1.0075585092870523
H 1.4271699991857623 0.9554703980418193 1.1749734890783605
I 1.3646990749474524 -0.4195398777050768 0.38994149634515624
O 0.44216294759666064 2.0107605917073457 -1.0369151812746136
C 3.403257456025744 -0.7990183491786567 1.250532222343475
H 4.069934106542694 -0.034566970570870034 0.8669195028857104
H 3.6990840856681455 -1.787769745898721 0.9160753311487019
H 3.29894879730506 -0.7634350320991102 2.3302545603878224
H 0.6904861221771346 2.8545588989868564 -1.467653696256638
H -1.1921731899904455 -2.397745145386293 2.6300616774859957
Rh -1.5132388201509652 0.01543499603328294 -0.37608797613957373
I -1.425978593496272 -2.9165079517323407 1.1525949144280563
I -1.6926880151987072 1.3353584260189633 1.8673397636096478
O -1.5720074722259263 2.3436180227732653 -1.9339896105198324
C -0.83275483212791 1.659730959555142 -1.2486133094601595
O -1.0333312178632534 -1.1525318804905635 -3.0818508671669225
C -1.2076497038981227 -0.7609075709421631 -2.0118318788978113
