15
## STRUCTURE-ID: 645be3eacd4661289874b444 ; CHARGE = -1; SPIN = 1
C -2.239766464458683 -0.22111442618149277 -0.6468690624107098
O -3.1892481142256592 0.5469907071228879 -0.5118360247987865
I -0.4869677475377095 2.111535004181669 -2.113461241216802
C 2.253751676545548 -0.2930078551162691 0.4122440206452185
H 2.3970060820806447 -1.262051688487598 0.8964545533503447
H 2.241044507793686 0.48797911900914775 1.1675854445853646
H 3.0752870023578973 -0.13309366366901543 -0.28680823982898623
O -2.5710548661567736 -1.4140708339800903 -1.1693728934335876
Rh -0.647100027119288 0.6389330285228292 0.10090396172479991
I -1.0923660912412938 -0.9983728099741652 2.104811228056393
I -1.491064645623805 -3.0353975912806095 -1.1528213226426356
O 0.8222283659497351 -1.105912186902504 -1.3278418605526128
C 0.997437902789817 -0.3979381370967031 -0.381046206033523
O -0.1768628456470184 3.014535117283217 1.7428088619519524
C 0.10767526449292843 2.060986216568645 1.165248780603652
