20
## STRUCTURE-ID: 645be748be55dd28ac315fbe ; CHARGE = -1; SPIN = 1
C -1.7918821094637152 2.9654530874771003 -0.7133905781528095
O -2.800718892888189 3.5067540260320924 -0.6345708047691438
I 0.6060099433794793 3.8208773101842155 1.3716306514294307
C -0.6900032894781148 0.946154328816643 -2.3058719396761
H -0.10782145791224046 0.022475362306820113 -2.345412110578629
H -0.4404747240270167 1.5640767589025029 -3.176238177388293
H -1.7481505519846339 0.6833936716707544 -2.346227852368455
O 2.4723145965617124 -0.7146421446481086 -0.6877279524148077
C -1.6574057730252243 -3.6303926868886176 2.5929505065827056
H -2.3754182526205763 -4.140077397550807 1.965485423800375
H -1.5364717736593585 -2.5984375292292814 2.285315102059528
H -1.9280138565233589 -3.697728129587867 3.6374407340901316
H 3.0558315748486815 -1.395058950029151 -0.2921319392316919
Rh -0.14914475037899555 2.081039954288172 -0.61964369653307
I -0.9265503057726919 0.09398188977495671 0.9099984772201422
I 0.2271110776265655 -4.611795604414194 2.3474193289994236
O 3.5321443651231084 0.8048837938269161 0.5867620615690916
C 2.6862215980098356 0.495246107160331 -0.21693446796082
O 1.88806782836687 2.3235779498469773 -1.6092734470046743
C 1.684354753817888 1.4802182020605406 -0.7495793196723395
