17
## STRUCTURE-ID: 645bc296bffc464230099de4 ; CHARGE = -1; SPIN = 1
C -2.020787268309677 2.079865171294612 0.3159597076154004
O -3.0060042836162535 2.648197294607515 0.47556624390027685
Rh -0.37622936650225763 1.3008986941253657 -0.17635586896941818
I -1.6725600478833167 -0.03542152389382219 -2.0647452965706354
I -0.1125466732186977 4.0671199263288615 -1.6260012176150258
O 1.611484163392633 2.528736387468647 1.6920560383032388
C 0.7767533726845408 2.024893962147338 1.0747038530982533
O 2.0774060520017956 1.0000520400738624 -1.7134465837655892
C 1.3644115567476953 0.563150983911869 -0.8154325329885008
H -1.1098142392804153 -2.460263198187309 2.4253064909904585
I -0.7879965183585814 -1.0696983830338243 1.4746631241669306
O 1.825797360461517 -0.5346501161231212 -0.13580252909883606
C -0.3613779687204139 -2.645016316777333 0.0482971388012158
H -1.312358881479173 -3.084197383848653 -0.23458015228194046
H 0.2962597868351715 -3.347486147358359 0.5475355966759218
H 0.11626510336910653 -2.1976716676936237 -0.8122267490844157
H 2.691297851876328 -0.8385097230420199 -0.4754972631773254
