21
## STRUCTURE-ID: 645be8fe00389618e3732d3a ; CHARGE = 0; SPIN = 3
C -2.7051797614875883 -0.7507476285481293 1.1651630219756521
O -3.2444081754591507 -0.948265319452402 2.1863258124530813
H -0.15959070733196873 -3.938860265622477 -0.5593888740599358
I -0.4198808621393252 -3.444397188942338 0.9369787249654014
C 2.3099860737890956 -0.2817378321340048 0.6136570121038611
H 3.1967097678837066 -0.45545041708308553 1.2244072335575842
H 2.277659418506901 -0.992792662309849 -0.21144130947219147
H 2.3482251344027008 0.7290413486753762 0.20775986992080908
O -1.2950220366145115 2.1424781351773436 0.048475917981783856
C 0.9236196959600618 1.1400357888026356 -2.5114736319768256
H 1.9314800621673216 0.771939370399305 -2.6652336620850163
H 0.8631970476940424 1.8085852158691074 -1.6602142840817624
H 0.5396927111088168 1.6111277448659804 -3.4098167437651536
H -1.4861871345353768 1.7396669169778014 -0.8206231271934086
Rh -0.7628665383770397 -0.676081869271304 0.721624440100075
I -4.169099747472839 0.03475749037001054 -0.558744410800188
I -0.3426576595696313 -0.5851355853887549 -2.1036047332601893
O -0.9699373697720118 1.6546790918259793 2.184079572508432
C -1.0249559645682462 1.2782707738121875 1.033254849753513
O 1.0962791585278846 -0.4385311332160874 2.69011589665831
C 1.092936887287116 -0.3985819748073118 1.488698424716036
