15
## STRUCTURE-ID: 645be1c65daebd50a160246e ; CHARGE = 0; SPIN = 1
C -2.0981325132608517 -1.3452652616588723 -2.2134983935925656
O -2.854456443364969 -2.215037509427276 -2.2858974273608275
I -1.5324373825807796 0.44210915036598114 0.32165362152687993
C 0.42932596182988736 0.5791518521124728 3.685006274360868
H 0.8046159615656233 1.4664053451940506 4.213923522913358
H 0.3676027885677978 -0.2650775509859127 4.386847883657015
H -0.5853600401065993 0.7966108309571022 3.3120004440592097
H 2.6427026931162505 -0.33661722595609356 -0.9047425628141285
Rh -0.9398081112604985 0.06972391884994822 -2.1957526577651167
I 1.6703022821010711 -1.552564941318242 -1.1985141092173435
I 0.5086908356675667 2.2806365458293434 -2.3531391074874595
O 1.922860197537304 0.009393519185588057 1.7880593128995346
C 1.2369163139200066 0.26818762724735956 2.6337673675102224
O -0.7789344837279529 -0.130622339552199 -5.171396594705951
C -0.7938880600037703 -0.06703396084345799 -4.018317573983762
