15
## STRUCTURE-ID: 645bdf6bc0c7034bf2600694 ; CHARGE = 0; SPIN = 1
C -1.987510248629768 -0.4652681926413065 0.9310862758618144
O -3.0037182646128353 -0.32066697204423644 1.4150607233412078
I 0.38575928201846554 -0.03425302678801108 2.6352013493159667
C 0.9285401060111752 2.0164826325639917 -0.2747534862228551
H 0.9707218205083776 2.809301861297581 -1.0232781149430639
H 1.8806439257059875 1.4917583412334152 -0.2240558652253589
H 0.7551376415098241 2.4721465318526974 0.7047305332838635
H 3.0921736351245754 -1.2522384269342501 0.8161524268076071
Rh -0.31663668976625103 -0.8139837836891813 0.19952552206695578
I 2.2633426656901094 -1.4899648507277474 -0.525268434194724
I -1.0020858545121263 -3.595481372304995 0.9151438651783601
O -1.1806555339547582 1.4587631092463247 -1.246192973619674
C -0.23335098093033677 1.1508549577222016 -0.589049107549237
O -1.5234375447105841 -1.9384245494298118 -2.325559321366434
C -1.0289239594518635 -1.489026259356653 -1.4087433927344004
