15
## STRUCTURE-ID: 645bd7b21fd58f321b099ded ; CHARGE = 0; SPIN = 1
C -2.582927076217976 1.8225849797580198 -1.2980229139131516
O -3.5197930129768085 2.3217099361121796 -1.7211610931852668
I -2.1595152910708775 -1.9195455538490886 -0.33600348951063475
C 2.811141930572923 -1.0809195209822224 0.1861655215373985
H 2.7348705616222126 -2.160895381756987 0.32796780899450007
H 3.5626328496570707 -0.724760070755839 0.8924185225038264
H 3.115498785221682 -0.8598912753992922 -0.8369635693640816
H -2.781441848149766 -1.8840733897781872 1.1163936150635827
Rh -1.0538361182506066 0.9963172801921352 -0.716556371396994
I 0.7730925565285551 -0.8098695086708081 2.4844644425326496
I -0.4688213080818918 0.6120007425379161 -3.2513565498693198
O 0.8435420642531616 0.20122958971388924 -0.27269120748395054
C 1.5161775399330542 -0.4567468141133229 0.4679580053722404
O -1.4878381478468 2.2433567348632937 1.9735393660758775
C -1.3027834851941495 1.6995022521285752 0.9838479126429143
