12
## STRUCTURE-ID: 645bbcf6f570936e486ee1d3 ; CHARGE = -1; SPIN = 1
C -2.6570250355602045 0.06473261906207 0.08889584911064669
O -3.7977701934314676 -0.035100659066338365 0.09919263798991033
I 0.4612539942265568 -0.45439111665720816 -2.5789871549859122
O 2.0036055562968493 -1.2855530724543216 0.5295406890180909
H 2.7843378544096185 -1.4698173775209162 -0.0342606561177557
Rh -0.7769454907490955 -0.005422120590512475 -0.1261359548689065
I 0.4780128993847074 0.25245111433815115 2.4781628387064796
I -1.1927420649756189 -2.5992575308225887 0.3257241060131326
O 2.146675624386258 0.9340716365918807 0.0832630158129343
C 1.6128794707250245 -0.04138188241705608 0.5366475747236004
O -0.45798334512134237 2.8663283821710435 -0.8580915318025857
C -0.6042992695912747 1.7733400073656993 -0.5439514135996224
