20
## STRUCTURE-ID: 645bc3fb3ce26607a1108f0d ; CHARGE = -1; SPIN = 1
C -2.4934688947260257 -2.072943448005692 -0.136271807332777
O -3.5041583413482993 -2.5909421187651436 0.02098056883835967
I 0.5111686823861517 -2.1079360262087676 -2.8969601107263876
C -0.6260261630647111 0.09459080044695467 2.5005158472430824
H -0.6901442037047859 1.0019758649058044 3.1010960937283527
H -1.5213898293629886 -0.49846943236525726 2.6918760756798874
H 0.2533072424681729 -0.47947381185102156 2.7848192852518605
O 3.4949331666229853 0.564705651283013 -0.6936431137392494
C 1.1795927362656704 1.76342965002429 -1.1895654389513077
H 1.9910761400823855 2.4566999532415927 -1.0217025893023455
H 0.21595219609010735 2.1885948079068145 -0.9333215713707698
H 1.2020739418491981 1.4011366743672662 -2.2108215582528503
H 4.170786536554189 -0.06285312239932368 -0.4332004178748809
Rh -0.834336831803638 -1.2966566012133334 -0.44114990516340136
I 0.2625416265461178 -3.073138415769509 1.1605473376794135
I 1.4973298340209713 0.10828206393683001 0.08523105496536465
O -1.8923200333653973 0.674134169799122 -2.42097134452943
C -1.5265609862914098 -0.0881543763023939 -1.648597329514002
O -1.1339716376028122 1.5060417820112988 0.6259327282145386
C -0.5563851816159809 0.5109759349574097 1.0552061951566225
