18
## STRUCTURE-ID: 645bb36f992af35f9c32ebad ; CHARGE = -1; SPIN = 1
I -3.6967069794097203 -0.3212313753145437 -1.7647972881263363
C -2.40431351680197 -0.6178979746431165 -0.008922110824453213
H -2.7783752041231966 -1.542194411181769 0.4415881870118365
H -2.671038037663823 0.20822766040053373 0.6590002912311296
H -0.8378774608209139 -2.0469683709996063 -1.1298851414095337
O 1.9735492745817858 0.25566580460128696 -0.5093770737028819
C 1.000712654784144 1.3593857655374404 2.635629182379177
H 0.20503154581032004 1.8963049364527294 3.136254765296915
H 1.2070868592586448 1.8008309924150359 1.6679647437425413
H 1.8914989669835456 1.3044009830679615 3.2477611450383037
H 2.924802543732227 0.07327023905323952 -0.36678947291061104
Rh -0.6393106413559845 -0.514354565573442 -1.0751847908925927
I -0.6587896225225823 2.1471793224125792 -0.8471522016587237
I 0.3114450525053544 -0.6729773022841902 2.2982503300355903
O 1.8928872873422629 -1.8916131599255128 -1.088405571508785
C 1.3160201247583565 -0.8335506541892231 -0.9354062844346047
O 0.6961491983943633 -0.2574582633640269 -3.717173241225592
C 0.267227954547197 -0.3470196264658831 -2.643355468041466
