20
## STRUCTURE-ID: 645bdb114b7ee57b8032eba4 ; CHARGE = -1; SPIN = 1
C -2.857127376948365 1.1491038333710086 1.879525713933335
O -3.740074061785444 1.6436970827643875 2.4463937761627
I -2.012020193963948 -1.8923613928516256 2.3351508355850763
C 1.5728191708871513 -1.6158738140450695 -1.2766143247936421
H 1.567944442103321 -2.6976078940868238 -1.3924574387190007
H 2.3167877793869605 -1.3184993288117324 -0.5423522810419923
H 1.8119603450843078 -1.178592686693612 -2.2452201458289216
O -0.7164668995599717 -2.356978408692867 -2.6637557509364176
C 1.9863794206309007 2.6027531412915677 1.4370634574592782
H 2.138307415346993 3.5913741179964336 1.850591000632383
H 1.391382226062894 2.6535084644688958 0.5321020935847283
H 2.9278550927063223 2.0978708746915955 1.2614778807115392
H -1.5213086519185552 -2.6072758195985273 -3.155032643967596
Rh -1.4813427732199715 0.3675304787111778 0.99494295349651
I -1.4529330414626829 2.445835510648175 -0.677253258263556
I 0.8782346737988359 1.4453635253199597 2.8960335271455397
O -2.0986810559446005 -1.1869056423020523 -1.3362989769859568
C -0.9759066119718868 -1.5659797936210735 -1.6353099528363606
O 0.043043016008829704 -0.42271348145780685 0.13995799261923558
C 0.22114708475889375 -1.154248767101943 -0.8489444579568092
