20
## STRUCTURE-ID: 645be6b5ad1eb14d9f2fb203 ; CHARGE = -1; SPIN = 1
C -1.8169308213183828 0.6559749165441937 0.35406208064051636
O -2.8637932678409532 0.5748663467195649 0.8112277784613178
I -0.6320032993875604 3.659610635647929 0.00042460541803550654
C -0.30444393133707287 1.114750521813699 -2.103223667149446
H -0.15954919047463337 0.0702480237649557 -2.4015040347543155
H 0.4317872073311684 1.7447272663087223 -2.6063879849645915
H -1.2983730390341577 1.4464851291150178 -2.404452573476619
O 1.9139836563456885 -0.8133308196020889 -0.877143539329183
C -1.9093266959110424 -2.505686625234328 1.8563307806962475
H -2.0360053215003693 -3.5447899146811253 2.129729795286499
H -2.8640996839406103 -2.0012147912975546 1.7689452872129712
H -1.2642380989359434 -1.9902242881674226 2.5588922286264753
H 2.3588502878457582 -1.6859917113399014 -0.8615633659740383
Rh -0.001694443589006165 1.0888861121419111 -0.03153259704993356
I 0.623653706917213 0.6011137562713378 2.565382341060586
I -0.9590098739752996 -2.4511865833284414 -0.07263389461800393
O 3.658154133323909 -0.08273699827376019 0.32111976914512746
C 2.6109176454003546 0.12850011277138246 -0.24306979031395923
O 2.605624085898777 2.483887325245705 -0.47159748538625174
C 1.906496944182197 1.506111585580186 -0.2930057335314
