15
## STRUCTURE-ID: 645bd725a994be0ada6ee1d6 ; CHARGE = 0; SPIN = 1
C -2.60838172351654 0.3868188513719927 -0.2979353206609917
O -3.7269614164741647 0.24557400373987412 -0.45243109376452145
I -1.0031699898452222 -2.02732565105097 -1.0053741467876676
C 2.2656180120143903 -0.8125053728598083 -0.8541208397484773
H 2.543436770921477 -1.7281134050942073 -0.3228161241019796
H 3.144803858595599 -0.16227741419981542 -0.9046468892334595
H 1.9451805201251262 -1.0532738480693675 -1.8651857249078265
H -1.5047706596050154 -2.2168099443509766 2.8886397797770753
Rh -0.7320581477880345 0.5077998932806479 -0.2552132369172346
I -1.4892664526075337 -0.6641390036412879 3.1531748357368485
I 0.647032197980535 1.9038759400521872 -2.2184719942162463
O 1.20092938180691 0.1949718584205235 1.0802765769449658
C 1.2569769429935924 -0.12028703533951528 -0.06368367598459763
O -1.0194773069163985 3.3052280467952313 0.7514564751933057
C -0.9198919876842581 2.2404630809450565 0.3663313786704253
