15
## STRUCTURE-ID: 645bdfa9b66cd011e00203c8 ; CHARGE = 0; SPIN = 1
C -2.1685776574154176 0.4179657060270996 1.0805129114693597
O -2.912663737745314 1.0763028170306788 1.6304849802009975
I 0.3252073516501234 -0.6143300971551323 2.5702792867673545
C 0.4689151081560692 1.7968714662173684 -0.1557941800289999
H 0.6761992646260375 2.4838912181685324 -0.9795155941668566
H 1.3939726899115832 1.6780430743351193 0.4217328218004773
H -0.28767169628322425 2.2087271033308737 0.5083739348456972
H 3.9521103080557602 -1.7947454746270084 0.70580337957562
Rh -1.0385820573902498 -0.8711457885655376 0.34869868621241396
I 3.817731541356587 -0.6178734164213324 -0.3185483485055022
I -0.05751213368171083 -3.2619084210683695 -0.19422320567185164
O 0.5247156144369304 -0.019855687072184873 -1.7348317919342326
C 0.14826414785906986 0.4845568210822998 -0.7393955631341921
O -2.738107505857035 -1.659451728195505 -2.0081247082599085
C -2.104001237679198 -1.3070475930868954 -1.135452609170355
