23
## STRUCTURE-ID: 645bd33a876d8e0ed53adfd0 ; CHARGE = -1; SPIN = 1
C -2.0996217911878494 -0.44202118608557356 1.5415578677260537
O -3.173188157086349 -0.8881911926787608 1.7117912990627446
H -1.0696109071435909 2.533266096132944 0.5958167927601903
I -1.1303976878256765 1.3594659402019893 -0.49143408998323684
O 0.9228283167146214 -2.2066016569402502 3.394700494452304
C -1.2266857101760902 3.168585288342113 -1.8940365677139486
H -2.1013832701797788 3.7476162464038003 -1.6253740637914043
H -1.3064479080041793 2.7868570322820405 -2.90472602381929
H -0.31148358116205177 3.7326792469248433 -1.7555808271634714
H 1.6007877815408265 -2.850373407600275 3.6791651988045078
O -0.6918779479656466 -3.170266520277525 0.5894821915280145
C 1.7179960476349705 0.40649984855145804 -2.307431906044115
H 1.448409051556034 1.395901614283403 -2.657095312848047
H 0.8552771959603708 -0.2515055369466928 -2.2889526882825524
H 2.5180034214607456 -0.022661219159112986 -2.897619349277714
H -0.8419354446576022 -3.7512235876154048 -0.18410518572057505
Rh -0.2510398938574933 -0.47527566461673826 1.5348034782145552
I 0.2327355632402644 1.5242365736795709 3.2005032028304647
I 2.431706628307213 0.5940929035998519 -0.26958973665347624
O -0.579919649743554 -1.6510413739533627 -1.0242561013132903
C -0.519606743420341 -1.8769223142193352 0.1896466156776812
O 2.318561317352326 -2.0215726104935805 1.6777427067788697
C 1.2568933686428263 -1.6415445198154428 2.1849920047757307
