20
## STRUCTURE-ID: 645be6250e56fd3b0f7e8a93 ; CHARGE = -1; SPIN = 1
C -1.7763711642590743 0.3935085976409196 1.9332421183450474
O -2.5692436124742177 0.23612450490522563 2.7626661309178107
I -2.7578370914198262 1.8988961834064226 -0.7666581449082723
C 2.294524830055025 1.2491647311479535 -1.4600680249760187
H 3.0221446826554157 2.032392352966114 -1.6814798014057017
H 2.2745525792088994 0.5293265748193448 -2.2792951967788033
H 2.588229535475089 0.7652711957678908 -0.5309584324836306
O 0.44333811154441777 -1.3982408663795223 2.0597641864795677
C -1.946225062754181 -2.475241953533222 -0.454921074998563
H -1.9988187494252097 -3.447764434612479 -0.9277431891238795
H -2.8781815659087235 -1.9306189030122949 -0.560275437093758
H -1.6576293792138197 -2.5464691759141984 0.5884686088036591
H 1.2333815046158016 -1.8564124144954206 2.4122216121102347
Rh -0.6313657393862799 0.747046134122401 0.5264934212870751
I 0.8528632367427781 3.1781729210184873 0.5245642881608398
I -0.41511521367953086 -1.3269259062972532 -1.4595873848471466
O 1.9656417672879734 0.10231693344363472 1.448585683201124
C 0.7865817134511865 -0.22821366208580476 1.467096885397248
O 0.20391093580415137 2.179490404796639 -2.2387806169432682
C 0.9656186816801638 1.8981767822950792 -1.3633356311435039
