15
## STRUCTURE-ID: 645bc6c03ca5732101099df0 ; CHARGE = -1; SPIN = 1
C -2.759597921279479 -0.11411890397957113 0.21808881276077038
O -3.3833429573896456 -0.8370103785990738 0.8727417304015838
I 2.280127595082086 0.22255578198672193 -0.5033665747793405
C 2.279064814021611 -0.3582430542256938 -2.450551723172714
H 2.5973673787071236 -1.3573377833377298 -2.678076876496683
H 2.298072682554972 0.4109232046650482 -3.1992348864237385
O 0.7334905612522105 1.0446185130953067 2.1056401048628945
H 0.8138183122529209 1.4548928647448096 2.9921942884116124
Rh -0.7684105298065705 0.07948082363317849 -0.07950846760812426
I -0.7597893062775646 -0.9362789389443867 -2.6283021688728474
I -0.7915022557804304 2.63839559474502 -0.8762275645175885
O -1.4495691042906544 1.0215879517131463 2.5378239092036763
C -0.540642984570662 0.8079803670055833 1.7579703842748533
O -0.17013013622348003 -2.5296800113828923 1.2483553480998637
C -0.37895614825248763 -1.5477660311193766 0.6824536838557195
