20
## STRUCTURE-ID: 645bdb6d6ce8056610108f0a ; CHARGE = -1; SPIN = 1
C -2.2009194565836374 -0.5636659712817745 0.7233062889497777
O -3.2110968929066894 -0.28758187386865597 0.23322371613393092
I -0.2337550751320195 1.3482934784046408 2.7066953281465453
C 2.5528179068828845 -1.1772073842744946 1.98846299813414
H 2.7613421595450207 -2.1998616532732473 1.6709562896482015
H 2.068344056655442 -1.211077059814214 2.9632766649688205
H 3.4920442020115194 -0.6267759966161229 2.0492323774987224
O -0.7320925945171814 2.942361418271681 -0.5278272882302211
C -1.8444545090064164 1.3789704563265146 -2.505935832024267
H -2.2596390163989333 2.3400242365040786 -2.231702385437232
H -2.5241395266902598 0.5735076678690126 -2.2476592827007167
H -1.5795489296390945 1.340138803577076 -3.557101397370335
H -0.3340355974856957 3.105989708566337 0.32645048774585883
Rh -0.3428327906443455 -0.6923737423576841 0.9739091381866606
I 0.4496740665017831 -1.013504304164583 -3.0172527541956744
I -0.07027114329431235 1.2005857026118678 -1.3209806662687338
O 2.1904793975768904 0.12546795481434722 0.050596205719348274
C 1.6501709536841849 -0.5554620167870908 0.9322049773106531
O 0.20648519642596858 -3.5622745600250014 0.27080015550558567
C -0.038572406985098784 -2.4655548644826917 0.5193449782789622
