15
## STRUCTURE-ID: 645be323ebb8f12b4d79961a ; CHARGE = -1; SPIN = 1
C -3.2380550465754436 -0.7953313328792663 -0.8566422197000194
O -3.975661944204279 -1.1519872330799894 -1.6591410730263292
I -3.522820480410523 1.851416713500321 1.0253500918273883
C 2.7542022914327395 0.942251842917701 -0.7262611178610144
H 3.550098064848499 0.29994507664186926 -0.35094873339887206
H 2.6918341639537924 1.8548887556955247 -0.13177919759746773
H 2.942221333382668 1.2497519658670115 -1.7560592129955657
O 0.8547599221988554 -0.6315089325139159 2.754765356032384
Rh -2.061031354794035 -0.24350234841978324 0.45323953229570435
I -0.2059982203340329 1.457309721362748 -1.451003468842044
I -0.5796314991335345 0.5392390062771383 2.4401381946081253
O -0.6951783582601823 -2.8862231067118915 0.7008697637733871
C -1.1803215465710777 -1.861933222976316 0.5165831663046546
O 1.1844264331983112 -0.8550449566866176 -0.30027156953750966
C 1.4811562412682395 0.23072805100545493 -0.6588395118829309
