15
## STRUCTURE-ID: 645bd7b5a64f4919890fad20 ; CHARGE = 0; SPIN = 1
C -3.081220903280877 0.6438925736036639 -0.042700129674527854
O -3.9868157218843714 0.9241264183637798 -0.6814391282919059
I -2.6436624562030375 -2.2839675507258197 0.7354885942830189
C 2.6550495210457794 -0.32154341941543707 -1.5442718944943803
H 2.6307143528006907 -1.368773022194591 -1.8500635214285353
H 3.4812361923890087 -0.14626081808032762 -0.8559333716654856
H 2.7801411701745664 0.26481101452972955 -2.454960910859129
H -0.4566731123890742 -2.1874519008209856 3.299255081226115
Rh -1.6586724660492307 0.12459865555538233 1.000574613290157
I 0.011417350242692864 -0.7018444385152847 2.9780289191148013
I -0.3851772145573689 -0.24980481037418714 -2.2029346366102605
O 1.1541769067040721 0.41610541387081845 0.19581259943749812
C 1.3940649729039702 0.025601675937105592 -0.8969068864628407
O -0.7859332762535317 2.9790511223769776 1.1759537416706765
C -1.1086453156432883 1.8814590858891769 1.1440969304647493
