20
## STRUCTURE-ID: 645bccde5640e60c6e2fb20b ; CHARGE = -1; SPIN = 1
C -1.2206622054421226 1.4160441670808566 0.003070204811590442
O -2.1148091865435488 1.6302245285475667 -0.7023068504604998
I 2.1596607631699323 -0.5835881240298967 0.3029493649826845
C -0.8117187118475382 -3.245263587930624 -0.8909315167018207
H 0.27494456899582215 -3.2579656332403775 -0.8529469602759807
H -1.197640878093129 -3.5791144065358678 0.07076435203414026
H -1.148083445118408 -3.9291303566001496 -1.6658787516132667
O 1.8695302363025659 2.478840210054382 -0.7185376303988602
C -1.324025720873466 -1.8501511511521502 -1.1467616651001733
H 2.0929525935460385 -1.702265920830543 1.431294737940505
H -2.4057129091350857 -1.8174000040425051 -1.24640296002888
H -1.0208927702235382 -1.1562019108081059 -0.3650825405266345
H 2.201608794044874 3.190983785090628 -1.3006280374849575
Rh 0.15251051131614193 1.4342169130467128 1.2409780939716943
I -1.0027332018449688 -0.3365070790411625 2.8767193347276803
I -0.5455662927583752 -1.0090877045218385 -2.9905512542390924
O 0.4945825527793343 4.069209757568848 -0.012430251833052073
C 0.8517952432534196 2.8985454091401732 0.07865245657912932
O 1.579678937782469 3.0463824476152936 3.3216787659524742
C 1.1145811206895717 2.302228660588764 2.5663511076633188
