20
## STRUCTURE-ID: 645bc934d64ce225325a4848 ; CHARGE = -1; SPIN = 1
C -1.58106219257063 -0.29662314200893014 0.7383681723774332
O -2.504788702118398 -0.918554086082101 0.4449632576929549
I -0.8271709699285525 2.4803145044666572 -0.9893728020042455
C -0.46679437878258934 1.4962187801557005 2.9596594764639623
H -0.07352193117266838 2.1448492995636532 3.741984453946892
H -0.6972499777424728 0.5161675460123571 3.3779657345818164
H -1.3816883105425133 1.9223638656619517 2.5488126134709055
O 1.5702899454801789 0.007201899781172626 -2.0872085760609247
C -0.8041998595857281 -2.203115110500724 -2.12112143330954
H -1.2326803569743412 -2.7630978123543146 -1.2988150627079895
H -0.7313889576846332 -1.1420158016659856 -1.8750692124135668
H 0.17198665411509076 -2.5920314801264115 -2.3808332903988054
H 2.3189299901479936 0.13764813371201082 -2.7013878514930383
Rh 0.15409116048599958 0.35163982786390996 0.2261551931798762
I 1.3653852783780223 -1.8563200668724604 1.0191475391829923
I -2.0871989497454813 -2.3963426907295764 -3.8092381074795196
O 2.777187760887735 1.2913177817379227 -0.7155886177328779
C 1.7612620171754507 0.6563138285739654 -0.9095349129436232
O 1.6871278976024047 1.8027395692666839 1.9325962177822384
C 0.5814838825750517 1.3613251535445245 1.8985172078650625
