13
## STRUCTURE-ID: 645bb8ef39bcad60067e8a93 ; CHARGE = -1; SPIN = 1
I -1.415211019637576 -3.0499663379633235 -0.5824523511422633
C -1.3456124918288952 0.7269810883851323 0.22256044118744323
H -1.5401954773063335 1.3235551802569803 -0.6793724416062729
H -1.2223464658122518 1.4319245837217212 1.051018548254197
H -2.238701174685132 0.12842046099733606 0.43515979045833614
O 1.1908005540078483 1.3978576407695729 -1.590849572463599
Rh 0.3481071341827315 -0.4538235242288128 -0.1619147229843499
I 2.623542460383772 -1.8336255191208801 -0.6548710905228159
I -0.7995353313698994 -1.3264378220253057 -2.575630137572433
O 0.6335538388041048 -0.8702254064056849 2.769716365702742
C 0.5011753670071084 -0.6909537808324847 1.643147204805703
O 1.8852558127406138 1.8774822068456138 0.5286788000539404
C 1.3791667935139138 1.3388112296001333 -0.40519083417062907
