15
## STRUCTURE-ID: 645bd772a9f44877b85a4840 ; CHARGE = 0; SPIN = 1
C -2.736769847421139 0.6525560099658516 -0.009145970380487273
O -3.866331009062296 0.6642230920141756 -0.14112382285646635
I -1.4367126408181188 -1.4437498313162358 -1.6296318203611644
C 1.9593244736776798 -0.875482144259502 -0.848947652313825
H 1.8777613693664834 -1.8114516905837625 -0.2879819245143139
H 3.0176274009032737 -0.6136535744496835 -0.926683103092726
H 1.5425520280969571 -1.0228121541181288 -1.8417032691187556
H -1.1156239577809313 -2.7948704567409215 1.6873882781822351
Rh -0.8262676462504573 0.6046289378615846 -0.050485095977429284
I -0.5866910831937527 -1.4755971377504016 2.3861061726355
I 0.5796669120203424 2.075175285751574 -1.9183020821361185
O 1.6732046640741367 0.7267813771484305 0.927019732828428
C 1.3071786241721526 0.1866338926747494 -0.06865845098199334
O -0.6683221862732445 3.0318574102835067 1.6830885140548684
C -0.7205971015111375 2.095760983518798 1.039060494032218
