20
## STRUCTURE-ID: 645be15997e79c06ce602463 ; CHARGE = -1; SPIN = 1
C -2.11851216638176 0.04540385091041729 -1.1571685460875532
O -2.9153235263396984 0.8098312096843543 -1.5324211936252323
I 2.217077630675079 -2.1428401312989545 0.44440669218143836
C 1.0893179349845703 1.1362599399828706 0.5654083996600194
H 0.6491543252263648 2.146595963978954 0.6165746844047961
H 2.013537171620584 1.232595973933131 -0.01869927511958994
H 1.394664584601025 0.8651335541974161 1.5833554319296643
O 0.5985812691806024 2.5152754107550943 -2.312971866974182
C -0.6243134559748308 -1.97635328703163 3.2815073052544386
H -1.0241123047554748 -1.985831157033394 4.288724448013144
H 0.44291635554973446 -1.7815748455318559 3.276861348653462
H -0.8566491942608216 -2.8933162488767628 2.7495049678304833
H 0.1829158659986083 3.257541710866859 -2.7930911768296602
Rh -0.43775392609654584 -0.13577711344418655 -0.2580473701594351
I -0.35839131780495126 -2.9914877291076483 -0.5221237038777427
I -1.6066716501693787 -0.33151443410415093 2.2185362448142425
O -0.805708892486679 1.25862366303234 -3.5263946206236256
C 0.07061304378574179 1.340681799227066 -2.6776631332517957
O 1.5028492513938814 -0.5351187445378884 -2.3214671082130027
C 0.5858090012539245 0.16587061439797826 -1.9048315279798798
