20
## STRUCTURE-ID: 645bbe4e45f0893b95108f13 ; CHARGE = -1; SPIN = 1
C -3.1529296914113227 0.8943721168879979 -0.08575966311624757
O -4.297403309291892 0.9158350899970705 -0.011608319457985685
I -0.34438272302116774 3.7492528933172027 -0.4548497894885243
C 1.8571660597243627 1.2700612805350178 1.3892053382204468
H 2.9218951510003905 1.054949121359506 1.2964222728301804
H 1.7444013384056358 2.3532520309863663 1.4220963686395336
H 1.4648612795832416 0.8399235608884275 2.3083366676595807
O -0.10820930738148885 -3.4677179674169727 0.8352646467731206
C 0.5053803871437219 -1.9625122061604705 -1.27760888323955
H 1.116400330317757 -2.849484329667261 -1.187948184791414
H 1.0207975902823492 -1.158249055591786 -1.7897185192441922
H -0.4404163723240351 -2.198787962362509 -1.7485291764270265
H -0.3183489843189313 -3.7622505606260916 1.7232755005962943
Rh -1.280893162317233 1.1284705206816348 -0.0581754622484214
I -1.5830351981496606 1.3285493184366344 2.563443512130528
I 0.10378845466599615 -1.2870205862894295 0.6905503959904876
O -0.928835011981127 0.8134499468777985 -2.995924967168698
C -1.0917940314848698 0.9170183817668567 -1.8638667364099748
O 1.642637692714267 0.7283744740074021 -0.9410910355180552
C 1.1689195078440042 0.6925139323726138 0.18648603426994023
