15
## STRUCTURE-ID: 645be4b7b0196f7a8051c328 ; CHARGE = -1; SPIN = 1
C -3.1157927904243277 -0.09506031040101467 -0.23247204172396563
O -2.407680424367286 -0.9797977455584463 0.017177141755114
I 0.20395282233737563 -3.1982031661144354 1.3402941017740821
C 1.9471459177042367 -0.721256601026504 1.7946497321419117
H 1.3631945672951675 -0.40865114065745234 2.665872342200286
H 2.4577988247940876 0.1517481375974888 1.3890972498404428
H 2.654448075707831 -1.4781009282691722 2.1273718920934317
O 0.1948980650052868 2.9848722129155885 -3.213788723154608
Rh -1.3176125815772206 0.76623428510948 -0.6900569680841456
I -0.995334419305395 1.748580397310986 1.684944989115302
I -0.06430680851401276 2.896647203835084 -1.3720488029213715
O -1.2651230135820042 0.09343627696173352 -3.5907430300622374
C -1.349740669908957 0.3022744368869992 -2.4646233718660766
O 0.6666093162145863 -0.7969659693613786 -0.24783987351943498
C 1.0275431186206332 -1.2657570892289487 0.7921653624112867
