15
## STRUCTURE-ID: 645be34bd4823a4e8253afa0 ; CHARGE = -1; SPIN = 1
C -3.0288816047373306 -0.3906273932347044 0.7020147243667192
O -4.13235443286939 -0.35888822966944445 0.9884196774247985
I -1.48275398608238 2.310130203234695 0.9685072193303306
C 1.612829900475583 1.3543179195073203 -0.947597810393971
H 0.9458346139799753 2.178550951317477 -0.7032672669617164
H 1.9644922866471581 1.4878308657106143 -1.973648023035284
H 2.4695089178441667 1.3544872491863977 -0.2723050150781505
O 1.8603778345444328 -1.5910997547247092 2.191439844615607
Rh -1.1564329100181852 -0.24104723323747984 0.3842194660751303
I -0.9548358143606378 0.18314864974763517 -2.442923773540779
I 0.868044601627243 -0.02083136592664874 2.159894817954573
O -0.5514598187967644 -3.1620993383869127 0.4084719011119343
C -0.8421416771186482 -2.056856474086216 0.3596476718972395
O 1.4579408809260572 -1.068442377142257 -0.9363597289727423
C 0.9698312079387111 0.02142632770423618 -0.8865137047937416
