13
## STRUCTURE-ID: 645bb35c196f96780e099dea ; CHARGE = -1; SPIN = 1
I -1.4563875939744193 0.3557538537065139 2.786272591897937
C -1.6747123452732198 -0.18169029166417525 -0.5856546604077503
H -1.4525832598138326 -0.5868436270848605 -1.573498281015107
H -1.9411625146412201 0.8826517508391214 -0.6549026215776895
H -2.4891345378809127 -0.7410348334603295 -0.12616458182052248
O 2.8531770186003746 2.374274541478904 0.6193516277955496
Rh 0.03048860459631201 -0.08157151236997827 0.6491954357781917
I 0.8895691780604386 1.510415902558722 -2.3795556807143647
I 1.3303333739862564 1.9353200156433 1.5913058781827927
O 0.09070968560233815 -3.047239010749201 0.6817878704663392
C -0.021641271861867668 -1.9118225424839965 0.6201433264448477
O 2.4529802922320703 -0.5049226445326783 -0.865128824925744
C 1.388363370367679 -0.003291601881348201 -0.7631520801044791
