12
## STRUCTURE-ID: 645bbb0d90d19439ba39f29a ; CHARGE = 0; SPIN = 3
C -1.736123838257694 -0.15225523146315095 0.19566512176938416
H -1.9316165233163305 -0.20625309022745808 1.2710481333072765
H -2.225384328659283 -0.9740418513574004 -0.32527801319697214
H -2.0862306797555887 0.800364740185573 -0.2055915249053045
O 0.262778625918726 1.8662119936946937 -0.014707895071625616
Rh 0.4069863545659991 -0.14802662477481499 0.009897817061872354
I 0.5133534058271655 -0.22816232948805681 -2.687890029826757
I 1.139150905219834 3.331108023388714 -0.8932163714293784
O 3.029285866545844 0.6721122699748172 1.2392667485079867
C 2.172137063759595 0.130284133742316 0.7264958693308695
O 0.1794289321074289 -3.1087104981273272 0.3960570841701534
C 0.27623421604428844 -1.9826315355478739 0.28825306028247644
