13
## STRUCTURE-ID: 645bb36ffe97431edb36ef50 ; CHARGE = -1; SPIN = 1
I -1.369325283546189 2.189915390614234 1.8079126987221414
C -1.506201435443265 -0.6961031862930183 -0.9595548003028267
H -1.5353748503418208 -0.258743681965937 -1.9615576587291261
H -2.45018701160845 -0.45952164533183865 -0.4566639609256362
H -1.4561650905546952 -1.7819820481306927 -1.0768973037374145
O 3.7285353815498343 0.2217801197068991 1.0661050915771613
Rh 0.07816419640222175 0.12069390606182419 0.16670613205822907
I -0.8135112278609591 2.8294159010658375 -0.8383988802837344
I 2.1770961497463373 1.149171770252511 1.573864326886541
O -0.10848662454952539 -1.989445271986161 2.2781948750197127
C -0.2706602474840812 -1.1146712056780919 1.5440133767944562
O 2.236162813134801 -0.24308796889947315 -1.8717683402382606
C 1.289953230555774 0.032577920583901895 -1.2719555568413077
