17
## STRUCTURE-ID: 645bbd3f278ce567ba0203d1 ; CHARGE = -1; SPIN = 1
C -2.394513376669333 0.036565135036415904 -0.2507952157060216
O -3.5192378560454456 -0.05068796249540614 -0.3840033193772054
Rh -0.5618371397268452 0.09532633792916656 0.07339610036982136
I -0.9619525576621205 -2.4939700270095573 -0.2692703645833413
I -1.1701742529199886 0.09702390071153764 2.7601292800994113
O -0.2767004234313073 3.027448616966972 0.663260109641891
C -0.37635750520421957 1.9330867640353122 0.37806412623613445
O -0.8268680008465903 -0.14466229661401692 -2.7985232536942037
C -0.13131795051249626 0.2801513765938978 -1.9122466323875766
H -3.007425226801819 3.6778514556342845 -2.7337576128568313
I 2.059191499144523 -0.28576661954507737 0.5829023341907914
O 1.00375590441734 0.9356163850516168 -2.100664089819347
C 2.2076603243859645 -1.865001436821441 2.0961402054151828
H 3.2704052437075073 -2.0523163729368767 2.2297231449701975
H 1.6870511243343074 -2.7364793449108458 1.7045979608451125
H 1.743500589286592 -1.4904146726770267 3.0054869975345184
H 1.254819604543933 1.0362287610510326 -3.0444397708785447
