18
## STRUCTURE-ID: 645bd33851ff4b29bc732d3d ; CHARGE = -1; SPIN = 1
C -2.7229785739492725 0.9804666127285986 -0.573843637117613
O -3.8067528956392334 1.2213869653515605 -0.129611950970684
H 1.9894338502122009 -3.724993394185809 1.8356846283187762
I 1.0777491509938788 -2.345855344434964 1.0130748494974382
O 0.3987606332204143 2.5588039522209427 1.0436462267976403
C 2.0042866091317038 -4.012599803323559 -0.43193790815619315
H 3.090272981790753 -3.964604457492612 -0.23483146806834096
H 1.7532934418490067 -3.692778518018811 -1.4537810986374868
H 1.4676461771509406 -4.933147522215984 -0.13700357480424502
H 0.5259430098380177 3.509811895200786 1.0561508573466607
O -1.5074518997752309 1.4228804186104822 1.6972176725256474
Rh -0.9429362006392096 1.2473113566776297 -1.0113983054374016
I 0.19071135789733165 -0.8255778248058455 -2.1505999104980744
I -0.30348949775810824 0.0031790846635782947 1.272358245741269
O -1.8006101123891247 3.4144096201695455 0.7766077037819168
C -1.170678432204583 2.2920762162733164 0.781257454283646
O -0.016441565008292 4.005483448507067 -1.7514233776258863
C -0.22675803472116482 2.8437472940740696 -1.6015664069770352
