20
## STRUCTURE-ID: 645be07821eb58082053af94 ; CHARGE = -1; SPIN = 1
C -2.1837663740218956 -1.8919015712016032 0.4941646255944329
O -2.6458102149087135 -2.8700558627166353 0.8830426536544835
I -1.819336801706306 2.3365746925011104 -0.18112583493379714
C -1.6613496999939763 0.20938846803407885 2.885161515747133
H -2.6866030002722243 0.45203341069623976 2.6061670185690566
H -1.2700823102165808 0.959265457580142 3.572021715560732
H -1.6497803806837414 -0.7614906062698732 3.382866191470241
O 2.2764265492862856 1.5577396385038034 -3.4328441166297656
C 2.755563068551865 0.341611931353653 -1.0182869258734146
H 3.3987869046076264 1.111235784888697 -1.4178919246544237
H 3.2027754728376068 -0.640653830719115 -1.104295975174531
H 2.463685954290753 0.5453129731623817 0.005694823565130054
H 1.8386600944424722 1.8755295644744072 -4.225374449820865
Rh -1.510937146687878 -0.2948054917295325 -0.12309168876880873
I -2.287368564990319 -0.6563114638315692 -2.7474496789389717
I 0.9933406874355606 0.35769808942230713 -2.1950948693974173
O 0.44665500275509196 0.28744964719309224 1.767115333804103
C -0.7522431065772405 0.1092917071568821 1.6863188222716463
O 0.8695751789963858 -1.961429154409366 -0.2074356720113249
C 0.22180868685521385 -1.0664833840890826 -0.629661564033615
