15
## STRUCTURE-ID: 645bdfa6b66cd011e00203b4 ; CHARGE = 0; SPIN = 1
C -2.0121600822316847 -0.5235515961497066 0.82292915405716
O -3.0477015963044787 -0.4187037759535749 1.27515762333486
I 0.28916002885149283 -0.14543992529719746 2.6341553032114433
C 0.9076443841235806 2.0526993140744625 -0.12442798405296426
H 0.9991552031809832 2.8653042238449844 -0.8466339914152419
H 1.8582442181147278 1.5355412529177825 -0.010817784434608475
H 0.6527775809102231 2.482836589076433 0.8486287771605219
H 3.0167357935453243 -1.4769389870169516 0.8948732665420029
Rh -0.3114925058093886 -0.8160607595315529 0.13703871272101809
I 2.303728692636447 -1.4183016749909239 -0.5286867697361436
I -0.9259764546022674 -3.6405346137028203 0.6983687124824677
O -1.1377449300691045 1.5185371065079898 -1.2347086279772184
C -0.22145619278143944 1.188611801539735 -0.5447278184693767
O -1.4147781958127976 -1.8004714952496779 -2.48971523895716
C -0.9561359437516204 -1.4035274600689862 -1.5314333344667397
