13
## STRUCTURE-ID: 645bba1f2df0b26cde732d34 ; CHARGE = -1; SPIN = 1
I -2.1765562829614478 -1.3713138657260762 0.8279130439822483
C -0.5666403969444681 1.5211863033203834 0.8087138506081503
H 0.05216355441383349 2.3568430544240853 0.48422326808001875
H -1.5888808654557607 1.6961628242850697 0.47381392964635843
H -0.5532262023932161 1.469084007823763 1.9091027235025293
O 1.0079225971843226 -2.181566768757477 0.8755738224176417
H 0.42656920582258534 -2.9485154102300495 0.8855733490847065
Rh 0.20630613243705562 -0.3802780032872354 0.3316519371387888
I 2.6681263652686638 0.5448863478082892 0.6434865819074964
O -0.09416659825716199 -1.8686446816839088 -2.207458566110459
C 0.09932369012880636 -0.8814347998168164 -1.5739637927494143
O 0.34435248518881 1.5282877186230088 -2.038996397499766
C 0.17470631556797991 0.5153032732169619 -1.4196337500083067
