21
## STRUCTURE-ID: 645beb6889d9eb1c307e8a8d ; CHARGE = 0; SPIN = 1
C -2.0446179894184735 0.37484486242621257 -0.374590436035944
O -3.1211695268726705 0.5081719403342142 -0.7638683341996167
H -1.8105214747536837 0.5042183931741281 3.2261419586470703
I -0.5567656940740722 -0.3191407530126209 2.7131526435234137
C 1.9871718592502545 2.067067973995228 2.123525203578708
H 2.3361232983298903 1.1617613276127727 2.621590875964846
H 1.1748581971282999 2.530354748106184 2.6803015034913384
H 2.8036409139198235 2.791927212023051 2.0871962327970044
O -0.6736238915472722 -0.5431117221229642 -2.6690383888211486
C -1.0342966599574288 -3.4136281622136457 -0.889464411016587
H -1.5445337671239912 -2.67206820190356 -1.4930854169584318
H -1.584221087166383 -3.634428503796836 0.017272420680626063
H -0.8324157219478673 -4.314148763343637 -1.455662343427324
H -0.476696474864722 -0.45971971193843925 -3.6231843832795065
Rh -0.2501331667131676 0.16190719421833366 -0.0009348210875791125
I 0.8709794000434167 -2.5652351131598343 -0.31600591827737695
I 0.7333261218527389 3.552656652362476 -0.24858568912459478
O 1.9033711948023655 0.7975107622847092 0.06951010845394726
C 1.605088960163712 1.7671773633490768 0.7232958965964605
O 0.591036295386368 1.2820247468596135 -2.482899234249827
C -0.07660078643712963 0.4218577547455239 -1.944667467255485
