20
## STRUCTURE-ID: 645be07a1c003f5a8b7e8a90 ; CHARGE = -1; SPIN = 1
C -3.157935400600303 -1.1661754281174346 0.43059988801606064
O -4.150363330148091 -1.6179102399266132 0.8131593520464176
I -2.110874162834611 1.955155372597074 -1.136097259057045
C -1.262746531468306 0.010009402802518146 2.656713210725972
H -2.1746641856628655 0.6082297189256781 2.640227504064742
H -0.5604464310566786 0.4420211141301688 3.3702774303256966
H -1.5287301964828424 -1.0040714750151218 2.950734911622578
O 2.52992842598599 2.1223704942568045 -2.529194157096895
C 2.859386869743656 0.19722422022951813 -0.6195772149921893
H 3.660499353475981 0.9041101446168055 -0.7895689430617209
H 3.0164751542427193 -0.7218963106685016 -1.170201378627397
H 2.696901171844119 0.009769345541597753 0.4337156073902315
H 2.104145803802843 2.7196123934099807 -3.154669621243729
Rh -1.5318346871381026 -0.7201223996660118 -0.3579194440149044
I -2.4387791788483977 -1.869456893658572 -2.676367249672945
I 1.1289725017868575 1.1559918995246148 -1.3629147515271027
O 0.4290610674784747 0.5960093668075376 1.1316945182044336
C -0.6578858049452622 0.02136179823593423 1.269266345541039
O 1.0215339622379658 -2.167286547793354 -1.0885405403111712
C 0.12735559858684745 -1.4749459762326238 -0.8113382083320874
