19
## STRUCTURE-ID: 645becc5c5b1f5677d0dd8e3 ; CHARGE = 0; SPIN = 1
C -1.2088533907617287 0.9438769056346789 1.6978055050717649
O -1.890766051127132 1.7892003652637078 2.069190050641922
H -1.1928697418033603 1.720940514593921 -3.596853208898917
I -0.18698505150435574 -0.16750544816993068 -1.3497117963053016
O -0.5967148473975289 2.369982933498747 -3.1501420884408025
C -0.7490541169688777 2.205021347328098 -1.7148741161836991
H -0.055254060568632274 2.876346914242725 -1.2217835415592946
H -1.7735575253260045 2.4469127934058075 -1.4551112826841444
H 0.33446352872178786 2.1408692372976783 -3.386750278608974
C 0.3494235408772633 -2.3759776210071193 -1.3357518406014426
H 1.4307672601089 -2.495471326669094 -1.3018312344074976
H -0.07176356147979052 -2.9357188542225385 -2.1660252607667743
Rh -0.1487620355743319 -0.4925842729869829 1.2657674940849666
I 2.715873725832852 -0.7374096514099076 1.3078306809164035
I -0.4673936823321054 -3.1700143089539017 0.5389125860079809
O 0.12263411485622346 0.26131654470349913 4.158567943017025
C 0.39830048796622447 -0.42519858851186043 3.191398163439452
O 1.534974650775352 -2.5580360254931143 3.3833659976905173
C 1.4555367557052539 -1.3965514585443721 3.0659962275868144
