23
## STRUCTURE-ID: 645bd0241e8624356639f29a ; CHARGE = -1; SPIN = 1
C -2.8117679459172567 -0.08450871791185337 1.3371988724351267
O -3.7801140825448405 0.362743518248761 0.8247127210444953
H 2.88957829099229 -0.016036044297812975 2.8865255738984636
I 2.618890968265396 0.5032881911823333 1.3562764305443409
O -1.3021509493056314 -1.6841787637118162 -2.3035534795566526
C 4.886322612091495 0.9835383503406011 1.869871528520371
H 5.337076460067151 1.375345439734623 0.9622223981224417
H 5.3262446431773345 0.030268586460213402 2.1615657157699317
H 4.874955146415243 1.722319826202671 2.6698971380734533
H -1.6822788527032086 -1.7702550326199364 -3.19830429833291
O 1.0847904869459504 2.2592937588373263 -1.1319687507057292
C -1.4146036903173365 1.3912118067707608 -1.4081878730518633
H -1.1727218870136353 2.440900225364902 -1.5110682055120823
H -2.418444410312398 1.2758091773602982 -1.0059586455628122
H -1.3533662312914587 0.9041170857053735 -2.379031596594625
H 1.9856453027203547 2.4155780863233662 -0.8280706116052873
Rh -1.619848207981277 -1.5270996878848615 0.49899778055461785
I 0.2283287941134848 -1.6873486010368213 2.291273030753587
I -0.11598942699666609 0.46204901844555407 -0.13086144706674416
O -3.3848669225424866 -1.0404760190297146 -1.8088820750017014
C -2.2700793256045855 -1.326996192380827 -1.3606172018553304
O -3.3034805602305433 -3.9073075683863996 -0.11771625843863409
C -2.60212021202734 -3.0822564437167013 0.3256792535674439
