20
## STRUCTURE-ID: 645bd141e73290740f7e8a8a ; CHARGE = -1; SPIN = 1
C -2.081046658867045 0.07109718607559967 -1.9012399568635077
O -2.484309116524681 0.1554477908258299 -2.9945637691709597
I -1.1514587011666388 1.2929543490095152 2.244536257589384
C 2.7361292194298605 0.6752068691309537 2.1081338701979595
H 1.9074464827937259 0.2815438745449035 2.70020699965817
H 3.181872819058485 1.518600919656217 2.6324611901961994
H 3.4494197209306408 -0.1347685105171832 1.9656280266498123
O 0.0021283118003162915 2.2568303792193993 -1.5284321646372774
C -1.2742709077255365 -3.6510165414026514 -0.5489477922246819
H -0.23322457375193742 -3.3877373714750605 -0.7092124406891032
H -1.8329292284258158 -3.6170691418706764 -1.4768184655016259
H -1.3712752562122554 -4.612580897790557 -0.059653843983022876
H 0.1066626100357427 3.1630639377245973 -1.875219114050131
Rh -1.4908377418160934 0.2923917762221927 -0.18754008097524266
I 1.4736587772696135 -0.59097033312676 -0.4021285028492673
I -2.117711827180559 -2.1553975486365937 0.7870754465619406
O -1.9996006642297752 3.0379421444688024 -0.9499094532846073
C -1.2168183476466274 2.087695841655913 -0.9288159889494558
O 2.1717445970587455 2.1905061749279517 0.3098527607404702
C 2.224420485169826 1.126259101357627 0.8145870215849539
