15
## STRUCTURE-ID: 645bd3be7dfb4159cb0203c0 ; CHARGE = 0; SPIN = 1
C -3.1492545557094016 0.39669366651563176 -0.2862513278061603
O -3.867925017885618 0.9760948463565967 -0.9643432304973961
I -0.03890895711936838 2.1135877631867395 1.3979552024645845
C 2.145199059007493 -0.23980147739852123 0.8413965513865465
H 3.0769219225994466 0.25605687911876424 1.134693548129419
H 2.401584306538856 -1.1167439214222383 0.23958437931877308
H 1.6174480842496686 -0.5372139173533204 1.7439435884078647
H -0.73763211395816 -3.0686051511423944 1.3890153475451215
Rh -1.107209678089971 0.048310400000449505 -0.18924670348308148
I -1.2079828611009045 -1.649964939065627 1.9358537437788241
I -0.2098369157724584 -1.890166628786897 -1.859458968495932
O 1.6733077889979306 1.2391574993642767 -1.0303121456347437
C 1.4342116960340128 0.7113433591906573 -0.006156516253873554
O -1.0004659340594455 1.6958807881899824 -2.649233733887003
C -1.0294568237320605 1.0653708332458907 -1.6974397349729258
