20
## STRUCTURE-ID: 645bc92b0e5dce0d376ee1ca ; CHARGE = -1; SPIN = 1
C -1.7391967028763926 -0.802361971838491 0.953291110853763
O -2.3450142300143253 -1.3667498396977795 1.7770575418210641
I 0.2728423620224716 2.6096557702264334 -0.9911529690295549
C -0.7165246035414288 1.8571126908198168 2.54110223925672
H -0.24781432892391844 2.8036146805598685 2.268586651661254
H -0.5408955852286867 1.676600949925827 3.6027264939823165
H -1.7855907576813226 1.9294261305883058 2.3400152973448716
O 3.22879699022556 0.715289795355011 -1.6518476862779825
C -1.6201882272991341 -2.6151737890466866 -2.49817077620382
H -2.45228769617659 -2.923503868966002 -1.8764517756139165
H -0.6736598068720838 -2.927103864516838 -2.0666812637676326
H -1.7291876983918473 -2.967788334459367 -3.5162170746769985
H 3.7467845607149384 1.5442088373655798 -1.7384150738210813
Rh -0.7211281939906125 0.3161597423632399 -0.08591960907078683
I 1.8227763263796188 -1.4625654511829984 -0.5674803859328615
I -1.6091759356185542 -0.45094766137002434 -2.553764926151611
O 3.301357656490372 0.810534157604104 0.5968195308321356
C 2.9673423092473943 0.3512591240216112 -0.44350811827403747
O 0.901527868300991 0.15166414914797774 2.196080357726185
C -0.06076430676492371 0.7506687530982185 1.7139304353419644
