15
## STRUCTURE-ID: 645be3f44a70416297799620 ; CHARGE = -1; SPIN = 1
C -2.8606858566114246 0.4236865319086603 -0.1427273176443948
O -3.947532813185059 0.17068249689014262 -0.4030276221889538
I 0.3774064197624199 0.6731951290134703 -2.251311467968442
C 2.246292544241317 -0.8254685904646243 -0.056841159774462385
H 1.594749998151156 -1.664300626818631 -0.29983755437881865
H 2.715466238838829 -0.9923133883305256 0.9151787277759714
H 3.019899400565973 -0.7489365728318285 -0.8258161136277625
O -2.5003339108620994 -2.3151564981979593 -1.7274034081666647
Rh -0.98924001660167 0.42255106601289194 0.25582332734981256
I -0.009246381372109098 -0.5099741687882612 2.625587184788898
I -1.4074060197292417 -2.1350554731602305 -0.2307922886514775
O 1.8678556186472897 1.5364326539484598 0.38040671643859547
C 1.5604795570934056 0.46866782971731646 -0.016430389526432443
O -0.806520972363808 3.2978674448296146 1.0426395261632264
C -0.8611838065749552 2.198122166271481 0.734551839410978
