19
## STRUCTURE-ID: 645bd315b551c0463f507c54 ; CHARGE = 0; SPIN = 1
C -1.6282089418828414 0.056569448964846315 2.0398697957803402
O -1.993684624764547 0.31852175620234546 3.097311083637482
H -0.929185914263592 -2.9860625039796216 -2.2846832756991633
I 0.485141993418168 -0.5949181796653699 -0.8896143361313382
O -1.7278150390506541 -2.4059057821112106 -2.261718051931004
C -1.7051378647430315 -1.6583100412058938 -1.0155241349446738
H -2.505630347202539 -0.926064411033595 -1.0427931067545322
H -1.8557823235308952 -2.361968354788295 -0.20379705892771366
H -1.679463531056223 -1.7665962675908617 -3.0107126080958437
C 2.5629086536578094 0.3630884113637724 -0.9718156807971213
H 2.5834152829517603 1.2719547709278813 -0.36187309907554965
H 2.834839211731408 0.6174775570777721 -1.9931360654646073
Rh -0.14641303175610074 1.17473734444419 1.0136286540763404
I -1.8883317345388007 2.345037812844979 -0.5918843527891037
I 4.098050898478243 -0.958752296907259 -0.2071122293308387
O 2.201563120841898 0.22623049577078036 2.6004669603772665
C 1.2929865644591725 0.546815322719217 1.978697795513308
O 0.045509966388521096 3.9017304216029767 2.264103239792334
C -0.04476233913776348 2.836414495363371 1.8405864707644441
