20
## STRUCTURE-ID: 645be07927927c0bf960245d ; CHARGE = -1; SPIN = 1
C -2.7087657749352427 -1.5603860684558946 -0.23009234044396215
O -3.5869603859671724 -2.278357847906452 -0.08233989794330981
I -2.116644215000469 2.1227916392002544 0.5277189412670666
C -1.3170556227158874 -0.04805870190761252 2.575098915407786
H -2.3005888118510933 -0.41681856681739987 2.2925548225753865
H -1.4423127861112621 0.6379026901133343 3.4179935986716736
H -0.6670784911041234 -0.8676378238661495 2.883542513340466
O 2.6346904550889088 1.954140546469772 -2.807773866399222
C 2.5434931823864426 0.0686169565079136 -0.8143101500725086
H 3.352295004319446 0.6888635306049108 -1.1671207688856862
H 2.7481867535068174 -0.9781638986055894 -1.0102286439285686
H 2.3558431131763116 0.23776591763720023 0.23868820332898236
H 2.3274009658567305 2.505654609824217 -3.5264136197235993
Rh -1.1748494240908813 -0.6013764624794344 -0.7368334548366581
I -2.37948830243592 0.19475522284910893 -2.980718391332386
I 0.8416564608046393 0.6444699451608582 -1.9240017592321883
O 0.4992778133873577 0.995325164623642 1.3617992321240666
C -0.6618428514036794 0.7303508357354807 1.4944161161978222
O 0.9448254707457049 -2.362308533042116 0.437470264568669
C 0.10791744634336956 -1.6675291556460248 0.05055028531618185
