15
## STRUCTURE-ID: 645bd6c91521757b000203bd ; CHARGE = 1; SPIN = 1
C -0.9744337991021575 -2.269005489390501 -0.07883071011994909
O -1.8842388057220474 -2.4038638856705488 0.5806021173944442
H -1.6304603549507954 2.0845175375947402 0.2679841609014849
I -0.1882664114524536 0.5575187338214342 2.5956490630043083
O -1.4947764206833025 2.7119129187084936 1.0295682997747964
C -0.1995299170756976 2.507183876696402 1.615744634441369
H 0.5933999198937158 2.502531872114473 0.8675275137385297
H -0.044383908756187924 3.249611649365547 2.397112077801382
H -1.6000822135083967 3.6423084527401888 0.7119983864869713
Rh 0.4885200405311888 -1.9428701891839641 -1.2081383782609718
I -0.3479946656336569 0.4273754380317563 -1.5254982609585432
O 2.690472329196198 -1.1734128975376512 -3.1047048541436193
C 1.8859356281497754 -1.5050757704834155 -2.3778752869627127
O 1.55752474637995 -4.7193414939282965 -0.811528953029381
C 1.1483138327338807 -3.6693907528787117 -0.9596098100680038
