15
## STRUCTURE-ID: 645be1b020c32e358b53af94 ; CHARGE = 0; SPIN = 1
C -1.9335932394631472 -0.3240787521302579 -1.0871283658130655
O -3.0087498548561524 -0.6159919111299481 -1.302899505845289
I -1.4881880274103216 2.1515188445036406 0.47640624832257517
C 0.4097762150077827 -0.38025791622724403 2.1762314334246895
H 0.7916284488669978 -1.1794130810397139 2.813205922370363
H -0.4752485387539436 0.049867735497307726 2.654269962683537
H 1.1461693207932397 0.41540631378721793 2.0815554923639494
H 1.9059208795499776 2.908545911669149 0.029033619141091243
Rh -0.18438497483082383 0.2444448657434526 -0.82901624886479
I 2.2805651658555948 1.4603694014564397 -0.5208229223855646
I -0.5577071374033751 1.3781736955537665 -3.524199124722627
O -0.3164837676033501 -2.123922630493117 0.7149450881927313
C -0.01773933961398217 -0.9818618551425286 0.8905486562320953
O 0.9072759291433914 -1.8988119912886525 -2.6467571394160494
C 0.540758920718254 -1.103988630758517 -1.9253731156821634
