20
## STRUCTURE-ID: 645bdac9957ce307de108f10 ; CHARGE = -1; SPIN = 1
C -2.824383065396792 -0.016395709103415715 -0.5413100337042039
O -3.8671289841605856 -0.5383548499537971 -0.49040286076424217
I -0.6913463669747557 0.11840498575019341 2.064667211549021
C 0.8799455978697435 -2.6137135818632915 2.1833650816736827
H 1.159409883231714 -3.5833085337330743 1.7725715483519833
H 0.36128715536802614 -2.719154684423791 3.136226834281571
H 1.7664594855958613 -2.008493322814788 2.3809926874647522
O -0.1141030880080309 -0.5123416510779775 -2.959515878558146
C 2.107669566291244 2.584177456476217 0.5362856769525371
H 3.16491263002585 2.76661023855093 0.3898371872028814
H 1.9038548497147503 2.183525570042698 1.5242547024514888
H 1.5232106483494026 3.481878222646225 0.36110973689717674
H -0.2008421951471331 -0.8022012873916987 -3.8895051277171295
Rh -1.2018304335834036 0.7900116688603047 -0.6726793505008812
I -1.6341163863758341 3.566696223935625 -0.3989618241597188
I 1.4759350927820192 1.0966915230995267 -0.9420942286117945
O -2.196823269518803 0.16521675716837475 -3.328539208244539
C -1.273268179404244 0.08006464480460755 -2.516807504324317
O -0.36774043375397286 -2.1301366501118584 0.1523823745233982
C 0.028897493094978927 -1.9091770208609924 1.2381229752365017
