15
## STRUCTURE-ID: 645be18938c5a332cb7e8a96 ; CHARGE = 0; SPIN = 1
C -1.8066333527907867 -0.586119153993906 -0.4411468304123455
O -2.721444988458312 -1.1789495762190274 -0.07716597045345716
I -1.2731652257001855 2.5112324289615535 0.12782541777215448
C 0.13078914269467604 -0.2779716546709109 2.122280428029235
H 1.0981752082611171 -0.2711073124041711 2.64709995518866
H -0.6233490560937158 -0.7508366706062503 2.7667373092638905
H -0.18625688598649429 0.7625428696486549 1.9628236880459693
H 2.379630758135132 2.314153992255629 0.3336710659357315
Rh -0.5676476963642051 0.4463671505026359 -1.3417159754213765
I 2.565315890180174 0.8989413702458194 -0.34708881405676073
I 0.011544851309587994 1.9329487645522119 -3.508479237543913
O 0.6057144550929481 -2.0057082860504827 0.41682252950350274
C 0.27139461047617086 -1.0570120903384739 0.9697489369928592
O 0.19886018974543998 -1.7813470458076666 -3.1867670446350216
C -0.0829279005015684 -0.9571347860755982 -2.444645458209064
