15
## STRUCTURE-ID: 645bd5ae4d056b0bac7e8a84 ; CHARGE = 0; SPIN = 1
C -3.234607389111941 0.4963381326501977 0.5271252826906849
O -4.353931129580711 0.5277732285448723 0.7588932121217324
I -1.802522307814111 -2.201897084480722 -0.18810302193593054
C 2.8201654456164347 -0.9018845600795355 0.17976368657362782
H 3.607038262322861 -0.3751158895480575 0.7201234612542762
H 2.960436450669486 -0.8063669896186489 -0.8966921824055599
H 2.8895914266037535 -1.9531132710388261 0.46949251057388897
H -1.273685989457464 -0.5878275969744539 -3.4927400136797107
Rh -1.447934568742668 0.3588381555704736 0.1512643416388958
I -1.2197078203063818 0.9133424589515413 -3.0102482960844106
I 1.053702368966257 -0.3891647442398358 2.6916925552045545
O 0.6363533239591256 0.011670563478631128 -0.17092571915459842
C 1.5019450512809476 -0.3900613315707836 0.5546537288824998
O -0.9804210992023547 3.183415820077291 1.0359366279248319
C -1.1564220252032467 2.114053108277855 0.6697638263952219
