12
## STRUCTURE-ID: 645bb45227a39f1d895a483a ; CHARGE = -1; SPIN = 1
Rh -0.12587073767633364 0.44519110908917386 0.11458530811125443
I 1.349767605729566 1.234431400091856 -2.0155542430250573
I -1.8091888423285245 -0.39216691576119983 2.070469312621511
O -0.9267390007630143 3.3863922828969035 0.4899265112872387
C -0.7345251826391805 2.2764241776762697 0.3220388254625315
O -1.9649570693213882 -0.9349835573668608 -1.7748201832696484
C -1.2801708823220843 -0.36700614102951296 -1.0605080098377986
I 1.6976916473672843 1.3627365956171107 1.9022704209592316
C 0.7977593949190895 -1.4813533317053775 -0.003189718376281664
H 0.8263226810037742 -1.9134057436311416 -1.0110743206908432
H 0.32769349333611547 -2.2279995509844617 0.6458130830052103
H 1.8422168926946982 -1.3882603248927663 0.3200430137526574
