20
## STRUCTURE-ID: 645bbf732420a93a700fad1a ; CHARGE = -1; SPIN = 1
C -2.9989400335725014 0.31663821494048144 -0.47765532758792334
O -4.015396298612426 -0.21810622063595791 -0.34954390298931787
I -2.401053494360293 2.86266115082223 -2.513109132879127
C 2.387274244264946 1.9885770810929806 2.5110121159587315
H 3.4043304216670753 1.604929731614615 2.438908699230019
H 2.3762420587674793 3.0779218281962972 2.5730955036485774
H 1.8952666013400272 1.629274422989628 3.415671611096421
O 0.23814711026490065 -3.598857937588796 0.5586737374420174
C -0.9949233753460084 -2.478888578306404 -1.617891123124347
H -1.0331921691099857 -3.516088659532474 -1.320944445730288
H -0.2537189925930559 -2.328747628239623 -2.394993240300661
H -1.9660499006681986 -2.1147289722158473 -1.939680616968099
H 0.714931489659681 -3.640141631881603 1.3870064389984489
Rh -1.3274112719761098 0.9355598806556937 -0.9764724325607106
I -0.5285597959967571 2.3487793225488227 1.4445515721823812
I -0.40007487028491456 -1.3535769796730113 0.08256937829288905
O 1.149385220781359 0.9578344304569337 -2.65113739244602
C 0.2643043800141869 1.0411537206831798 -1.915294505745398
O 1.8617244077631434 0.9251579173162844 0.3927511793258614
C 1.6277142679974672 1.5606489067565994 1.3524818841565538
