23
## STRUCTURE-ID: 645be7db22dfb93233507c60 ; CHARGE = -1; SPIN = 1
C -3.125469419402696 0.626650166533838 1.3544686325059216
O -4.0342372957637656 1.2064314889977015 1.7956611769093274
H 0.800530551261436 -2.853159232349355 -0.1533712464313965
I 0.869751266461772 -1.2341713638270346 0.04256049066358133
O 0.4863998850966478 0.17128069596813997 2.540102846059289
C 3.001207301984101 -1.7301690590449983 -0.6613942627346825
H 3.4507629559836226 -2.3457100117408722 0.10738215595943294
H 3.506852603077716 -0.7783805267349627 -0.757793198282441
H 2.9102967230357026 -2.2393147599911263 -1.6131475646014575
H 0.5013648161481268 0.0901283323770187 3.5071206415823686
O -1.1512919939502029 2.806352962467684 0.7277387213642567
C 0.047827589901892155 0.14200129243110682 -3.067751195957325
H 0.4371204813632319 -0.8341163032521002 -3.3341229387974076
H 0.6537057550637569 0.616967622191864 -2.3022460832164717
H -0.06314739178755814 0.78031484824839 -3.935913143035476
H -0.8912948049276765 3.185768534036304 -0.12785103330892472
Rh -1.5988078529030771 -0.2194028006691961 0.7630161679522054
I -2.1028981009041243 -2.8495096206637256 1.1567042290758516
I -1.9362401578952355 -0.15353826814856458 -2.214070624573598
O 0.4275016020651342 1.3517714935126555 -0.021780620421979452
C -0.5061342625339216 1.570598096539906 0.836004796664038
O -1.1393274283498542 1.6278001817469092 3.157698990483736
C -0.5444728230250122 1.0614062313704273 2.20098306214118
