15
## STRUCTURE-ID: 645be960e1860e5bde554efe ; CHARGE = -1; SPIN = 1
C -2.3523625552820846 -2.252282241521896 0.9366260980501084
O -3.365622637598398 -2.4537716399844927 1.47125232445565
I -1.7657227944534897 0.35995033110834124 -0.8909497523044835
C 0.4366145398533429 2.474356055275939 -1.7636215478745385
H -0.453279803047641 3.0228726358321305 -2.072184420514897
H 0.6901654561475087 1.798080403243113 -2.583268024113966
H 1.2749913081718514 3.1407184678340596 -1.5597986778920614
O 2.471286498486155 -0.06199909215165444 2.4879308498423676
Rh -0.7946275187508848 -1.961133948020584 0.07506684524389291
I 1.437640691619116 -1.628565332392448 -1.2941078534618309
I -0.1295803745406582 -4.426127834036359 0.8867067275802204
O 0.337275618075738 -0.8105415248662943 2.120572878097304
C 1.4093324582697802 -0.43475976149593426 2.2973499135969013
O 0.6474750584263889 1.5464622586506758 0.4711860869304281
C 0.15641405462327496 1.686741222525421 -0.582761447635109
