20
## STRUCTURE-ID: 645bc46e56774226f65c0130 ; CHARGE = -1; SPIN = 1
C -2.3300623874473043 -0.1285971413325576 1.117301394925181
O -3.2811838293890636 0.12852201840038 1.7320338356022635
I 1.4693127348450057 -0.41578908095960626 1.4897159963141546
C 1.3153012347619784 0.3334822991858957 3.5392005511718017
H 1.8499316150235718 -0.3693330725123127 4.167784717842664
H 0.26198521926440443 0.37811551607809746 3.7851585486479227
H 1.7626306287435523 1.323821504910128 3.5435432902701565
O -2.5454070089414924 1.8832252656250257 -1.856823683507002
C 1.5259738239687148 -1.1355909198143923 -2.0313873463499674
H 2.196399534382044 -0.3196535049739458 -1.7520920050157582
H 1.7152629519853835 -1.9875381311563978 -1.381733241130585
H 1.729680660718159 -1.3926150113851659 -3.0713189924434476
H -2.1309734825853517 1.3189730995489692 -2.506615511192744
Rh -0.9015324262469763 -0.24924111880970837 -0.05853726012342655
I 0.8404171146168185 3.415250793393695 1.3776882112801991
I -1.0486092128572264 2.4093412236417864 -0.5222108884700338
O -0.3969813457660089 0.03426365813843008 -2.815326532939266
C 0.09762123800070091 -0.6563754084977619 -1.9154962050214919
O -1.1525051624841602 -2.7952656302668664 -1.7095057159471723
C -0.9772619005927335 -1.7749963592136666 -1.1313791639135014
