12
## STRUCTURE-ID: 645bbd207c61f77b7b3adfca ; CHARGE = -1; SPIN = 1
C -2.3006519716155847 -0.43856751266845445 -0.6960457751572182
O -2.938205520555941 -1.247815369573325 -1.1991810128273133
I 0.23970106357486565 0.8931764610930509 -2.4869413612614424
O 1.5454250765839856 -1.7438135625804976 -0.5179930611804325
H 2.448182992020308 -2.122408348790909 -0.5082550974100373
Rh -0.44199463694455504 -0.07196602099435315 -0.1312275412236712
I 0.9162413802218696 2.6716824834449957 1.554123975804564
I -0.7683187849976362 -1.3580363417775896 2.145272133296944
O 2.4276890809885585 0.029898814261484902 0.5405871363159234
C 1.4779404224993797 -0.5328681935394669 0.05972284490870072
O -1.8200743691281254 2.2414810645384864 0.6182707178707284
C -0.7859347326471281 1.6792365265865805 0.6216670408632441
