14
## STRUCTURE-ID: 645bbc0b38ff871e2a2fb208 ; CHARGE = -1; SPIN = 1
C -3.2294523245310085 -0.578274267207787 0.015856813769376695
O -4.222532844243429 -0.7365818360308473 0.6024709006982053
Rh -1.7191580283918475 -0.3618151312008607 -0.9836929404138322
I 0.3544232404285028 -1.8775330695905594 0.31209091034125647
I -1.1459826356009306 1.76644249760756 0.5605599398967085
O 2.6248437085273078 0.8413410886862946 -0.7422989310065088
C 2.564730092064169 0.8043848003073407 0.37524489393918126
O -2.9381715823650767 -2.1755015149349606 -3.022326392642896
C -2.4522807556501824 -1.4736134534964545 -2.230412984925984
I -0.0867660004657103 0.4878402955435432 -2.978183610173859
C 2.57021060393913 0.8221703770142669 1.7420513685793606
H 2.7317644336338605 -0.19213204946473006 2.1327729597236322
H 3.353446557217933 1.5014814775140177 2.1032079862833197
H 1.5949255354372882 1.171790785253175 2.112659085932011
