12
## STRUCTURE-ID: 645bb3f35da1ab66fb6df3a3 ; CHARGE = -1; SPIN = 1
Rh -0.22121970481702868 0.7053114411607846 0.4579120427211915
I -2.7352925831566717 1.7320440118951996 0.5943279988069574
I 0.8733030758316849 2.924250627717655 1.4004113486646306
O -2.701180898213078 -1.76879639732199 -0.18493644767936612
C -1.5591979113495968 -1.4649359174472696 -0.2170605440524323
O -0.5362875356328479 -0.440199539927199 -2.1325071440891423
C -0.7605019225936035 -0.5089046110402907 -0.9500406754418614
I -0.373194475413307 -1.6115224279666105 1.8042078675663633
C 1.7496264361440188 0.1678061939881237 -0.10666294238394178
H 1.7824712002556082 -0.8522766797313377 -0.4941505590280912
H 2.444714480792668 0.252611127014241 0.7280758292567342
H 2.0367598381521734 0.8646121716587002 -0.8995767743410488
