13
## STRUCTURE-ID: 645bb36efe97431edb36ef44 ; CHARGE = -1; SPIN = 1
I -1.6425150546885494 1.1909233566094537 2.1289530625630833
C -1.652428684661439 -0.5133084956249824 -0.8671059229474419
H -1.3997653940557901 -0.6914572789983058 -1.9137544607362833
H -2.5131391947081294 0.15570172515510503 -0.8216864798919045
H -1.9139589347575279 -1.4602264467174575 -0.3910642910260393
O 3.200260240293039 -0.1664132890217921 1.4173402493835654
Rh -0.026805524022479682 0.4448877782813245 0.15066016538812316
I -0.3611777193072062 2.637339170014034 -1.3110842906358984
I 2.282366745139165 1.478472230269476 1.4273164087662604
O 0.4980622295808465 -1.856713040396362 1.98271865632403
C 0.2658991569124944 -1.020589708023778 1.2488551689730625
O 2.0518999109328293 -0.19676288777838447 -1.896119970694113
C 1.2113022233427477 -0.001853113768317576 -1.1550282954664366
