20
## STRUCTURE-ID: 645bdd3cc8038638b9507c6b ; CHARGE = -1; SPIN = 1
C -2.953595998006777 -0.768597755423208 -0.31261484890313945
O -4.094379882117562 -0.892498853704922 -0.3291694176689632
I -0.4846581204240355 -0.8569781802007068 2.3717035558722723
C -0.8835805678588728 -2.563473037978747 -0.5279818853560126
H 0.20047773831151247 -2.717556859208118 -0.4715573476540922
H -1.238247136395532 -2.896890009158057 -1.50577082084995
H -1.3564901601556691 -3.1851963604037437 0.233993743026565
O 1.2251272482740234 -0.2607850111513354 -1.0227413032644843
C 1.9559690866881096 2.4556938042975256 2.747846783395981
H 2.4430658622589485 3.2370531127428492 3.3148199228305137
H 1.6739593892085576 1.6217115598990937 3.377520008055514
H 1.0962448219592238 2.8401061408412454 2.213340355418942
H 2.160584199608524 0.03217394137831024 -0.9442036272047627
Rh -1.1673249000068227 -0.5154700573976664 -0.18337300096696502
I -1.252717654145925 2.1994695829420485 -0.01038187285682611
I 3.35752860692091 1.7347901719905257 1.3029725825577885
O 1.1160297563147725 0.911742990242019 -2.9369226795097805
C 0.6010987577640523 0.2082190967286193 -2.109276782908177
O -1.523407823394423 -0.34234102701052505 -3.109009253628207
C -0.8756832248030465 -0.24117324942512447 -2.0991941103862253
