18
## STRUCTURE-ID: 645bd2762a953171132fb20b ; CHARGE = -1; SPIN = 1
C -2.8361546606658883 -0.16802112630372454 0.5821781117365217
O -3.2900320821223494 -1.221652247244217 0.1507045867748164
H 3.955857061991719 1.7193762230532006 -3.0305238323819585
I 2.873395151234611 1.1198414437489737 -1.9450708375696972
O -0.1407478622609358 -2.4765899604437176 2.501234951889287
C 2.3118614193029203 3.153706888646098 -1.5106905119286342
H 1.679227508828245 3.085763786726491 -0.6327747078047263
H 1.7635734576901934 3.5211360712571707 -2.3722588697777467
H 3.2264901100157224 3.699495799632529 -1.3003627588255737
H -0.28323849431648973 -2.794409116386797 3.415294158940111
O -3.1828852123279288 0.902740495595946 1.0056133107837728
Rh -1.0887701566463863 -1.0407422753729194 0.22492261501571542
I -1.070229084814594 0.10348851443373326 -2.18747687832845
I 0.9577805063634887 0.37391162895851215 0.9924261187081502
O -2.1509480866772046 -1.5549984710068758 2.784914471494499
C -1.177562722715052 -1.7307015970710649 2.0571743728298193
O -1.078231093024854 -3.842995022465861 -0.388097583949772
C -0.46938575985572856 -2.849351035757293 -0.3472067176062686
