21
## STRUCTURE-ID: 645beb1a01b2ba43d61fda9a ; CHARGE = 0; SPIN = 1
C -2.423833720821854 0.19230991484249077 -0.6460022344595957
O -3.3376916513311885 0.38003319860472184 -1.3287443198450877
H -2.9629354309605493 0.7445062576773153 3.007340319937622
I -1.8364777202039884 -0.35490688303508355 2.826281258808796
C 2.8008850670496908 2.415334726070014 1.4058865669711789
H 3.562327245353704 1.6508068468733954 1.5562689474101612
H 2.7595294526679126 3.09155886743983 2.2599955955660116
H 3.0454845010280795 3.018438878768479 0.5304146465414162
O -0.2439890063032409 -0.5406137424959825 -2.4481600125131013
C -0.9636003529469259 -3.557904315749326 -1.0767575261255926
H -1.2112876409897442 -2.7716073015954366 -1.7807115404641487
H -1.834755697994448 -3.8709793169021594 -0.5146276824944698
H -0.49059045528152745 -4.397671996762881 -1.569692678380889
H 0.29373731272189857 -0.3119296050106283 -3.2321824946391393
Rh -0.879206303977432 -0.11850297678637864 0.2885630526518745
I 0.4567707729675303 -2.7331881021453808 0.3268877453190137
I -0.15520875796198988 3.196735808722175 1.0181496813512292
O 1.2113979670701 0.6272532352149736 1.1630941367154954
C 1.4927014265993164 1.784000252826862 1.2020297113304308
O 0.7482859863115983 1.2450599541336984 -1.5611926889842476
C -0.031542992996936824 0.3112662993092359 -1.4268404846969986
