21
## STRUCTURE-ID: 645bed8e1f4df5184251c32b ; CHARGE = 0; SPIN = 1
C -2.3444655477249716 -0.5813086515355246 0.6639177147800225
O -3.4358598278864045 -0.43352231606704617 1.0230035178072228
H 2.5535348775175017 0.6036720021049864 1.9558138245833414
I 1.1245369114403836 0.7802627456189818 0.8666158640273559
C 3.205344515660256 -2.10584593214741 2.1221279587411597
H 3.2524446506253173 -1.5690118212207145 1.160828593825138
H 2.280614340481018 -1.7572078291169233 2.608112010958918
H 4.068553504254537 -1.8188696148991648 2.7363012081207057
O -1.5686521460779832 4.204491486163632 -1.0578340710394754
C -2.7003484922165546 2.052288507229383 -1.9022874577460687
H -3.0807661160006474 1.0548269544563593 -2.1417716216714204
H -2.4135184956419953 2.56981864150033 -2.8152966706446847
H -3.4695009418187173 2.6336178241514423 -1.3997726102765533
H -0.9890353407169008 4.853682586847832 -0.6599696907260042
Rh -0.9496639086196438 -0.6683107277871815 -0.5479001709728377
I 0.04782080237863484 -2.9559507978973802 0.0946642507299003
I -1.0563341965018447 1.9809005558791815 -0.6745177787168655
O 3.1562089919720844 -4.557310536433388 1.7784832935159158
C 3.164416334190212 -3.444045984198094 1.9259067859577776
O -0.46844899169773924 -0.31476646211074305 -3.4367597824149807
C -0.37688092361653 -0.5274106305385555 -2.299665168838586
