12
## STRUCTURE-ID: 645be5e4bd7fc80c026006a0 ; CHARGE = -1; SPIN = 1
C -2.0353378493462864 0.29865746322732645 0.1286079883760851
O -3.0411686133381166 0.3997608679376339 0.674798152741778
H -0.09141532903798821 1.4825316732493394 -3.135029235408621
I 0.16991959965172948 -0.04147353335062186 -2.6927157209497543
O 0.024594167355479625 -0.0012072358823424386 2.5783320319563057
Rh -0.24400387290655653 -0.28519272076446506 -0.0555408959266177
I 0.1635513171054161 3.495952674908163 -0.5928202879645826
I 0.2674329939389838 1.6367838597428046 1.6150426032329723
O -0.2377514120368624 -2.7112315831172964 0.9473315982623992
C 0.6852831838259074 -2.135449869786008 0.40878972126498014
O 2.7608057207902004 -0.9734349856189342 -0.06375557215016887
C 1.5780900939980929 -1.1656966105455617 0.18695961656515936
