12
## STRUCTURE-ID: 645bb454a5e3ea5aa13adfd0 ; CHARGE = -1; SPIN = 1
Rh -0.5339442244219745 0.1442098667044614 0.03943397992404428
I -2.14852111620326 -1.9327517987991762 0.8364630330732715
I 0.5213028964489195 0.24086833567754057 2.9488802116828623
O -2.9203312003808892 1.9052340921500723 0.592769079693979
C -1.96194626565565 1.283836357296595 0.42159399596899083
O 0.4137332528057002 1.148233213320405 -2.6225185459687843
C 0.06740028800812607 0.8700804086136307 -1.5580768690043207
I 1.6831410785317038 2.1641757780904585 1.4379911457579184
C 0.9927219531338827 -1.2299185396550567 -0.46726502562535205
H 1.1601159570425332 -1.9015191311166504 0.3915154862664502
H 1.977785194326847 -0.7987547442018357 -0.709717640111953
H 0.7485421863640643 -1.8936938380804382 -1.311068851657098
