14
## STRUCTURE-ID: 645bbb8952baa138b6732d40 ; CHARGE = -1; SPIN = 1
C -3.031233635044939 -0.09479099647102791 -0.3224353909107044
O -4.174971772121224 -0.023262662601881052 -0.26668301559420876
Rh -1.1575842113071941 -0.23765079781798812 -0.11829665975347849
I -0.090268851925669 -2.0139869058884794 1.750254896160352
I -1.6125450534738799 1.6511938571141709 1.7125934001782988
O 1.7397271131384922 -0.8545036758063154 -0.9770651369971355
C 1.3698188205092832 0.09588182961259646 -0.35765038864242277
O -0.914760403684715 -2.474422671346655 -2.069351529953032
C -1.0154245029361983 -1.595863687763981 -1.3377221146741627
I 0.25347220395361725 1.672175441378213 -1.775649461582813
C 2.018107847962974 0.8329295843418628 0.7445696655046226
H 2.8225165715338183 1.424369604841499 0.30068764033049317
H 1.348584047909045 1.507607407461807 1.2748862277324076
H 2.444561825486594 0.11032367294618543 1.4418618682017768
