20
## STRUCTURE-ID: 645bcc911246e46a505c0136 ; CHARGE = -1; SPIN = 1
C -1.604272890140289 2.6761112207418076 0.3792169763032396
O -1.6507749452440061 3.7529531834324814 0.8728507402615769
I 2.3972856218546723 -0.8352035377543084 0.7378441036115525
C -0.14217948379885925 -3.0905875023922906 -0.4133697115193771
H -0.2529288778398735 -2.9944918237889526 0.6993131308264282
H -0.5204544257224024 -4.134649557139468 -0.41122314757128914
H 0.7026290923650343 -3.300474144464911 -1.1089649395302597
O 0.8775165545719726 2.543890399039213 -1.641082615984239
C -1.2086725479221245 -2.2422213746422988 -1.1097516456462746
H 0.8126583213025197 -2.398729684321954 0.01884990179187414
H -1.4445684641292962 -2.6171220780841424 -2.1037888784009238
H -2.1084714572172256 -2.1486132352012306 -0.5044739696651028
H 1.3951263401827305 3.2247730867309023 -2.112360254827846
Rh -0.04353497911964827 1.3499820481059954 0.7706120464390432
I -1.4768310153690696 -0.3796878403430688 2.1838403838688456
I -0.6124443729110647 -0.07357507811330066 -1.5411433255176445
O 1.750677175423676 3.5585769413325985 0.12954762883036905
C 1.0263307212751143 2.643814118788163 -0.27462200442531687
O 1.3129874936834025 2.4698175901499866 3.1778236592961355
C 0.7899221387547402 1.9954372679247745 2.250881921859241
