20
## STRUCTURE-ID: 645bc14d0be9fe389232eba7 ; CHARGE = -1; SPIN = 1
C -3.150329249117445 1.2055889665106403 -1.3010234288698321
O -4.0480482681514784 1.688612469451828 -1.8255862820700233
I 0.5410896577266978 1.9031702165600433 -1.6683245768723947
C 2.0169264572126906 -0.43889285554757057 -3.1133451015929503
H 2.4041054893867715 0.39420966387013723 -3.699118779423076
H 2.6889915554867985 -1.2958328983176475 -3.1297273213719334
H 1.0572358092133358 -0.7210406692324752 -3.5567224622777105
O 0.9619139693596357 -2.2980266765703155 2.9430035108172237
C 0.0773694595203897 0.27541806590046686 2.9384784915782935
H 0.8955640545728355 -0.14229544470783384 3.5043509235029964
H -0.8177767795811358 0.3127602522368057 3.5506072207296997
H 0.32480827187226186 1.2643848338355412 2.564604192110677
H 1.1432607226885259 -3.1789990937773487 2.6162852939858006
Rh -1.804689859223147 0.44859052306367614 -0.25258104537743176
I -1.4117329309899989 -1.653151542960755 -1.7603443592224188
I -0.26686792002683857 -1.0163546703714847 1.3105048144136429
O -2.376312492283849 2.1767207098011987 2.1220413825678173
C -2.1479088350969326 1.541729303327245 1.182266772931358
O 2.1102381156360295 -0.43405108911263507 -0.6833005270498909
C 1.802162771794863 -0.03254006395951804 -1.7420687185098442
