13
## STRUCTURE-ID: 645bb88627df294d195a483d ; CHARGE = -1; SPIN = 1
I -1.659803877842452 -1.3234003686882658 1.5463466537631632
C -1.3558600804490806 0.9012763143328973 -1.0324698272514907
H -2.0887981882396622 1.2695701122986676 -0.31654676042509217
H -1.8269618654162993 0.19092764912098734 -1.7280036235918477
H -0.9245718512125456 1.7342211166461285 -1.5853125503472465
O 0.9458985629437837 -3.817915151341068 1.2629527193240762
Rh 0.10652593291966193 -0.37354576436715803 -0.1690661008494753
I 1.5167565169402462 -0.15152434711872914 -2.381498156993974
I 1.3163973811303669 -2.757121589069571 -0.20956381266071558
O 2.6293390348716614 0.4265699221789474 1.1265359299526179
C 1.4641680727237656 0.5628061500656552 0.9470618501646042
O -0.36293655280323356 2.1035464863076117 1.546953447074512
C 0.23984691443376419 1.2345894696339195 0.9926102318408114
