15
## STRUCTURE-ID: 645bc79dfa793f557b6006a0 ; CHARGE = -1; SPIN = 1
C -2.8930010040966727 -0.3545028863998505 0.5190394883111744
O -3.677434498671305 -0.5333075361495424 1.3472802571097988
I 0.12551086539519515 1.6138751842178116 1.466323255212207
O 0.2758955705172005 0.9031565548622708 -1.987014128994483
C 2.8903051894722167 0.7363768635484474 0.7516095999573208
H 3.2541819068571645 0.6315092864702814 1.7557591554341814
H 3.162695717970686 1.5846594529884823 0.1533404103103587
H 0.2576768911711102 1.471983392852027 -2.782710388461665
Rh -0.9583583362611897 -0.46788552927122945 0.14975564223731894
I 2.300299521309535 -0.9497003113003772 -0.2253412886304881
I -0.9018930286408372 -2.537699448806357 -1.648597025633521
O -0.2944970394216612 -2.4390718434351997 2.349189713852649
C -0.6726538431145188 -1.6693956434057566 1.5824085401400925
O -1.911583522181129 1.2846251672508158 -1.9747245205480919
C -0.9571443903057972 0.72537729657818 -1.4563187102968396
