20
## STRUCTURE-ID: 645bc10eb1236f29f536ef5b ; CHARGE = -1; SPIN = 1
C -2.8638363571150802 -0.3738687223706416 0.5735147970928407
O -4.021567235283869 -0.42782534147084933 0.9824451158453457
I -1.6625291042654093 2.782961781663035 -2.6402636535062816
C 3.336838420312987 -1.0266451805914583 -1.6010074200290814
H 4.416260944013277 -1.1734640456086602 -1.5683163555103097
H 2.8230495738439183 -1.956795405299137 -1.8474589405001651
H 3.0510258490548448 -0.31937077189119234 -2.3796538911009217
O -1.9506591235588833 -1.2392857216125277 1.0875199221261642
C 0.5948349388816931 0.39194494164157034 1.5356979838250342
H 0.6337844296820396 -0.5699807591555969 2.032162379486024
H -0.2820571274764354 0.9478785320786849 1.8442886071863454
H 1.5036747925329281 0.9609495085190655 1.6958548328516472
H -2.362185502216417 -1.8764470533769073 1.7046553969142955
Rh -2.2225277978987434 0.8892631521488318 -0.786491320069352
I -2.8707186985316233 -0.9953076391608888 -2.537109525097498
I 0.4067673779776129 0.021221809395497636 -0.574800317232083
O -2.398628459829613 2.80150736648048 1.4857215425336399
C -2.2408895819966723 2.091899922473469 0.5746049241651405
O 3.2642224731277927 -0.3697887194968083 0.747108837100369
C 2.8451401887457246 -0.5588476543658087 -0.32847291608140833
