20
## STRUCTURE-ID: 645bc8a7abc5a62a3c5a4851 ; CHARGE = -1; SPIN = 3
C -2.448398256121524 0.09520696656859486 0.525936522104629
O -3.536865041322221 0.47452553791350705 0.5649815690743103
I 1.7327057925060325 -1.1821360313385516 -0.16998901674418498
C -1.1445344985520556 -3.2821473874513782 0.8837171817185546
H -1.4000211254283899 -3.1428732080279236 -0.16776264131327825
H -0.20993926952835756 -3.8432347857432183 0.9469228186722581
H -1.9251147503942898 -3.8429215383533735 1.3980924394442453
O -1.146832515188427 -0.09411358514576196 -2.3212555548669416
C 2.8057310727090776 2.740808140799528 -0.37783620420590297
H 3.3581930834649025 1.8102422260715443 -0.37953038558767604
H 1.8033342484984078 2.5937265227106767 -0.7587949161614057
H 2.772565446500573 3.1694619066344583 0.6148074139257506
H -1.0935833744288708 0.3143646343787312 -3.212657275866475
Rh -0.6453277504788966 -0.29778263438615343 0.4359614711088014
I 0.039020482692968046 1.7204307729017552 2.1958328018048836
I 3.804049506794736 4.106770465275178 -1.6680186790097369
O -0.2558123048756742 1.8119427212512638 -1.5709826195174632
C -0.664167980017424 0.6889006844475523 -1.3538102626533732
O -0.9187643094308093 -1.8652135193026096 2.806997929082541
C -0.9262384573997985 -1.9759578892038172 1.6073874089904598
