13
## STRUCTURE-ID: 645bb9cea360da3629099df0 ; CHARGE = -1; SPIN = 1
I -1.7052519747703094 1.667148983830817 -1.6380531967619927
C -1.3532883613269826 -1.0230419131462591 0.6098840927871811
H -0.7499631229707471 -1.7366263612790485 1.1778757786218816
H -1.7988124384056823 -1.5155698214642628 -0.25386587512003084
H -2.1400494053841785 -0.6082916216369588 1.2502687660387557
O 0.0573382182577582 1.2148653519699957 2.2957648186433177
Rh -0.14886812672219715 0.6041545628397395 0.1305660386109328
I 2.651582960162779 -0.8863360468767494 0.7067257622737397
I 0.6472141400905527 2.867510666474606 1.4765387044839338
O 2.2228889263345866 1.201327547319425 -1.4431902801340466
C 1.6679477904342939 0.21872490528424496 -1.020782790318204
O 0.16521415143679752 -1.4682450670601406 -1.9815848917870684
C 0.4840472428633386 -0.5356211862554096 -1.3101469273383914
