15
## STRUCTURE-ID: 645bd747f4976d5579108f21 ; CHARGE = 0; SPIN = 1
C -3.1803240365780217 0.8906251737479032 -0.29579282575498794
O -4.280652376112274 1.1067659121477238 -0.5197421782264755
I -1.8847731878394132 -1.8480936172535005 -1.0899591779613944
C 2.791660208582022 -0.8171656588740932 -0.5433067961373068
H 2.876516236934133 -1.3250926974422144 0.41710203852313
H 3.616400042465043 -0.11863598677552657 -0.6869340611080281
H 2.8508567932404123 -1.5471688409988351 -1.3540026407330013
H -1.4290513610542257 -2.312651837410797 2.5531380461345177
Rh -1.4281253995059449 0.46631082632178256 0.02081209197761494
I -1.3483450742806464 -0.7968352506695835 2.9834599159658524
I 1.1737347777896217 1.0530989155982604 -2.434155140937109
O 0.6195306846874432 -0.12195388239875542 0.18068448856048627
C 1.5097083338878383 -0.11765227670289104 -0.6221287999416479
O -0.8301720848863062 3.286642308628723 0.8370510527506004
C -1.0569635573296494 2.2018069120817794 0.5537739868877416
