13
## STRUCTURE-ID: 645bb4b2a8bd7449697e8a8d ; CHARGE = 0; SPIN = 1
I -1.9350315562225713 -1.182892180695597 2.021745845204293
C -1.1209696586611617 0.3713639086560005 -0.9034917866866289
H -0.584500304815077 1.1072718881737926 -1.5064697923807233
H -2.0836212490061854 0.7682444768632568 -0.5771919421297939
H -1.2687298133292757 -0.5570865231310015 -1.4584536900185685
H 0.2922747775972268 3.5514138827893786 1.1425316477220095
Rh 0.034381934078616824 0.013931148239300339 0.7957600794680534
I -0.5155915466007271 2.465728867649285 1.978343190751107
I 2.4122471796848672 0.6475736638106633 -0.3850541552507581
O 1.3508591776918393 -2.4432065911168905 1.3125447035984759
C 0.9906017385722605 -1.6767015603588813 0.46537482171025674
O 1.0654319583181104 -1.6378910436535121 -2.0010669913888486
C 1.3626473626920697 -1.427749937225809 -0.8845719305988773
