15
## STRUCTURE-ID: 645be1d54cce244b64246420 ; CHARGE = 0; SPIN = 1
C -1.8979690587701015 -0.4603280315862838 -1.564520643598383
O -2.962000164436961 -0.7546715576108044 -1.8271894659443537
I -0.8917834469554815 2.6947657723091543 1.1434995462377153
C 0.8483465811019947 -0.6127955860437719 1.718981666940257
H 1.6040847526892377 -1.2906949810631214 1.3208274058520104
H 0.51961028799421 -0.9516424949283673 2.7031930632904078
H 1.3270898883281725 0.36346475366719505 1.8162593206752096
H 0.2837200239719673 3.658727956878683 0.7223585592161583
Rh -0.12788698641075993 0.05519553604730263 -1.1839402294267212
I 2.3461683494272494 0.9435335320406386 -1.0937994080410567
I -0.9639211517580126 1.9735973090961698 -2.8802862074733255
O -1.4685157077719906 -0.7895110002940036 1.124487908741098
C -0.3403675786861504 -0.5536983579721846 0.8453457504145517
O 1.1022246789096548 -2.641768066687882 -1.5315014788173165
C 0.6211995323669821 -1.6341747838527179 -1.313715788066222
