20
## STRUCTURE-ID: 645bc0a5cd9bcb33bf0fad20 ; CHARGE = -1; SPIN = 1
C -3.1856232380951086 1.1821998501857505 -1.2409477860601492
O -4.329303123127452 1.2238601230586497 -1.1848027485777195
I 0.29154894536498405 2.0128874231424216 -2.8364973099963877
C 1.8217933257062626 -0.5019504620277618 -1.7852618566651306
H 2.666861485624857 -0.12397947142713012 -2.365783471123469
H 2.1899897730694065 -1.190317086240278 -1.0239339614161789
H 1.150795999131953 -1.0260056837448375 -2.461439197724501
O 0.3479774728567669 -2.751729092421745 2.4172215327524236
C 0.3743433397882758 -0.041904352952631195 2.3587498374557443
H 0.9679808672602882 -0.6801949846219757 2.994512056866452
H -0.4677969630780093 0.3669045285806781 2.905252945655407
H 0.9740922818830479 0.7500861153875751 1.9252279981145148
H 0.17619457092971622 -3.6512887953113884 2.1403115942707838
Rh -1.3804394581697976 0.6492031701032663 -0.8438816382858241
I -1.7468320306858236 -1.514465900995189 -2.305574596155335
I -0.3680910711184958 -1.2546098619377681 0.7982049276977157
O -1.0941117070440944 2.6749260496449745 1.33309109703215
C -1.1960547166500157 1.8994530414168593 0.48621756865550875
O 1.6071253154714482 1.3059133373822995 -0.18620437332644382
C 1.1995489308817755 0.6710120527781873 -1.12446261916958
