15
## STRUCTURE-ID: 645be3ea3e13c476e7315fa7 ; CHARGE = -1; SPIN = 1
C -2.242934621423161 -0.22929787905466448 -0.6278477814978864
O -3.1905679639499995 0.5461501511881891 -0.5261005881656083
I -0.4849567977491784 2.086626555449771 -2.1268522478868883
C 2.2660359573404816 -0.27906730094072346 0.36195288017311056
H 2.2998697049245878 -1.1189701891630486 1.0610259075481252
H 2.3596467367837763 0.6482262928646475 0.9207564751185657
H 3.0869980789935227 -0.3844248493429979 -0.34744750522047435
O -2.578256583710861 -1.4390389508229964 -1.109004638377528
Rh -0.6456327192836818 0.6397210008023952 0.10425550336674703
I -1.0820009887556576 -0.9491807234049551 2.1473510559602884
I -1.5131638342195892 -3.0678696266904253 -1.0274580504803128
O 0.7860495857732748 -1.1431183726595633 -1.3125007451790016
C 0.9893620590950818 -0.4059762579731029 -0.39403651991288585
O -0.16793928862446947 3.0258825934937685 1.7248045006709738
C 0.11749067480586758 2.0703375562536235 1.1511017538828268
