20
## STRUCTURE-ID: 645be738b2ded73dcc799620 ; CHARGE = -1; SPIN = 1
C -1.5645953366977232 2.5981016571779714 0.1311268028475438
O -2.393926791737119 3.3010325027944436 0.48290701044791856
I 1.528760198278888 3.3844438957692935 0.9870551910645844
C -1.281264627273574 0.2581056050592163 -1.39827645275784
H -0.7491685672180181 -0.6705125535727936 -1.6123795414639377
H -1.488055269844309 0.7783603897382264 -2.3385572131787473
H -2.2274700060255332 0.019237108303007455 -0.913165016664445
O 2.2792906229362115 -1.357206223110496 -0.29457717344645507
C -0.7169836546887512 -2.0512193147536055 1.1145312066492732
H -0.5747638649067535 -2.7481812627498967 1.9337052808166937
H -0.08008786299278922 -2.2876214535513877 0.2705289371778371
H -1.765483566435619 -1.9991352714414006 0.8439623604303415
H 2.998231175840708 -1.95525287922052 -0.001823969944383268
Rh -0.05274337894387462 1.541558260586523 -0.2649443972089314
I -3.3674594538512954 -0.9098275334515998 3.4400138930614323
I -0.12996267005390585 -0.10501786062075606 1.848196779283442
O 3.854568012453897 0.21595243726740698 -0.5938937621193479
C 2.7103707723018764 -0.15912882666902453 -0.6229126359201766
O 1.4500181175109854 1.3807185448520571 -2.025426062623335
C 1.5707261513467408 0.7655927775933148 -0.9860712364514423
