15
## STRUCTURE-ID: 645be22043d5447baf108f0a ; CHARGE = 0; SPIN = 1
C -1.418565281107234 -0.4640984867357403 -1.8525172943111579
O -2.3626422665746234 -1.106614629044531 -1.8311123757052492
I 0.3962663788393706 1.5175946290144426 1.0815743597644165
C -0.5485427887552191 -0.7134266086676284 3.012186520557449
H -0.9291916573855354 -1.7155929278879216 3.2070367502297352
H -1.2275060798266264 0.03957026089604173 3.4152781691040857
H 0.4102769360982456 -0.5611751412079674 3.510071445371134
H 3.447449422238719 1.7883024906839304 -2.411893331709171
Rh 0.048820424307679 0.6505981109156629 -1.9359907405859156
I 1.993316537872179 2.336092868747568 -2.7590990850766848
I -1.745887049864751 2.515193698236734 -2.4861460167526137
O -0.5956217856414137 -1.2157623141361495 0.6448592879948895
C -0.3925550764849986 -0.5158945308416701 1.5760003961955023
O 1.7676898312510616 -1.7519904722518316 -1.490369887047146
C 1.1566924550331776 -0.8027969477210398 -1.6798781980293358
