21
## STRUCTURE-ID: 645bec6529c5003cec246428 ; CHARGE = 0; SPIN = 1
C -2.6595409854126735 -0.008066720945462598 -0.01079223386483262
O -3.62699998740707 -0.30327238814896196 -0.5310424907484718
H -3.0220623120659305 3.7309912144906825 -0.019308950650248926
I -4.008473952166062 3.172074789131188 1.0646802259735668
C -0.6651426753325891 1.4456162533097423 2.282775518699441
H -0.5927566295786794 2.4254641721746943 1.7964204775875026
H -1.725193389864166 1.1917719180985022 2.328405908455997
H -0.2493187274526271 1.523224809501561 3.289186215040453
O 3.2860653764477674 -0.7727078777304646 -3.092267805314956
C 2.238446670199373 -2.17815249104019 -1.0249979252353396
H 3.2425425384446025 -2.282505825020941 -1.4081727352203741
H 1.6129597490255105 -2.985399671533731 -1.3866114797147135
H 2.2336620636445748 -2.1222445989384813 0.05711491789260674
H 3.4463687230744893 -0.057681982289679905 -3.7059011334982275
Rh -0.6843587630063341 -0.13112670080946784 -0.2704697812206338
I -0.5348478351818182 2.190166822786482 -1.3920934316564841
I 1.5257717679606226 -0.34778812724857855 -1.7999567773286818
O 1.210812847095728 0.02732270457918999 1.707503654483761
C 0.1343188297422304 0.4794573995994452 1.5260784380654284
O -0.5835275910865538 -3.058742845965135 0.40185604509820694
C -0.5787257170803863 -1.9384008540004183 0.18759334315612083
