15
## STRUCTURE-ID: 645bd64379043b03a16df3ab ; CHARGE = 0; SPIN = 1
C -3.135193419651231 0.5320139841255547 0.9287537802275864
O -4.205861208873708 0.5873953614175819 1.326663610711704
I -1.8194765105563397 -2.216148654050728 0.18806776606745737
C 2.8492376118799267 -0.84551112031965 -0.09621551100092747
H 3.664565231517941 -0.2890078820207838 0.3660888355166799
H 2.895908634540385 -0.7719045606196212 -1.1824354045962542
H 2.968133580487988 -1.8881050720517691 0.20941983294982452
H -1.734993163868512 -0.8859231100496957 -3.2347728485591
Rh -1.4244264722331306 0.3571391810971164 0.30042802178913064
I -1.6163349694317046 0.6529025390673406 -2.9093549018525735
I 1.3181666485422538 -0.26599874499774045 2.5507712626842554
O 0.6116890800027343 -0.010593354579504308 -0.27140923491939617
C 1.5563948543334925 -0.35530286645391534 0.3810790150836493
O -0.8522794731430571 3.2492013883859765 0.833657766926188
C -1.0755304235470438 2.149842911049844 0.6092580089717675
