15
## STRUCTURE-ID: 645be28b867b5b27236df394 ; CHARGE = -1; SPIN = 1
C -2.8484913775212393 -0.3761671615911959 0.047140009356226954
O -3.727352611341934 -0.44664161265029867 0.7657729288702184
I -1.3397375123466708 2.403658895712289 0.26026283581122245
C 1.8928673021774924 1.3782922727467826 -0.5000792789808464
H 1.7920675332242644 2.006701594745753 0.3867063683994754
H 1.445434003573091 1.9124364117298143 -1.3375630964616263
H 2.950134061088739 1.19324736736091 -0.6894036644052551
O -0.2871448749830286 -1.912700752157125 2.897748637484155
Rh -0.8298776923502775 -0.1415363791536078 -0.2775113890436399
I -0.728529917933904 0.0820439939176628 -2.942393437972034
I -0.5662077176942488 -0.16179447043050593 2.370357604378924
O -0.31767530823815227 -3.0825933620558783 -0.3430251279832874
C -0.5203400466544904 -1.9637994939062338 -0.36673878118283476
O 1.8563272187708788 -0.9493515342814203 -0.022967577538630348
C 1.2285269402294978 0.05820423001308895 -0.24830603073209662
