15
## STRUCTURE-ID: 645bd74fefb47952d336ef4d ; CHARGE = 0; SPIN = 1
C -3.2060847834654713 1.0910455845579343 -0.7043993341141233
O -3.9886090791693567 1.5913768320854764 -1.3728307609682626
I -3.628640368296701 -1.8272603563818401 0.017935401373523518
C 3.1009462084099315 -0.4418197962987989 -0.743781918643262
H 3.1276684037118456 -1.5320958791215677 -0.785400279876843
H 3.8530208529129264 -0.06506567436378331 -0.0511784615062147
H 3.297981936498247 -0.09271799488072921 -1.757973020380922
H -1.429535790899168 -2.425956137855487 2.5774146270636873
Rh -1.997858787375375 0.2180085584481966 0.37718499356075175
I -0.6635260460444095 -1.0480786242017126 2.3702234469498564
I 0.14973874188649172 -0.7690951378772558 -1.7019912852029715
O 1.394928478671858 0.6297645873036934 0.5975596980370583
C 1.781448760004597 -0.008882447988030891 -0.3152179185953733
O -0.6645276216696763 2.859600303720754 0.813263988432251
C -1.1269509051757682 1.821176182853026 0.6791908238709329
